MODEL 1
REMARK VINA RESULT:      -7.7      0.000      0.000
REMARK SMILES CC(=O)CCc1ccc2c(c1)OCO2
REMARK SMILES IDX 4 1 2 2 1 3 3 4 5 5 6 6 7 7 11 8 8 9 10 10 9 11 12 12 14 13
REMARK SMILES IDX 13 14
REMARK H PARENT
REMARK Flexibility Score: inf
ROOT
ATOM      1  C   UNL     1       5.529   1.913   1.254  1.00  0.00     0.080 C 
ENDROOT
BRANCH   1   2
ATOM      2  C   UNL     1       5.079   0.706   2.002  1.00  0.00     0.130 C 
ATOM      3  C   UNL     1       5.961  -0.480   2.174  1.00  0.00     0.087 C 
ATOM      4  O   UNL     1       3.966   0.655   2.499  1.00  0.00    -0.300 OA
ENDBRANCH   1   2
BRANCH   1   5
ATOM      5  C   UNL     1       5.400   1.712  -0.243  1.00  0.00     0.043 C 
BRANCH   5   6
ATOM      6  C   UNL     1       6.571   1.013  -0.803  1.00  0.00    -0.044 A 
ATOM      7  C   UNL     1       7.876   1.452  -0.551  1.00  0.00     0.008 A 
ATOM      8  C   UNL     1       6.388  -0.099  -1.592  1.00  0.00     0.054 A 
ATOM      9  C   UNL     1       8.936   0.756  -1.103  1.00  0.00     0.051 A 
ATOM     10  C   UNL     1       7.463  -0.800  -2.147  1.00  0.00     0.166 A 
ATOM     11  C   UNL     1       8.747  -0.369  -1.901  1.00  0.00     0.165 A 
ATOM     12  O   UNL     1       7.542  -1.916  -2.952  1.00  0.00    -0.454 OA
ATOM     13  O   UNL     1       9.597  -1.239  -2.566  1.00  0.00    -0.454 OA
ATOM     14  C   UNL     1       8.879  -2.287  -3.171  1.00  0.00     0.468 C 
ENDBRANCH   5   6
ENDBRANCH   1   5
TORSDOF 3
ENDMDL
MODEL 2
REMARK VINA RESULT:      -7.5      1.916      2.384
REMARK SMILES CC(=O)CCc1ccc2c(c1)OCO2
REMARK SMILES IDX 4 1 2 2 1 3 3 4 5 5 6 6 7 7 11 8 8 9 10 10 9 11 12 12 14 13
REMARK SMILES IDX 13 14
REMARK H PARENT
REMARK Flexibility Score: inf
ROOT
ATOM      1  C   UNL     1       5.770   1.353  -0.329  1.00  0.00     0.080 C 
ENDROOT
BRANCH   1   2
ATOM      2  C   UNL     1       5.149   1.276   1.023  1.00  0.00     0.130 C 
ATOM      3  C   UNL     1       5.420   0.139   1.943  1.00  0.00     0.087 C 
ATOM      4  O   UNL     1       4.393   2.150   1.416  1.00  0.00    -0.300 OA
ENDBRANCH   1   2
BRANCH   1   5
ATOM      5  C   UNL     1       7.264   1.103  -0.263  1.00  0.00     0.043 C 
BRANCH   5   6
ATOM      6  C   UNL     1       7.629  -0.188  -0.873  1.00  0.00    -0.044 A 
ATOM      7  C   UNL     1       7.697  -0.349  -2.262  1.00  0.00     0.008 A 
ATOM      8  C   UNL     1       7.915  -1.267  -0.068  1.00  0.00     0.054 A 
ATOM      9  C   UNL     1       8.046  -1.583  -2.779  1.00  0.00     0.051 A 
ATOM     10  C   UNL     1       8.268  -2.513  -0.595  1.00  0.00     0.166 A 
ATOM     11  C   UNL     1       8.334  -2.672  -1.962  1.00  0.00     0.165 A 
ATOM     12  O   UNL     1       8.592  -3.721  -0.015  1.00  0.00    -0.454 OA
ATOM     13  O   UNL     1       8.702  -3.988  -2.195  1.00  0.00    -0.454 OA
ATOM     14  C   UNL     1       8.964  -4.664  -0.988  1.00  0.00     0.468 C 
ENDBRANCH   5   6
ENDBRANCH   1   5
TORSDOF 3
ENDMDL
MODEL 3
REMARK VINA RESULT:      -7.2      2.063      2.658
REMARK SMILES CC(=O)CCc1ccc2c(c1)OCO2
REMARK SMILES IDX 4 1 2 2 1 3 3 4 5 5 6 6 7 7 11 8 8 9 10 10 9 11 12 12 14 13
REMARK SMILES IDX 13 14
REMARK H PARENT
REMARK Flexibility Score: inf
ROOT
ATOM      1  C   UNL     1       5.357  -0.117   2.016  1.00  0.00     0.080 C 
ENDROOT
BRANCH   1   2
ATOM      2  C   UNL     1       4.556   1.117   1.781  1.00  0.00     0.130 C 
ATOM      3  C   UNL     1       4.919   2.092   0.718  1.00  0.00     0.087 C 
ATOM      4  O   UNL     1       3.573   1.365   2.460  1.00  0.00    -0.300 OA
ENDBRANCH   1   2
BRANCH   1   5
ATOM      5  C   UNL     1       6.815   0.096   1.660  1.00  0.00     0.043 C 
BRANCH   5   6
ATOM      6  C   UNL     1       7.252  -0.810   0.583  1.00  0.00    -0.044 A 
ATOM      7  C   UNL     1       7.115  -0.465  -0.767  1.00  0.00     0.008 A 
ATOM      8  C   UNL     1       7.813  -2.026   0.900  1.00  0.00     0.054 A 
ATOM      9  C   UNL     1       7.545  -1.355  -1.734  1.00  0.00     0.051 A 
ATOM     10  C   UNL     1       8.246  -2.923  -0.081  1.00  0.00     0.166 A 
ATOM     11  C   UNL     1       8.110  -2.584  -1.409  1.00  0.00     0.165 A 
ATOM     12  O   UNL     1       8.825  -4.172  -0.023  1.00  0.00    -0.454 OA
ATOM     13  O   UNL     1       8.616  -3.644  -2.146  1.00  0.00    -0.454 OA
ATOM     14  C   UNL     1       9.162  -4.633  -1.306  1.00  0.00     0.468 C 
ENDBRANCH   5   6
ENDBRANCH   1   5
TORSDOF 3
ENDMDL
MODEL 4
REMARK VINA RESULT:      -7.1      1.265      1.475
REMARK SMILES CC(=O)CCc1ccc2c(c1)OCO2
REMARK SMILES IDX 4 1 2 2 1 3 3 4 5 5 6 6 7 7 11 8 8 9 10 10 9 11 12 12 14 13
REMARK SMILES IDX 13 14
REMARK H PARENT
REMARK Flexibility Score: inf
ROOT
ATOM      1  C   UNL     1       6.392   1.169   0.963  1.00  0.00     0.080 C 
ENDROOT
BRANCH   1   2
ATOM      2  C   UNL     1       5.645   0.343   1.952  1.00  0.00     0.130 C 
ATOM      3  C   UNL     1       6.234  -0.886   2.547  1.00  0.00     0.087 C 
ATOM      4  O   UNL     1       4.518   0.654   2.304  1.00  0.00    -0.300 OA
ENDBRANCH   1   2
BRANCH   1   5
ATOM      5  C   UNL     1       5.893   0.926  -0.447  1.00  0.00     0.043 C 
BRANCH   5   6
ATOM      6  C   UNL     1       6.830   0.093  -1.223  1.00  0.00    -0.044 A 
ATOM      7  C   UNL     1       7.494   0.592  -2.349  1.00  0.00     0.008 A 
ATOM      8  C   UNL     1       7.066  -1.207  -0.838  1.00  0.00     0.054 A 
ATOM      9  C   UNL     1       8.363  -0.235  -3.037  1.00  0.00     0.051 A 
ATOM     10  C   UNL     1       7.946  -2.039  -1.536  1.00  0.00     0.166 A 
ATOM     11  C   UNL     1       8.599  -1.549  -2.645  1.00  0.00     0.165 A 
ATOM     12  O   UNL     1       8.344  -3.347  -1.358  1.00  0.00    -0.454 OA
ATOM     13  O   UNL     1       9.394  -2.577  -3.129  1.00  0.00    -0.454 OA
ATOM     14  C   UNL     1       9.331  -3.706  -2.290  1.00  0.00     0.468 C 
ENDBRANCH   5   6
ENDBRANCH   1   5
TORSDOF 3
ENDMDL
MODEL 5
REMARK VINA RESULT:      -7.0      2.014      2.565
REMARK SMILES CC(=O)CCc1ccc2c(c1)OCO2
REMARK SMILES IDX 4 1 2 2 1 3 3 4 5 5 6 6 7 7 11 8 8 9 10 10 9 11 12 12 14 13
REMARK SMILES IDX 13 14
REMARK H PARENT
REMARK Flexibility Score: inf
ROOT
ATOM      1  C   UNL     1       6.813   0.673   1.504  1.00  0.00     0.080 C 
ENDROOT
BRANCH   1   2
ATOM      2  C   UNL     1       5.391   1.114   1.533  1.00  0.00     0.130 C 
ATOM      3  C   UNL     1       4.876   2.150   0.598  1.00  0.00     0.087 C 
ATOM      4  O   UNL     1       4.603   0.635   2.332  1.00  0.00    -0.300 OA
ENDBRANCH   1   2
BRANCH   1   5
ATOM      5  C   UNL     1       7.440   0.926   0.147  1.00  0.00     0.043 C 
BRANCH   5   6
ATOM      6  C   UNL     1       7.742  -0.332  -0.558  1.00  0.00    -0.044 A 
ATOM      7  C   UNL     1       7.731  -0.410  -1.956  1.00  0.00     0.008 A 
ATOM      8  C   UNL     1       8.047  -1.464   0.164  1.00  0.00     0.054 A 
ATOM      9  C   UNL     1       8.024  -1.618  -2.563  1.00  0.00     0.051 A 
ATOM     10  C   UNL     1       8.342  -2.682  -0.455  1.00  0.00     0.166 A 
ATOM     11  C   UNL     1       8.330  -2.760  -1.830  1.00  0.00     0.165 A 
ATOM     12  O   UNL     1       8.669  -3.929   0.034  1.00  0.00    -0.454 OA
ATOM     13  O   UNL     1       8.655  -4.066  -2.160  1.00  0.00    -0.454 OA
ATOM     14  C   UNL     1       8.967  -4.818  -1.012  1.00  0.00     0.468 C 
ENDBRANCH   5   6
ENDBRANCH   1   5
TORSDOF 3
ENDMDL
