MODEL 1
REMARK VINA RESULT:      -7.7      0.000      0.000
REMARK SMILES CC(=O)CCc1ccc2c(c1)OCO2
REMARK SMILES IDX 4 1 2 2 1 3 3 4 5 5 6 6 7 7 11 8 8 9 10 10 9 11 12 12 14 13
REMARK SMILES IDX 13 14
REMARK H PARENT
REMARK Flexibility Score: inf
ROOT
ATOM      1  C   UNL     1       5.509   1.926   1.249  1.00  0.00     0.080 C 
ENDROOT
BRANCH   1   2
ATOM      2  C   UNL     1       5.026   0.727   1.990  1.00  0.00     0.130 C 
ATOM      3  C   UNL     1       5.856  -0.500   2.116  1.00  0.00     0.087 C 
ATOM      4  O   UNL     1       3.925   0.718   2.518  1.00  0.00    -0.300 OA
ENDBRANCH   1   2
BRANCH   1   5
ATOM      5  C   UNL     1       5.390   1.731  -0.249  1.00  0.00     0.043 C 
BRANCH   5   6
ATOM      6  C   UNL     1       6.562   1.030  -0.804  1.00  0.00    -0.044 A 
ATOM      7  C   UNL     1       7.867   1.460  -0.540  1.00  0.00     0.008 A 
ATOM      8  C   UNL     1       6.379  -0.078  -1.600  1.00  0.00     0.054 A 
ATOM      9  C   UNL     1       8.928   0.762  -1.087  1.00  0.00     0.051 A 
ATOM     10  C   UNL     1       7.455  -0.781  -2.151  1.00  0.00     0.166 A 
ATOM     11  C   UNL     1       8.740  -0.358  -1.893  1.00  0.00     0.165 A 
ATOM     12  O   UNL     1       7.534  -1.894  -2.962  1.00  0.00    -0.454 OA
ATOM     13  O   UNL     1       9.590  -1.229  -2.556  1.00  0.00    -0.454 OA
ATOM     14  C   UNL     1       8.871  -2.271  -3.171  1.00  0.00     0.468 C 
ENDBRANCH   5   6
ENDBRANCH   1   5
TORSDOF 3
ENDMDL
MODEL 2
REMARK VINA RESULT:      -7.5      1.903      2.356
REMARK SMILES CC(=O)CCc1ccc2c(c1)OCO2
REMARK SMILES IDX 4 1 2 2 1 3 3 4 5 5 6 6 7 7 11 8 8 9 10 10 9 11 12 12 14 13
REMARK SMILES IDX 13 14
REMARK H PARENT
REMARK Flexibility Score: inf
ROOT
ATOM      1  C   UNL     1       5.716   1.388  -0.310  1.00  0.00     0.080 C 
ENDROOT
BRANCH   1   2
ATOM      2  C   UNL     1       5.136   1.291   1.058  1.00  0.00     0.130 C 
ATOM      3  C   UNL     1       5.456   0.156   1.964  1.00  0.00     0.087 C 
ATOM      4  O   UNL     1       4.374   2.148   1.478  1.00  0.00    -0.300 OA
ENDBRANCH   1   2
BRANCH   1   5
ATOM      5  C   UNL     1       7.216   1.167  -0.289  1.00  0.00     0.043 C 
BRANCH   5   6
ATOM      6  C   UNL     1       7.586  -0.128  -0.885  1.00  0.00    -0.044 A 
ATOM      7  C   UNL     1       7.670  -0.300  -2.272  1.00  0.00     0.008 A 
ATOM      8  C   UNL     1       7.862  -1.202  -0.069  1.00  0.00     0.054 A 
ATOM      9  C   UNL     1       8.023  -1.539  -2.775  1.00  0.00     0.051 A 
ATOM     10  C   UNL     1       8.219  -2.452  -0.582  1.00  0.00     0.166 A 
ATOM     11  C   UNL     1       8.300  -2.622  -1.946  1.00  0.00     0.165 A 
ATOM     12  O   UNL     1       8.535  -3.656   0.011  1.00  0.00    -0.454 OA
ATOM     13  O   UNL     1       8.669  -3.940  -2.165  1.00  0.00    -0.454 OA
ATOM     14  C   UNL     1       8.917  -4.606  -0.950  1.00  0.00     0.468 C 
ENDBRANCH   5   6
ENDBRANCH   1   5
TORSDOF 3
ENDMDL
MODEL 3
REMARK VINA RESULT:      -7.2      2.102      2.625
REMARK SMILES CC(=O)CCc1ccc2c(c1)OCO2
REMARK SMILES IDX 4 1 2 2 1 3 3 4 5 5 6 6 7 7 11 8 8 9 10 10 9 11 12 12 14 13
REMARK SMILES IDX 13 14
REMARK H PARENT
REMARK Flexibility Score: inf
ROOT
ATOM      1  C   UNL     1       5.620   0.003   1.970  1.00  0.00     0.080 C 
ENDROOT
BRANCH   1   2
ATOM      2  C   UNL     1       4.695   1.126   1.652  1.00  0.00     0.130 C 
ATOM      3  C   UNL     1       4.950   2.050   0.515  1.00  0.00     0.087 C 
ATOM      4  O   UNL     1       3.693   1.322   2.322  1.00  0.00    -0.300 OA
ENDBRANCH   1   2
BRANCH   1   5
ATOM      5  C   UNL     1       7.016   0.275   1.447  1.00  0.00     0.043 C 
BRANCH   5   6
ATOM      6  C   UNL     1       7.411  -0.698   0.413  1.00  0.00    -0.044 A 
ATOM      7  C   UNL     1       7.294  -0.406  -0.951  1.00  0.00     0.008 A 
ATOM      8  C   UNL     1       7.912  -1.925   0.786  1.00  0.00     0.054 A 
ATOM      9  C   UNL     1       7.681  -1.358  -1.877  1.00  0.00     0.051 A 
ATOM     10  C   UNL     1       8.303  -2.883  -0.154  1.00  0.00     0.166 A 
ATOM     11  C   UNL     1       8.186  -2.598  -1.496  1.00  0.00     0.165 A 
ATOM     12  O   UNL     1       8.821  -4.156  -0.039  1.00  0.00    -0.454 OA
ATOM     13  O   UNL     1       8.641  -3.712  -2.184  1.00  0.00    -0.454 OA
ATOM     14  C   UNL     1       9.137  -4.688  -1.299  1.00  0.00     0.468 C 
ENDBRANCH   5   6
ENDBRANCH   1   5
TORSDOF 3
ENDMDL
MODEL 4
REMARK VINA RESULT:      -7.1      1.262      1.476
REMARK SMILES CC(=O)CCc1ccc2c(c1)OCO2
REMARK SMILES IDX 4 1 2 2 1 3 3 4 5 5 6 6 7 7 11 8 8 9 10 10 9 11 12 12 14 13
REMARK SMILES IDX 13 14
REMARK H PARENT
REMARK Flexibility Score: inf
ROOT
ATOM      1  C   UNL     1       6.377   1.191   0.932  1.00  0.00     0.080 C 
ENDROOT
BRANCH   1   2
ATOM      2  C   UNL     1       5.658   0.370   1.946  1.00  0.00     0.130 C 
ATOM      3  C   UNL     1       6.262  -0.858   2.527  1.00  0.00     0.087 C 
ATOM      4  O   UNL     1       4.543   0.685   2.330  1.00  0.00    -0.300 OA
ENDBRANCH   1   2
BRANCH   1   5
ATOM      5  C   UNL     1       5.864   0.913  -0.467  1.00  0.00     0.043 C 
BRANCH   5   6
ATOM      6  C   UNL     1       6.812   0.096  -1.244  1.00  0.00    -0.044 A 
ATOM      7  C   UNL     1       7.491   0.616  -2.352  1.00  0.00     0.008 A 
ATOM      8  C   UNL     1       7.046  -1.211  -0.880  1.00  0.00     0.054 A 
ATOM      9  C   UNL     1       8.370  -0.198  -3.043  1.00  0.00     0.051 A 
ATOM     10  C   UNL     1       7.936  -2.029  -1.582  1.00  0.00     0.166 A 
ATOM     11  C   UNL     1       8.603  -1.518  -2.673  1.00  0.00     0.165 A 
ATOM     12  O   UNL     1       8.333  -3.340  -1.421  1.00  0.00    -0.454 OA
ATOM     13  O   UNL     1       9.406  -2.536  -3.164  1.00  0.00    -0.454 OA
ATOM     14  C   UNL     1       9.334  -3.680  -2.347  1.00  0.00     0.468 C 
ENDBRANCH   5   6
ENDBRANCH   1   5
TORSDOF 3
ENDMDL
MODEL 5
REMARK VINA RESULT:      -6.9      1.953      2.569
REMARK SMILES CC(=O)CCc1ccc2c(c1)OCO2
REMARK SMILES IDX 4 1 2 2 1 3 3 4 5 5 6 6 7 7 11 8 8 9 10 10 9 11 12 12 14 13
REMARK SMILES IDX 13 14
REMARK H PARENT
REMARK Flexibility Score: inf
ROOT
ATOM      1  C   UNL     1       6.875   0.764   0.956  1.00  0.00     0.080 C 
ENDROOT
BRANCH   1   2
ATOM      2  C   UNL     1       5.488   1.138   1.350  1.00  0.00     0.130 C 
ATOM      3  C   UNL     1       4.707   2.150   0.590  1.00  0.00     0.087 C 
ATOM      4  O   UNL     1       4.950   0.620   2.315  1.00  0.00    -0.300 OA
ENDBRANCH   1   2
BRANCH   1   5
ATOM      5  C   UNL     1       7.060   0.838  -0.547  1.00  0.00     0.043 C 
BRANCH   5   6
ATOM      6  C   UNL     1       7.590  -0.423  -1.095  1.00  0.00    -0.044 A 
ATOM      7  C   UNL     1       7.921  -0.552  -2.449  1.00  0.00     0.008 A 
ATOM      8  C   UNL     1       7.770  -1.506  -0.264  1.00  0.00     0.054 A 
ATOM      9  C   UNL     1       8.416  -1.760  -2.906  1.00  0.00     0.051 A 
ATOM     10  C   UNL     1       8.271  -2.725  -0.732  1.00  0.00     0.166 A 
ATOM     11  C   UNL     1       8.596  -2.853  -2.064  1.00  0.00     0.165 A 
ATOM     12  O   UNL     1       8.536  -3.930  -0.116  1.00  0.00    -0.454 OA
ATOM     13  O   UNL     1       9.060  -4.147  -2.240  1.00  0.00    -0.454 OA
ATOM     14  C   UNL     1       9.124  -4.836  -1.014  1.00  0.00     0.468 C 
ENDBRANCH   5   6
ENDBRANCH   1   5
TORSDOF 3
ENDMDL
