@<TRIPOS>MOLECULE
/home/cewinharhar/GITHUB/reincatalyze/data/processed/docking_pred/2023-May-30-2130_sub9_nm5_bs15_s42_ex16_mel10_mts10000_k50_ec05_g099_lra3e-4_lrc3e-3/0310d41f91ab2de901a6698b161cc991790b6b4b_ligand_9.pdbqt
 14 15 0 0 0
SMALL
GASTEIGER

@<TRIPOS>ATOM
      1  C          6.8370    1.0160    1.2900 C.3     1  UNL1        0.0800
      2  C          5.3680    1.2330    1.4090 C.2     1  UNL1        0.1300
      3  C          4.6370    2.1500    0.4930 C.3     1  UNL1        0.0870
      4  O          4.7180    0.6610    2.2680 O.2     1  UNL1       -0.3000
      5  C          7.3060    1.1990   -0.1400 C.3     1  UNL1        0.0430
      6  C          7.6330   -0.0900   -0.7770 C.2     1  UNL1       -0.0440
      7  C          7.6270   -0.2430   -2.1680 C.2     1  UNL1        0.0080
      8  C          7.9570   -1.1750    0.0060 C.2     1  UNL1        0.0540
      9  C          7.9430   -1.4760   -2.7090 C.2     1  UNL1        0.0510
     10  C          8.2760   -2.4190   -0.5460 C.2     1  UNL1        0.1660
     11  C          8.2690   -2.5710   -1.9140 C.2     1  UNL1        0.1650
     12  O          8.6260   -3.6310    0.0100 O.2     1  UNL1       -0.4540
     13  O          8.6190   -3.8860   -2.1740 O.2     1  UNL1       -0.4540
     14  C          8.9420   -4.5700   -0.9860 C.3     1  UNL1        0.4680
@<TRIPOS>BOND
     1     9     7    1
     2     9    11    2
     3    13    11    1
     4    13    14    1
     5     7     6    2
     6    11    10    1
     7    14    12    1
     8     6     5    1
     9     6     8    1
    10    10     8    2
    11    10    12    1
    12     5     1    1
    13     3     2    1
    14     1     2    1
    15     2     4    2
