MODEL 1
REMARK VINA RESULT:      -6.6      0.000      0.000
REMARK SMILES CC(=O)CCc1ccc2c(c1)OCO2
REMARK SMILES IDX 4 1 2 2 1 3 3 4 5 5 6 6 7 7 11 8 8 9 10 10 9 11 12 12 14 13
REMARK SMILES IDX 13 14
REMARK H PARENT
REMARK Flexibility Score: inf
ROOT
ATOM      1  C   UNL     1       5.372  -0.278   2.134  1.00  0.00     0.080 C 
ENDROOT
BRANCH   1   2
ATOM      2  C   UNL     1       4.465   0.884   1.917  1.00  0.00     0.130 C 
ATOM      3  C   UNL     1       4.701   1.866   0.826  1.00  0.00     0.087 C 
ATOM      4  O   UNL     1       3.495   1.064   2.636  1.00  0.00    -0.300 OA
ENDBRANCH   1   2
BRANCH   1   5
ATOM      5  C   UNL     1       6.786   0.037   1.687  1.00  0.00     0.043 C 
BRANCH   5   6
ATOM      6  C   UNL     1       7.230  -0.862   0.607  1.00  0.00    -0.044 A 
ATOM      7  C   UNL     1       7.069  -0.524  -0.742  1.00  0.00     0.008 A 
ATOM      8  C   UNL     1       7.822  -2.064   0.921  1.00  0.00     0.054 A 
ATOM      9  C   UNL     1       7.506  -1.408  -1.712  1.00  0.00     0.051 A 
ATOM     10  C   UNL     1       8.264  -2.954  -0.064  1.00  0.00     0.166 A 
ATOM     11  C   UNL     1       8.104  -2.623  -1.391  1.00  0.00     0.165 A 
ATOM     12  O   UNL     1       8.872  -4.190  -0.009  1.00  0.00    -0.454 OA
ATOM     13  O   UNL     1       8.624  -3.673  -2.131  1.00  0.00    -0.454 OA
ATOM     14  C   UNL     1       9.203  -4.646  -1.296  1.00  0.00     0.468 C 
ENDBRANCH   5   6
ENDBRANCH   1   5
TORSDOF 3
ENDMDL
MODEL 2
REMARK VINA RESULT:      -5.9      1.050      1.983
REMARK SMILES CC(=O)CCc1ccc2c(c1)OCO2
REMARK SMILES IDX 4 1 2 2 1 3 3 4 5 5 6 6 7 7 11 8 8 9 10 10 9 11 12 12 14 13
REMARK SMILES IDX 13 14
REMARK H PARENT
REMARK Flexibility Score: inf
ROOT
ATOM      1  C   UNL     1       5.250  -0.208   2.294  1.00  0.00     0.080 C 
ENDROOT
BRANCH   1   2
ATOM      2  C   UNL     1       4.351   0.939   1.986  1.00  0.00     0.130 C 
ATOM      3  C   UNL     1       4.629   1.868   0.858  1.00  0.00     0.087 C 
ATOM      4  O   UNL     1       3.354   1.152   2.657  1.00  0.00    -0.300 OA
ENDBRANCH   1   2
BRANCH   1   5
ATOM      5  C   UNL     1       6.695   0.127   1.986  1.00  0.00     0.043 C 
BRANCH   5   6
ATOM      6  C   UNL     1       7.247  -0.748   0.935  1.00  0.00    -0.044 A 
ATOM      7  C   UNL     1       7.576  -2.084   1.192  1.00  0.00     0.008 A 
ATOM      8  C   UNL     1       7.444  -0.250  -0.333  1.00  0.00     0.054 A 
ATOM      9  C   UNL     1       8.090  -2.857   0.167  1.00  0.00     0.051 A 
ATOM     10  C   UNL     1       7.963  -1.036  -1.366  1.00  0.00     0.166 A 
ATOM     11  C   UNL     1       8.289  -2.350  -1.114  1.00  0.00     0.165 A 
ATOM     12  O   UNL     1       8.249  -0.779  -2.690  1.00  0.00    -0.454 OA
ATOM     13  O   UNL     1       8.772  -2.878  -2.301  1.00  0.00    -0.454 OA
ATOM     14  C   UNL     1       8.679  -1.942  -3.348  1.00  0.00     0.468 C 
ENDBRANCH   5   6
ENDBRANCH   1   5
TORSDOF 3
ENDMDL
MODEL 3
REMARK VINA RESULT:      -5.8      1.357      6.120
REMARK SMILES CC(=O)CCc1ccc2c(c1)OCO2
REMARK SMILES IDX 4 1 2 2 1 3 3 4 5 5 6 6 7 7 11 8 8 9 10 10 9 11 12 12 14 13
REMARK SMILES IDX 13 14
REMARK H PARENT
REMARK Flexibility Score: inf
ROOT
ATOM      1  C   UNL     1       8.793  -3.942  -0.360  1.00  0.00     0.080 C 
ENDROOT
BRANCH   1   2
ATOM      2  C   UNL     1       9.294  -4.850  -1.429  1.00  0.00     0.130 C 
ATOM      3  C   UNL     1       8.878  -6.276  -1.501  1.00  0.00     0.087 C 
ATOM      4  O   UNL     1      10.068  -4.446  -2.282  1.00  0.00    -0.300 OA
ENDBRANCH   1   2
BRANCH   1   5
ATOM      5  C   UNL     1       8.346  -2.611  -0.933  1.00  0.00     0.043 C 
BRANCH   5   6
ATOM      6  C   UNL     1       7.507  -1.861   0.018  1.00  0.00    -0.044 A 
ATOM      7  C   UNL     1       7.426  -2.222   1.367  1.00  0.00     0.008 A 
ATOM      8  C   UNL     1       6.783  -0.775  -0.421  1.00  0.00     0.054 A 
ATOM      9  C   UNL     1       6.622  -1.480   2.213  1.00  0.00     0.051 A 
ATOM     10  C   UNL     1       5.972  -0.028   0.439  1.00  0.00     0.166 A 
ATOM     11  C   UNL     1       5.891  -0.384   1.767  1.00  0.00     0.165 A 
ATOM     12  O   UNL     1       5.166   1.075   0.249  1.00  0.00    -0.454 OA
ATOM     13  O   UNL     1       5.029   0.518   2.371  1.00  0.00    -0.454 OA
ATOM     14  C   UNL     1       4.618   1.514   1.465  1.00  0.00     0.468 C 
ENDBRANCH   5   6
ENDBRANCH   1   5
TORSDOF 3
ENDMDL
MODEL 4
REMARK VINA RESULT:      -5.8      1.844      5.433
REMARK SMILES CC(=O)CCc1ccc2c(c1)OCO2
REMARK SMILES IDX 4 1 2 2 1 3 3 4 5 5 6 6 7 7 11 8 8 9 10 10 9 11 12 12 14 13
REMARK SMILES IDX 13 14
REMARK H PARENT
REMARK Flexibility Score: inf
ROOT
ATOM      1  C   UNL     1       7.984  -1.751  -2.372  1.00  0.00     0.080 C 
ENDROOT
BRANCH   1   2
ATOM      2  C   UNL     1       8.736  -0.469  -2.463  1.00  0.00     0.130 C 
ATOM      3  C   UNL     1       8.239   0.671  -3.280  1.00  0.00     0.087 C 
ATOM      4  O   UNL     1       9.789  -0.316  -1.866  1.00  0.00    -0.300 OA
ENDBRANCH   1   2
BRANCH   1   5
ATOM      5  C   UNL     1       8.125  -2.375  -0.998  1.00  0.00     0.043 C 
BRANCH   5   6
ATOM      6  C   UNL     1       7.312  -1.670   0.009  1.00  0.00    -0.044 A 
ATOM      7  C   UNL     1       7.276  -2.086   1.345  1.00  0.00     0.008 A 
ATOM      8  C   UNL     1       6.569  -0.572  -0.362  1.00  0.00     0.054 A 
ATOM      9  C   UNL     1       6.496  -1.384   2.245  1.00  0.00     0.051 A 
ATOM     10  C   UNL     1       5.782   0.135   0.553  1.00  0.00     0.166 A 
ATOM     11  C   UNL     1       5.745  -0.275   1.867  1.00  0.00     0.165 A 
ATOM     12  O   UNL     1       4.966   1.239   0.434  1.00  0.00    -0.454 OA
ATOM     13  O   UNL     1       4.899   0.596   2.535  1.00  0.00    -0.454 OA
ATOM     14  C   UNL     1       4.454   1.625   1.683  1.00  0.00     0.468 C 
ENDBRANCH   5   6
ENDBRANCH   1   5
TORSDOF 3
ENDMDL
MODEL 5
REMARK VINA RESULT:      -5.7      0.889      1.050
REMARK SMILES CC(=O)CCc1ccc2c(c1)OCO2
REMARK SMILES IDX 4 1 2 2 1 3 3 4 5 5 6 6 7 7 11 8 8 9 10 10 9 11 12 12 14 13
REMARK SMILES IDX 13 14
REMARK H PARENT
REMARK Flexibility Score: inf
ROOT
ATOM      1  C   UNL     1       6.450   0.704   1.917  1.00  0.00     0.080 C 
ENDROOT
BRANCH   1   2
ATOM      2  C   UNL     1       5.043   1.155   1.728  1.00  0.00     0.130 C 
ATOM      3  C   UNL     1       3.899   0.418   2.330  1.00  0.00     0.087 C 
ATOM      4  O   UNL     1       4.786   2.149   1.068  1.00  0.00    -0.300 OA
ENDBRANCH   1   2
BRANCH   1   5
ATOM      5  C   UNL     1       6.533  -0.805   2.035  1.00  0.00     0.043 C 
BRANCH   5   6
ATOM      6  C   UNL     1       7.101  -1.418   0.821  1.00  0.00    -0.044 A 
ATOM      7  C   UNL     1       6.950  -0.825  -0.438  1.00  0.00     0.008 A 
ATOM      8  C   UNL     1       7.799  -2.600   0.916  1.00  0.00     0.054 A 
ATOM      9  C   UNL     1       7.505  -1.446  -1.542  1.00  0.00     0.051 A 
ATOM     10  C   UNL     1       8.359  -3.223  -0.203  1.00  0.00     0.166 A 
ATOM     11  C   UNL     1       8.210  -2.641  -1.443  1.00  0.00     0.165 A 
ATOM     12  O   UNL     1       9.086  -4.383  -0.368  1.00  0.00    -0.454 OA
ATOM     13  O   UNL     1       8.856  -3.464  -2.352  1.00  0.00    -0.454 OA
ATOM     14  C   UNL     1       9.502  -4.532  -1.701  1.00  0.00     0.468 C 
ENDBRANCH   5   6
ENDBRANCH   1   5
TORSDOF 3
ENDMDL
