@<TRIPOS>MOLECULE
/home/cewinharhar/GITHUB/reincatalyze/data/processed/docking_pred/2023-May-30-2130_sub9_nm5_bs15_s42_ex16_mel10_mts10000_k50_ec05_g099_lra3e-4_lrc3e-3/035d1107efb5fe3e99d2a33353f0da4e413613a6_ligand_9.pdbqt
 14 15 0 0 0
SMALL
GASTEIGER

@<TRIPOS>ATOM
      1  C          8.7930   -3.9420   -0.3600 C.3     1  UNL1        0.0800
      2  C          9.2940   -4.8500   -1.4290 C.2     1  UNL1        0.1300
      3  C          8.8780   -6.2760   -1.5010 C.3     1  UNL1        0.0870
      4  O         10.0680   -4.4460   -2.2820 O.2     1  UNL1       -0.3000
      5  C          8.3460   -2.6110   -0.9330 C.3     1  UNL1        0.0430
      6  C          7.5070   -1.8610    0.0180 C.2     1  UNL1       -0.0440
      7  C          7.4260   -2.2220    1.3670 C.2     1  UNL1        0.0080
      8  C          6.7830   -0.7750   -0.4210 C.2     1  UNL1        0.0540
      9  C          6.6220   -1.4800    2.2130 C.2     1  UNL1        0.0510
     10  C          5.9720   -0.0280    0.4390 C.2     1  UNL1        0.1660
     11  C          5.8910   -0.3840    1.7670 C.2     1  UNL1        0.1650
     12  O          5.1660    1.0750    0.2490 O.2     1  UNL1       -0.4540
     13  O          5.0290    0.5180    2.3710 O.2     1  UNL1       -0.4540
     14  C          4.6180    1.5140    1.4650 C.3     1  UNL1        0.4680
@<TRIPOS>BOND
     1     4     2    2
     2     3     2    1
     3     2     1    1
     4     5     1    1
     5     5     6    1
     6     8     6    2
     7     8    10    1
     8     6     7    1
     9    12    10    1
    10    12    14    1
    11    10    11    2
    12     7     9    2
    13    14    13    1
    14    11     9    1
    15    11    13    1
