@<TRIPOS>MOLECULE
/home/cewinharhar/GITHUB/reincatalyze/data/processed/docking_pred/2023-May-30-2130_sub9_nm5_bs15_s42_ex16_mel10_mts10000_k50_ec05_g099_lra3e-4_lrc3e-3/035d1107efb5fe3e99d2a33353f0da4e413613a6_ligand_9.pdbqt
 14 15 0 0 0
SMALL
GASTEIGER

@<TRIPOS>ATOM
      1  C          7.9840   -1.7510   -2.3720 C.3     1  UNL1        0.0800
      2  C          8.7360   -0.4690   -2.4630 C.2     1  UNL1        0.1300
      3  C          8.2390    0.6710   -3.2800 C.3     1  UNL1        0.0870
      4  O          9.7890   -0.3160   -1.8660 O.2     1  UNL1       -0.3000
      5  C          8.1250   -2.3750   -0.9980 C.3     1  UNL1        0.0430
      6  C          7.3120   -1.6700    0.0090 C.2     1  UNL1       -0.0440
      7  C          7.2760   -2.0860    1.3450 C.2     1  UNL1        0.0080
      8  C          6.5690   -0.5720   -0.3620 C.2     1  UNL1        0.0540
      9  C          6.4960   -1.3840    2.2450 C.2     1  UNL1        0.0510
     10  C          5.7820    0.1350    0.5530 C.2     1  UNL1        0.1660
     11  C          5.7450   -0.2750    1.8670 C.2     1  UNL1        0.1650
     12  O          4.9660    1.2390    0.4340 O.2     1  UNL1       -0.4540
     13  O          4.8990    0.5960    2.5350 O.2     1  UNL1       -0.4540
     14  C          4.4540    1.6250    1.6830 C.3     1  UNL1        0.4680
@<TRIPOS>BOND
     1     3     2    1
     2     2     1    1
     3     2     4    2
     4     1     5    1
     5     5     6    1
     6     8     6    2
     7     8    10    1
     8     6     7    1
     9    12    10    1
    10    12    14    1
    11    10    11    2
    12     7     9    2
    13    14    13    1
    14    11     9    1
    15    11    13    1
