@<TRIPOS>MOLECULE
/home/cewinharhar/GITHUB/reincatalyze/data/processed/docking_pred/2023-May-30-2130_sub9_nm5_bs15_s42_ex16_mel10_mts10000_k50_ec05_g099_lra3e-4_lrc3e-3/035d1107efb5fe3e99d2a33353f0da4e413613a6_ligand_9.pdbqt
 14 15 0 0 0
SMALL
GASTEIGER

@<TRIPOS>ATOM
      1  C          5.3720   -0.2780    2.1340 C.3     1  UNL1        0.0800
      2  C          4.4650    0.8840    1.9170 C.2     1  UNL1        0.1300
      3  C          4.7010    1.8660    0.8260 C.3     1  UNL1        0.0870
      4  O          3.4950    1.0640    2.6360 O.2     1  UNL1       -0.3000
      5  C          6.7860    0.0370    1.6870 C.3     1  UNL1        0.0430
      6  C          7.2300   -0.8620    0.6070 C.2     1  UNL1       -0.0440
      7  C          7.0690   -0.5240   -0.7420 C.2     1  UNL1        0.0080
      8  C          7.8220   -2.0640    0.9210 C.2     1  UNL1        0.0540
      9  C          7.5060   -1.4080   -1.7120 C.2     1  UNL1        0.0510
     10  C          8.2640   -2.9540   -0.0640 C.2     1  UNL1        0.1660
     11  C          8.1040   -2.6230   -1.3910 C.2     1  UNL1        0.1650
     12  O          8.8720   -4.1900   -0.0090 O.2     1  UNL1       -0.4540
     13  O          8.6240   -3.6730   -2.1310 O.2     1  UNL1       -0.4540
     14  C          9.2030   -4.6460   -1.2960 C.3     1  UNL1        0.4680
@<TRIPOS>BOND
     1    13    11    1
     2    13    14    1
     3     9    11    2
     4     9     7    1
     5    11    10    1
     6    14    12    1
     7     7     6    2
     8    10    12    1
     9    10     8    2
    10     6     8    1
    11     6     5    1
    12     3     2    1
    13     5     1    1
    14     2     1    1
    15     2     4    2
