@<TRIPOS>MOLECULE
/home/cewinharhar/GITHUB/reincatalyze/data/processed/docking_pred/2023-May-30-2130_sub9_nm5_bs15_s42_ex16_mel10_mts10000_k50_ec05_g099_lra3e-4_lrc3e-3/035d1107efb5fe3e99d2a33353f0da4e413613a6_ligand_9.pdbqt
 14 15 0 0 0
SMALL
GASTEIGER

@<TRIPOS>ATOM
      1  C          5.2500   -0.2080    2.2940 C.3     1  UNL1        0.0800
      2  C          4.3510    0.9390    1.9860 C.2     1  UNL1        0.1300
      3  C          4.6290    1.8680    0.8580 C.3     1  UNL1        0.0870
      4  O          3.3540    1.1520    2.6570 O.2     1  UNL1       -0.3000
      5  C          6.6950    0.1270    1.9860 C.3     1  UNL1        0.0430
      6  C          7.2470   -0.7480    0.9350 C.2     1  UNL1       -0.0440
      7  C          7.5760   -2.0840    1.1920 C.2     1  UNL1        0.0080
      8  C          7.4440   -0.2500   -0.3330 C.2     1  UNL1        0.0540
      9  C          8.0900   -2.8570    0.1670 C.2     1  UNL1        0.0510
     10  C          7.9630   -1.0360   -1.3660 C.2     1  UNL1        0.1660
     11  C          8.2890   -2.3500   -1.1140 C.2     1  UNL1        0.1650
     12  O          8.2490   -0.7790   -2.6900 O.2     1  UNL1       -0.4540
     13  O          8.7720   -2.8780   -2.3010 O.2     1  UNL1       -0.4540
     14  C          8.6790   -1.9420   -3.3480 C.3     1  UNL1        0.4680
@<TRIPOS>BOND
     1    14    12    1
     2    14    13    1
     3    12    10    1
     4    13    11    1
     5    10    11    2
     6    10     8    1
     7    11     9    1
     8     8     6    2
     9     9     7    2
    10     3     2    1
    11     6     7    1
    12     6     5    1
    13     2     1    1
    14     2     4    2
    15     5     1    1
