@<TRIPOS>MOLECULE
/home/cewinharhar/GITHUB/reincatalyze/data/processed/docking_pred/2023-May-30-2130_sub9_nm5_bs15_s42_ex16_mel10_mts10000_k50_ec05_g099_lra3e-4_lrc3e-3/035d1107efb5fe3e99d2a33353f0da4e413613a6_ligand_9.pdbqt
 14 15 0 0 0
SMALL
GASTEIGER

@<TRIPOS>ATOM
      1  C          6.4500    0.7040    1.9170 C.3     1  UNL1        0.0800
      2  C          5.0430    1.1550    1.7280 C.2     1  UNL1        0.1300
      3  C          3.8990    0.4180    2.3300 C.3     1  UNL1        0.0870
      4  O          4.7860    2.1490    1.0680 O.2     1  UNL1       -0.3000
      5  C          6.5330   -0.8050    2.0350 C.3     1  UNL1        0.0430
      6  C          7.1010   -1.4180    0.8210 C.2     1  UNL1       -0.0440
      7  C          6.9500   -0.8250   -0.4380 C.2     1  UNL1        0.0080
      8  C          7.7990   -2.6000    0.9160 C.2     1  UNL1        0.0540
      9  C          7.5050   -1.4460   -1.5420 C.2     1  UNL1        0.0510
     10  C          8.3590   -3.2230   -0.2030 C.2     1  UNL1        0.1660
     11  C          8.2100   -2.6410   -1.4430 C.2     1  UNL1        0.1650
     12  O          9.0860   -4.3830   -0.3680 O.2     1  UNL1       -0.4540
     13  O          8.8560   -3.4640   -2.3520 O.2     1  UNL1       -0.4540
     14  C          9.5020   -4.5320   -1.7010 C.3     1  UNL1        0.4680
@<TRIPOS>BOND
     1    13    14    1
     2    13    11    1
     3    14    12    1
     4     9    11    2
     5     9     7    1
     6    11    10    1
     7     7     6    2
     8    12    10    1
     9    10     8    2
    10     6     8    1
    11     6     5    1
    12     4     2    2
    13     2     1    1
    14     2     3    1
    15     1     5    1
