@<TRIPOS>MOLECULE
/home/cewinharhar/GITHUB/reincatalyze/data/processed/docking_pred/2023-May-30-2130_sub9_nm5_bs15_s42_ex16_mel10_mts10000_k50_ec05_g099_lra3e-4_lrc3e-3/051d9442833557c4466992e4bdada3c2de553c76_ligand_9.pdbqt
 14 15 0 0 0
SMALL
GASTEIGER

@<TRIPOS>ATOM
      1  C          5.5280    1.9100    1.2550 C.3     1  UNL1        0.0800
      2  C          5.0690    0.7080    2.0070 C.2     1  UNL1        0.1300
      3  C          5.9360   -0.4890    2.1700 C.3     1  UNL1        0.0870
      4  O          3.9590    0.6720    2.5130 O.2     1  UNL1       -0.3000
      5  C          5.3960    1.7070   -0.2410 C.3     1  UNL1        0.0430
      6  C          6.5690    1.0150   -0.8040 C.2     1  UNL1       -0.0440
      7  C          7.8720    1.4660   -0.5630 C.2     1  UNL1        0.0080
      8  C          6.3910   -0.1040   -1.5850 C.2     1  UNL1        0.0540
      9  C          8.9340    0.7760   -1.1180 C.2     1  UNL1        0.0510
     10  C          7.4680   -0.7990   -2.1430 C.2     1  UNL1        0.1660
     11  C          8.7510   -0.3550   -1.9070 C.2     1  UNL1        0.1650
     12  O          7.5520   -1.9200   -2.9410 O.2     1  UNL1       -0.4540
     13  O          9.6030   -1.2220   -2.5720 O.2     1  UNL1       -0.4540
     14  C          8.8900   -2.2810   -3.1660 C.3     1  UNL1        0.4680
@<TRIPOS>BOND
     1    14    12    1
     2    14    13    1
     3    12    10    1
     4    13    11    1
     5    10    11    2
     6    10     8    1
     7    11     9    1
     8     8     6    2
     9     9     7    2
    10     6     7    1
    11     6     5    1
    12     5     1    1
    13     1     2    1
    14     2     3    1
    15     2     4    2
