@<TRIPOS>MOLECULE
/home/cewinharhar/GITHUB/reincatalyze/data/processed/docking_pred/2023-May-30-2130_sub9_nm5_bs15_s42_ex16_mel10_mts10000_k50_ec05_g099_lra3e-4_lrc3e-3/051d9442833557c4466992e4bdada3c2de553c76_ligand_9.pdbqt
 14 15 0 0 0
SMALL
GASTEIGER

@<TRIPOS>ATOM
      1  C          5.4250   -0.0360    2.0120 C.3     1  UNL1        0.0800
      2  C          4.5670    1.1550    1.7570 C.2     1  UNL1        0.1300
      3  C          4.8900    2.1360    0.6870 C.3     1  UNL1        0.0870
      4  O          3.5670    1.3610    2.4250 O.2     1  UNL1       -0.3000
      5  C          6.8570    0.2160    1.5820 C.3     1  UNL1        0.0430
      6  C          7.2790   -0.7120    0.5180 C.2     1  UNL1       -0.0440
      7  C          7.1420   -0.3850   -0.8360 C.2     1  UNL1        0.0080
      8  C          7.8240   -1.9310    0.8520 C.2     1  UNL1        0.0540
      9  C          7.5560   -1.2950   -1.7910 C.2     1  UNL1        0.0510
     10  C          8.2420   -2.8470   -0.1180 C.2     1  UNL1        0.1660
     11  C          8.1070   -2.5270   -1.4500 C.2     1  UNL1        0.1650
     12  O          8.8050   -4.1030   -0.0430 O.2     1  UNL1       -0.4540
     13  O          8.5950   -3.6040   -2.1730 O.2     1  UNL1       -0.4540
     14  C          9.1320   -4.5870   -1.3200 C.3     1  UNL1        0.4680
@<TRIPOS>BOND
     1    13    11    1
     2    13    14    1
     3     9    11    2
     4     9     7    1
     5    11    10    1
     6    14    12    1
     7     7     6    2
     8    10    12    1
     9    10     8    2
    10     6     8    1
    11     6     5    1
    12     3     2    1
    13     5     1    1
    14     2     1    1
    15     2     4    2
