@<TRIPOS>MOLECULE
/home/cewinharhar/GITHUB/reincatalyze/data/processed/docking_pred/2023-May-30-2130_sub9_nm5_bs15_s42_ex16_mel10_mts10000_k50_ec05_g099_lra3e-4_lrc3e-3/051d9442833557c4466992e4bdada3c2de553c76_ligand_9.pdbqt
 14 15 0 0 0
SMALL
GASTEIGER

@<TRIPOS>ATOM
      1  C          6.8330    0.8640    1.3060 C.3     1  UNL1        0.0800
      2  C          5.3810    1.1320    1.5050 C.2     1  UNL1        0.1300
      3  C          4.6570    2.1500    0.6970 C.3     1  UNL1        0.0870
      4  O          4.7400    0.5210    2.3440 O.2     1  UNL1       -0.3000
      5  C          7.2300    1.0380   -0.1470 C.3     1  UNL1        0.0430
      6  C          7.5720   -0.2500   -0.7780 C.2     1  UNL1       -0.0440
      7  C          7.5530   -0.4130   -2.1680 C.2     1  UNL1        0.0080
      8  C          7.9220   -1.3230    0.0090 C.2     1  UNL1        0.0540
      9  C          7.8840   -1.6440   -2.7040 C.2     1  UNL1        0.0510
     10  C          8.2560   -2.5660   -0.5380 C.2     1  UNL1        0.1660
     11  C          8.2370   -2.7280   -1.9050 C.2     1  UNL1        0.1650
     12  O          8.6320   -3.7680    0.0230 O.2     1  UNL1       -0.4540
     13  O          8.6060   -4.0390   -2.1590 O.2     1  UNL1       -0.4540
     14  C          8.9530   -4.7090   -0.9700 C.3     1  UNL1        0.4680
@<TRIPOS>BOND
     1     9     7    1
     2     9    11    2
     3     7     6    2
     4    13    11    1
     5    13    14    1
     6    11    10    1
     7    14    12    1
     8     6     5    1
     9     6     8    1
    10    10     8    2
    11    10    12    1
    12     5     1    1
    13     3     2    1
    14     1     2    1
    15     2     4    2
