@<TRIPOS>MOLECULE
/home/cewinharhar/GITHUB/reincatalyze/data/processed/docking_pred/2023-May-30-2130_sub9_nm5_bs15_s42_ex16_mel10_mts10000_k50_ec05_g099_lra3e-4_lrc3e-3/074f71e156faecc69724e62cc987f5104d3c940c_ligand_9.pdbqt
 14 15 0 0 0
SMALL
GASTEIGER

@<TRIPOS>ATOM
      1  C          5.5330   -0.2550    2.0000 C.3     1  UNL1        0.0800
      2  C          5.2580    0.9720    1.2010 C.2     1  UNL1        0.1300
      3  C          5.8040    1.1480   -0.1710 C.3     1  UNL1        0.0870
      4  O          4.5710    1.8730    1.6530 O.2     1  UNL1       -0.3000
      5  C          6.5200   -1.1620    1.2930 C.3     1  UNL1        0.0430
      6  C          7.6450   -1.5340    2.1700 C.2     1  UNL1       -0.0440
      7  C          7.6670   -1.1820    3.5240 C.2     1  UNL1        0.0080
      8  C          8.7040   -2.2470    1.6550 C.2     1  UNL1        0.0540
      9  C          8.7490   -1.5590    4.2980 C.2     1  UNL1        0.0510
     10  C          9.7960   -2.6260    2.4420 C.2     1  UNL1        0.1660
     11  C          9.8190   -2.2790    3.7750 C.2     1  UNL1        0.1650
     12  O         10.9530   -3.3250    2.1700 O.2     1  UNL1       -0.4540
     13  O         11.0010   -2.7780    4.2990 O.2     1  UNL1       -0.4540
     14  C         11.7070   -3.5260    3.3380 C.3     1  UNL1        0.4680
@<TRIPOS>BOND
     1     3     2    1
     2     2     4    2
     3     2     1    1
     4     5     1    1
     5     5     6    1
     6     8     6    2
     7     8    10    1
     8     6     7    1
     9    12    10    1
    10    12    14    1
    11    10    11    2
    12    14    13    1
    13     7     9    2
    14    11     9    1
    15    11    13    1
