MODEL 1
REMARK VINA RESULT:      -7.5      0.000      0.000
REMARK SMILES CC(=O)CCc1ccc2c(c1)OCO2
REMARK SMILES IDX 4 1 2 2 1 3 3 4 5 5 6 6 7 7 11 8 8 9 10 10 9 11 12 12 14 13
REMARK SMILES IDX 13 14
REMARK H PARENT
REMARK Flexibility Score: inf
ROOT
ATOM      1  C   UNL     1       5.533  -0.255   2.000  1.00  0.00     0.080 C 
ENDROOT
BRANCH   1   2
ATOM      2  C   UNL     1       5.258   0.972   1.201  1.00  0.00     0.130 C 
ATOM      3  C   UNL     1       5.804   1.148  -0.171  1.00  0.00     0.087 C 
ATOM      4  O   UNL     1       4.571   1.873   1.653  1.00  0.00    -0.300 OA
ENDBRANCH   1   2
BRANCH   1   5
ATOM      5  C   UNL     1       6.520  -1.162   1.293  1.00  0.00     0.043 C 
BRANCH   5   6
ATOM      6  C   UNL     1       7.645  -1.534   2.170  1.00  0.00    -0.044 A 
ATOM      7  C   UNL     1       7.667  -1.182   3.524  1.00  0.00     0.008 A 
ATOM      8  C   UNL     1       8.704  -2.247   1.655  1.00  0.00     0.054 A 
ATOM      9  C   UNL     1       8.749  -1.559   4.298  1.00  0.00     0.051 A 
ATOM     10  C   UNL     1       9.796  -2.626   2.442  1.00  0.00     0.166 A 
ATOM     11  C   UNL     1       9.819  -2.279   3.775  1.00  0.00     0.165 A 
ATOM     12  O   UNL     1      10.953  -3.325   2.170  1.00  0.00    -0.454 OA
ATOM     13  O   UNL     1      11.001  -2.778   4.299  1.00  0.00    -0.454 OA
ATOM     14  C   UNL     1      11.707  -3.526   3.338  1.00  0.00     0.468 C 
ENDBRANCH   5   6
ENDBRANCH   1   5
TORSDOF 3
ENDMDL
MODEL 2
REMARK VINA RESULT:      -7.4      3.887      4.891
REMARK SMILES CC(=O)CCc1ccc2c(c1)OCO2
REMARK SMILES IDX 4 1 2 2 1 3 3 4 5 5 6 6 7 7 11 8 8 9 10 10 9 11 12 12 14 13
REMARK SMILES IDX 13 14
REMARK H PARENT
REMARK Flexibility Score: inf
ROOT
ATOM      1  C   UNL     1       5.481   1.928   1.251  1.00  0.00     0.080 C 
ENDROOT
BRANCH   1   2
ATOM      2  C   UNL     1       4.982   0.726   1.976  1.00  0.00     0.130 C 
ATOM      3  C   UNL     1       5.782  -0.525   2.057  1.00  0.00     0.087 C 
ATOM      4  O   UNL     1       3.893   0.735   2.527  1.00  0.00    -0.300 OA
ENDBRANCH   1   2
BRANCH   1   5
ATOM      5  C   UNL     1       5.373   1.750  -0.250  1.00  0.00     0.043 C 
BRANCH   5   6
ATOM      6  C   UNL     1       6.547   1.050  -0.803  1.00  0.00    -0.044 A 
ATOM      7  C   UNL     1       7.851   1.482  -0.536  1.00  0.00     0.008 A 
ATOM      8  C   UNL     1       6.368  -0.057  -1.600  1.00  0.00     0.054 A 
ATOM      9  C   UNL     1       8.914   0.786  -1.082  1.00  0.00     0.051 A 
ATOM     10  C   UNL     1       7.445  -0.759  -2.149  1.00  0.00     0.166 A 
ATOM     11  C   UNL     1       8.729  -0.333  -1.888  1.00  0.00     0.165 A 
ATOM     12  O   UNL     1       7.528  -1.870  -2.960  1.00  0.00    -0.454 OA
ATOM     13  O   UNL     1       9.582  -1.203  -2.550  1.00  0.00    -0.454 OA
ATOM     14  C   UNL     1       8.865  -2.245  -3.168  1.00  0.00     0.468 C 
ENDBRANCH   5   6
ENDBRANCH   1   5
TORSDOF 3
ENDMDL
MODEL 3
REMARK VINA RESULT:      -7.1      1.075      1.125
REMARK SMILES CC(=O)CCc1ccc2c(c1)OCO2
REMARK SMILES IDX 4 1 2 2 1 3 3 4 5 5 6 6 7 7 11 8 8 9 10 10 9 11 12 12 14 13
REMARK SMILES IDX 13 14
REMARK H PARENT
REMARK Flexibility Score: inf
ROOT
ATOM      1  C   UNL     1       6.432   0.493   1.396  1.00  0.00     0.080 C 
ENDROOT
BRANCH   1   2
ATOM      2  C   UNL     1       5.993   0.904   0.033  1.00  0.00     0.130 C 
ATOM      3  C   UNL     1       5.176   2.127  -0.188  1.00  0.00     0.087 C 
ATOM      4  O   UNL     1       6.295   0.244  -0.948  1.00  0.00    -0.300 OA
ENDBRANCH   1   2
BRANCH   1   5
ATOM      5  C   UNL     1       6.460  -1.017   1.532  1.00  0.00     0.043 C 
BRANCH   5   6
ATOM      6  C   UNL     1       7.622  -1.473   2.316  1.00  0.00    -0.044 A 
ATOM      7  C   UNL     1       7.729  -1.214   3.687  1.00  0.00     0.008 A 
ATOM      8  C   UNL     1       8.630  -2.175   1.695  1.00  0.00     0.054 A 
ATOM      9  C   UNL     1       8.842  -1.668   4.371  1.00  0.00     0.051 A 
ATOM     10  C   UNL     1       9.753  -2.632   2.391  1.00  0.00     0.166 A 
ATOM     11  C   UNL     1       9.860  -2.376   3.740  1.00  0.00     0.165 A 
ATOM     12  O   UNL     1      10.873  -3.339   2.008  1.00  0.00    -0.454 OA
ATOM     13  O   UNL     1      11.055  -2.938   4.161  1.00  0.00    -0.454 OA
ATOM     14  C   UNL     1      11.685  -3.636   3.114  1.00  0.00     0.468 C 
ENDBRANCH   5   6
ENDBRANCH   1   5
TORSDOF 3
ENDMDL
MODEL 4
REMARK VINA RESULT:      -7.0      0.986      1.941
REMARK SMILES CC(=O)CCc1ccc2c(c1)OCO2
REMARK SMILES IDX 4 1 2 2 1 3 3 4 5 5 6 6 7 7 11 8 8 9 10 10 9 11 12 12 14 13
REMARK SMILES IDX 13 14
REMARK H PARENT
REMARK Flexibility Score: inf
ROOT
ATOM      1  C   UNL     1       5.333  -0.084   1.977  1.00  0.00     0.080 C 
ENDROOT
BRANCH   1   2
ATOM      2  C   UNL     1       5.234   1.092   1.067  1.00  0.00     0.130 C 
ATOM      3  C   UNL     1       5.915   1.116  -0.255  1.00  0.00     0.087 C 
ATOM      4  O   UNL     1       4.587   2.077   1.384  1.00  0.00    -0.300 OA
ENDBRANCH   1   2
BRANCH   1   5
ATOM      5  C   UNL     1       6.066  -1.233   1.313  1.00  0.00     0.043 C 
BRANCH   5   6
ATOM      6  C   UNL     1       7.321  -1.558   2.013  1.00  0.00    -0.044 A 
ATOM      7  C   UNL     1       8.343  -2.281   1.387  1.00  0.00     0.008 A 
ATOM      8  C   UNL     1       7.505  -1.142   3.312  1.00  0.00     0.054 A 
ATOM      9  C   UNL     1       9.500  -2.556   2.094  1.00  0.00     0.051 A 
ATOM     10  C   UNL     1       8.677  -1.422   4.021  1.00  0.00     0.166 A 
ATOM     11  C   UNL     1       9.682  -2.135   3.407  1.00  0.00     0.165 A 
ATOM     12  O   UNL     1       9.094  -1.125   5.302  1.00  0.00    -0.454 OA
ATOM     13  O   UNL     1      10.707  -2.261   4.332  1.00  0.00    -0.454 OA
ATOM     14  C   UNL     1      10.413  -1.558   5.516  1.00  0.00     0.468 C 
ENDBRANCH   5   6
ENDBRANCH   1   5
TORSDOF 3
ENDMDL
MODEL 5
REMARK VINA RESULT:      -7.0      3.122      4.269
REMARK SMILES CC(=O)CCc1ccc2c(c1)OCO2
REMARK SMILES IDX 4 1 2 2 1 3 3 4 5 5 6 6 7 7 11 8 8 9 10 10 9 11 12 12 14 13
REMARK SMILES IDX 13 14
REMARK H PARENT
REMARK Flexibility Score: inf
ROOT
ATOM      1  C   UNL     1       5.871   1.402  -0.276  1.00  0.00     0.080 C 
ENDROOT
BRANCH   1   2
ATOM      2  C   UNL     1       5.139   1.282   1.016  1.00  0.00     0.130 C 
ATOM      3  C   UNL     1       5.322   0.108   1.911  1.00  0.00     0.087 C 
ATOM      4  O   UNL     1       4.361   2.150   1.378  1.00  0.00    -0.300 OA
ENDBRANCH   1   2
BRANCH   1   5
ATOM      5  C   UNL     1       7.338   1.056  -0.111  1.00  0.00     0.043 C 
BRANCH   5   6
ATOM      6  C   UNL     1       7.677  -0.214  -0.777  1.00  0.00    -0.044 A 
ATOM      7  C   UNL     1       7.715  -0.324  -2.171  1.00  0.00     0.008 A 
ATOM      8  C   UNL     1       7.969  -1.325  -0.018  1.00  0.00     0.054 A 
ATOM      9  C   UNL     1       8.041  -1.542  -2.740  1.00  0.00     0.051 A 
ATOM     10  C   UNL     1       8.298  -2.554  -0.597  1.00  0.00     0.166 A 
ATOM     11  C   UNL     1       8.334  -2.663  -1.970  1.00  0.00     0.165 A 
ATOM     12  O   UNL     1       8.622  -3.785  -0.069  1.00  0.00    -0.454 OA
ATOM     13  O   UNL     1       8.684  -3.973  -2.258  1.00  0.00    -0.454 OA
ATOM     14  C   UNL     1       8.964  -4.695  -1.083  1.00  0.00     0.468 C 
ENDBRANCH   5   6
ENDBRANCH   1   5
TORSDOF 3
ENDMDL
