@<TRIPOS>MOLECULE
/home/cewinharhar/GITHUB/reincatalyze/data/processed/docking_pred/2023-May-30-2130_sub9_nm5_bs15_s42_ex16_mel10_mts10000_k50_ec05_g099_lra3e-4_lrc3e-3/074f71e156faecc69724e62cc987f5104d3c940c_ligand_9.pdbqt
 14 15 0 0 0
SMALL
GASTEIGER

@<TRIPOS>ATOM
      1  C          6.4320    0.4930    1.3960 C.3     1  UNL1        0.0800
      2  C          5.9930    0.9040    0.0330 C.2     1  UNL1        0.1300
      3  C          5.1760    2.1270   -0.1880 C.3     1  UNL1        0.0870
      4  O          6.2950    0.2440   -0.9480 O.2     1  UNL1       -0.3000
      5  C          6.4600   -1.0170    1.5320 C.3     1  UNL1        0.0430
      6  C          7.6220   -1.4730    2.3160 C.2     1  UNL1       -0.0440
      7  C          7.7290   -1.2140    3.6870 C.2     1  UNL1        0.0080
      8  C          8.6300   -2.1750    1.6950 C.2     1  UNL1        0.0540
      9  C          8.8420   -1.6680    4.3710 C.2     1  UNL1        0.0510
     10  C          9.7530   -2.6320    2.3910 C.2     1  UNL1        0.1660
     11  C          9.8600   -2.3760    3.7400 C.2     1  UNL1        0.1650
     12  O         10.8730   -3.3390    2.0080 O.2     1  UNL1       -0.4540
     13  O         11.0550   -2.9380    4.1610 O.2     1  UNL1       -0.4540
     14  C         11.6850   -3.6360    3.1140 C.3     1  UNL1        0.4680
@<TRIPOS>BOND
     1     4     2    2
     2     3     2    1
     3     2     1    1
     4     1     5    1
     5     5     6    1
     6     8     6    2
     7     8    10    1
     8    12    10    1
     9    12    14    1
    10     6     7    1
    11    10    11    2
    12    14    13    1
    13     7     9    2
    14    11    13    1
    15    11     9    1
