@<TRIPOS>MOLECULE
/home/cewinharhar/GITHUB/reincatalyze/data/processed/docking_pred/2023-May-30-2130_sub9_nm5_bs15_s42_ex16_mel10_mts10000_k50_ec05_g099_lra3e-4_lrc3e-3/074f71e156faecc69724e62cc987f5104d3c940c_ligand_9.pdbqt
 14 15 0 0 0
SMALL
GASTEIGER

@<TRIPOS>ATOM
      1  C          5.3330   -0.0840    1.9770 C.3     1  UNL1        0.0800
      2  C          5.2340    1.0920    1.0670 C.2     1  UNL1        0.1300
      3  C          5.9150    1.1160   -0.2550 C.3     1  UNL1        0.0870
      4  O          4.5870    2.0770    1.3840 O.2     1  UNL1       -0.3000
      5  C          6.0660   -1.2330    1.3130 C.3     1  UNL1        0.0430
      6  C          7.3210   -1.5580    2.0130 C.2     1  UNL1       -0.0440
      7  C          8.3430   -2.2810    1.3870 C.2     1  UNL1        0.0080
      8  C          7.5050   -1.1420    3.3120 C.2     1  UNL1        0.0540
      9  C          9.5000   -2.5560    2.0940 C.2     1  UNL1        0.0510
     10  C          8.6770   -1.4220    4.0210 C.2     1  UNL1        0.1660
     11  C          9.6820   -2.1350    3.4070 C.2     1  UNL1        0.1650
     12  O          9.0940   -1.1250    5.3020 O.2     1  UNL1       -0.4540
     13  O         10.7070   -2.2610    4.3320 O.2     1  UNL1       -0.4540
     14  C         10.4130   -1.5580    5.5160 C.3     1  UNL1        0.4680
@<TRIPOS>BOND
     1     3     2    1
     2     2     4    2
     3     2     1    1
     4     5     1    1
     5     5     6    1
     6     7     6    2
     7     7     9    1
     8     6     8    1
     9     9    11    2
    10     8    10    2
    11    11    10    1
    12    11    13    1
    13    10    12    1
    14    13    14    1
    15    12    14    1
