@<TRIPOS>MOLECULE
/home/cewinharhar/GITHUB/reincatalyze/data/processed/docking_pred/2023-May-30-2130_sub9_nm5_bs15_s42_ex16_mel10_mts10000_k50_ec05_g099_lra3e-4_lrc3e-3/08d2e2d4a7c660d60546aaed77652d308bf13ce5_ligand_9.pdbqt
 14 15 0 0 0
SMALL
GASTEIGER

@<TRIPOS>ATOM
      1  C          5.3730   -0.0910    2.0190 C.3     1  UNL1        0.0800
      2  C          4.5420    1.1200    1.7730 C.2     1  UNL1        0.1300
      3  C          4.8950    2.1080    0.7180 C.3     1  UNL1        0.0870
      4  O          3.5410    1.3390    2.4350 O.2     1  UNL1       -0.3000
      5  C          6.8200    0.1470    1.6380 C.3     1  UNL1        0.0430
      6  C          7.2600   -0.7640    0.5660 C.2     1  UNL1       -0.0440
      7  C          7.1460   -0.4150   -0.7850 C.2     1  UNL1        0.0080
      8  C          7.7990   -1.9880    0.8890 C.2     1  UNL1        0.0540
      9  C          7.5760   -1.3090   -1.7470 C.2     1  UNL1        0.0510
     10  C          8.2330   -2.8890   -0.0880 C.2     1  UNL1        0.1660
     11  C          8.1200   -2.5470   -1.4170 C.2     1  UNL1        0.1650
     12  O          8.7940   -4.1470   -0.0240 O.2     1  UNL1       -0.4540
     13  O          8.6210   -3.6120   -2.1490 O.2     1  UNL1       -0.4540
     14  C          9.1420   -4.6100   -1.3040 C.3     1  UNL1        0.4680
@<TRIPOS>BOND
     1    13    11    1
     2    13    14    1
     3     9    11    2
     4     9     7    1
     5    11    10    1
     6    14    12    1
     7     7     6    2
     8    10    12    1
     9    10     8    2
    10     6     8    1
    11     6     5    1
    12     3     2    1
    13     5     1    1
    14     2     1    1
    15     2     4    2
