@<TRIPOS>MOLECULE
/home/cewinharhar/GITHUB/reincatalyze/data/processed/docking_pred/2023-May-30-2130_sub9_nm5_bs15_s42_ex16_mel10_mts10000_k50_ec05_g099_lra3e-4_lrc3e-3/090474ec6ad34f6c7e6271970b3dfdf762d08d64_ligand_9.pdbqt
 14 15 0 0 0
SMALL
GASTEIGER

@<TRIPOS>ATOM
      1  C          5.4860    1.9050    1.2620 C.3     1  UNL1        0.0800
      2  C          4.9920    0.7020    1.9890 C.2     1  UNL1        0.1300
      3  C          5.8010   -0.5430    2.0800 C.3     1  UNL1        0.0870
      4  O          3.9010    0.7040    2.5350 O.2     1  UNL1       -0.3000
      5  C          5.3810    1.7230   -0.2390 C.3     1  UNL1        0.0430
      6  C          6.5580    1.0260   -0.7880 C.2     1  UNL1       -0.0440
      7  C          7.8610    1.4480   -0.4990 C.2     1  UNL1        0.0080
      8  C          6.3840   -0.0680   -1.6050 C.2     1  UNL1        0.0540
      9  C          8.9270    0.7550   -1.0420 C.2     1  UNL1        0.0510
     10  C          7.4650   -0.7650   -2.1520 C.2     1  UNL1        0.1660
     11  C          8.7470   -0.3500   -1.8680 C.2     1  UNL1        0.1650
     12  O          7.5520   -1.8650   -2.9800 O.2     1  UNL1       -0.4540
     13  O          9.6040   -1.2130   -2.5340 O.2     1  UNL1       -0.4540
     14  C          8.8910   -2.2420   -3.1770 C.3     1  UNL1        0.4680
@<TRIPOS>BOND
     1    14    12    1
     2    14    13    1
     3    12    10    1
     4    13    11    1
     5    10    11    2
     6    10     8    1
     7    11     9    1
     8     8     6    2
     9     9     7    2
    10     6     7    1
    11     6     5    1
    12     5     1    1
    13     1     2    1
    14     2     3    1
    15     2     4    2
