@<TRIPOS>MOLECULE
/home/cewinharhar/GITHUB/reincatalyze/data/processed/docking_pred/2023-May-30-2130_sub9_nm5_bs15_s42_ex16_mel10_mts10000_k50_ec05_g099_lra3e-4_lrc3e-3/090474ec6ad34f6c7e6271970b3dfdf762d08d64_ligand_9.pdbqt
 14 15 0 0 0
SMALL
GASTEIGER

@<TRIPOS>ATOM
      1  C          5.6900    0.1130    1.9610 C.3     1  UNL1        0.0800
      2  C          4.7370    1.2010    1.6080 C.2     1  UNL1        0.1300
      3  C          5.0050    2.1410    0.4870 C.3     1  UNL1        0.0870
      4  O          3.7000    1.3540    2.2330 O.2     1  UNL1       -0.3000
      5  C          7.0690    0.3830    1.3920 C.3     1  UNL1        0.0430
      6  C          7.4440   -0.6130    0.3730 C.2     1  UNL1       -0.0440
      7  C          7.3350   -0.3380   -0.9950 C.2     1  UNL1        0.0080
      8  C          7.9160   -1.8450    0.7640 C.2     1  UNL1        0.0540
      9  C          7.7030   -1.3120   -1.9070 C.2     1  UNL1        0.0510
     10  C          8.2870   -2.8260   -0.1610 C.2     1  UNL1        0.1660
     11  C          8.1790   -2.5570   -1.5070 C.2     1  UNL1        0.1650
     12  O          8.7770   -4.1080   -0.0260 O.2     1  UNL1       -0.4540
     13  O          8.6100   -3.6900   -2.1780 O.2     1  UNL1       -0.4540
     14  C          9.0830   -4.6640   -1.2790 C.3     1  UNL1        0.4680
@<TRIPOS>BOND
     1    13    11    1
     2    13    14    1
     3     9    11    2
     4     9     7    1
     5    11    10    1
     6    14    12    1
     7     7     6    2
     8    10    12    1
     9    10     8    2
    10     6     8    1
    11     6     5    1
    12     3     2    1
    13     5     1    1
    14     2     1    1
    15     2     4    2
