@<TRIPOS>MOLECULE
/home/cewinharhar/GITHUB/reincatalyze/data/processed/docking_pred/2023-May-30-2130_sub9_nm5_bs15_s42_ex16_mel10_mts10000_k50_ec05_g099_lra3e-4_lrc3e-3/090474ec6ad34f6c7e6271970b3dfdf762d08d64_ligand_9.pdbqt
 14 15 0 0 0
SMALL
GASTEIGER

@<TRIPOS>ATOM
      1  C          5.8920    1.5370   -0.1770 C.3     1  UNL1        0.0800
      2  C          5.1390    1.3260    1.0910 C.2     1  UNL1        0.1300
      3  C          5.3460    0.1140    1.9290 C.3     1  UNL1        0.0870
      4  O          4.3250    2.1470    1.4810 O.2     1  UNL1       -0.3000
      5  C          7.3530    1.1670   -0.0180 C.3     1  UNL1        0.0430
      6  C          7.6700   -0.1070   -0.6870 C.2     1  UNL1       -0.0440
      7  C          7.6620   -0.2250   -2.0820 C.2     1  UNL1        0.0080
      8  C          7.9870   -1.2140    0.0670 C.2     1  UNL1        0.0540
      9  C          7.9690   -1.4460   -2.6540 C.2     1  UNL1        0.0510
     10  C          8.2970   -2.4460   -0.5160 C.2     1  UNL1        0.1660
     11  C          8.2870   -2.5630   -1.8880 C.2     1  UNL1        0.1650
     12  O          8.6380   -3.6750    0.0080 O.2     1  UNL1       -0.4540
     13  O          8.6280   -3.8740   -2.1820 O.2     1  UNL1       -0.4540
     14  C          8.9470   -4.5900   -1.0120 C.3     1  UNL1        0.4680
@<TRIPOS>BOND
     1     9     7    1
     2     9    11    2
     3    13    11    1
     4    13    14    1
     5     7     6    2
     6    11    10    1
     7    14    12    1
     8     6     5    1
     9     6     8    1
    10    10    12    1
    11    10     8    2
    12     1     5    1
    13     1     2    1
    14     2     4    2
    15     2     3    1
