MODEL 1
REMARK VINA RESULT:      -7.1      0.000      0.000
REMARK SMILES CC(=O)CCc1ccc2c(c1)OCO2
REMARK SMILES IDX 4 1 2 2 1 3 3 4 5 5 6 6 7 7 11 8 8 9 10 10 9 11 12 12 14 13
REMARK SMILES IDX 13 14
REMARK H PARENT
REMARK Flexibility Score: inf
ROOT
ATOM      1  C   UNL     1       5.486   1.905   1.262  1.00  0.00     0.080 C 
ENDROOT
BRANCH   1   2
ATOM      2  C   UNL     1       4.992   0.702   1.989  1.00  0.00     0.130 C 
ATOM      3  C   UNL     1       5.801  -0.543   2.080  1.00  0.00     0.087 C 
ATOM      4  O   UNL     1       3.901   0.704   2.535  1.00  0.00    -0.300 OA
ENDBRANCH   1   2
BRANCH   1   5
ATOM      5  C   UNL     1       5.381   1.723  -0.239  1.00  0.00     0.043 C 
BRANCH   5   6
ATOM      6  C   UNL     1       6.558   1.026  -0.788  1.00  0.00    -0.044 A 
ATOM      7  C   UNL     1       7.861   1.448  -0.499  1.00  0.00     0.008 A 
ATOM      8  C   UNL     1       6.384  -0.068  -1.605  1.00  0.00     0.054 A 
ATOM      9  C   UNL     1       8.927   0.755  -1.042  1.00  0.00     0.051 A 
ATOM     10  C   UNL     1       7.465  -0.765  -2.152  1.00  0.00     0.166 A 
ATOM     11  C   UNL     1       8.747  -0.350  -1.868  1.00  0.00     0.165 A 
ATOM     12  O   UNL     1       7.552  -1.865  -2.980  1.00  0.00    -0.454 OA
ATOM     13  O   UNL     1       9.604  -1.213  -2.534  1.00  0.00    -0.454 OA
ATOM     14  C   UNL     1       8.891  -2.242  -3.177  1.00  0.00     0.468 C 
ENDBRANCH   5   6
ENDBRANCH   1   5
TORSDOF 3
ENDMDL
MODEL 2
REMARK VINA RESULT:      -7.1      2.723      3.971
REMARK SMILES CC(=O)CCc1ccc2c(c1)OCO2
REMARK SMILES IDX 4 1 2 2 1 3 3 4 5 5 6 6 7 7 11 8 8 9 10 10 9 11 12 12 14 13
REMARK SMILES IDX 13 14
REMARK H PARENT
REMARK Flexibility Score: inf
ROOT
ATOM      1  C   UNL     1       9.660   1.369   2.647  1.00  0.00     0.080 C 
ENDROOT
BRANCH   1   2
ATOM      2  C   UNL     1      11.096   0.976   2.681  1.00  0.00     0.130 C 
ATOM      3  C   UNL     1      12.085   1.703   3.522  1.00  0.00     0.087 C 
ATOM      4  O   UNL     1      11.506   0.040   2.013  1.00  0.00    -0.300 OA
ENDBRANCH   1   2
BRANCH   1   5
ATOM      5  C   UNL     1       9.307   2.054   1.342  1.00  0.00     0.043 C 
BRANCH   5   6
ATOM      6  C   UNL     1       8.547   1.165   0.446  1.00  0.00    -0.044 A 
ATOM      7  C   UNL     1       7.157   1.032   0.550  1.00  0.00     0.008 A 
ATOM      8  C   UNL     1       9.209   0.444  -0.522  1.00  0.00     0.054 A 
ATOM      9  C   UNL     1       6.497   0.183  -0.319  1.00  0.00     0.051 A 
ATOM     10  C   UNL     1       8.536  -0.413  -1.399  1.00  0.00     0.166 A 
ATOM     11  C   UNL     1       7.169  -0.545  -1.296  1.00  0.00     0.165 A 
ATOM     12  O   UNL     1       8.961  -1.225  -2.429  1.00  0.00    -0.454 OA
ATOM     13  O   UNL     1       6.779  -1.444  -2.276  1.00  0.00    -0.454 OA
ATOM     14  C   UNL     1       7.871  -1.831  -3.075  1.00  0.00     0.468 C 
ENDBRANCH   5   6
ENDBRANCH   1   5
TORSDOF 3
ENDMDL
MODEL 3
REMARK VINA RESULT:      -7.0      3.443      4.428
REMARK SMILES CC(=O)CCc1ccc2c(c1)OCO2
REMARK SMILES IDX 4 1 2 2 1 3 3 4 5 5 6 6 7 7 11 8 8 9 10 10 9 11 12 12 14 13
REMARK SMILES IDX 13 14
REMARK H PARENT
REMARK Flexibility Score: inf
ROOT
ATOM      1  C   UNL     1       5.936   0.034   1.545  1.00  0.00     0.080 C 
ENDROOT
BRANCH   1   2
ATOM      2  C   UNL     1       4.979   1.150   1.307  1.00  0.00     0.130 C 
ATOM      3  C   UNL     1       5.101   2.044   0.124  1.00  0.00     0.087 C 
ATOM      4  O   UNL     1       4.062   1.365   2.082  1.00  0.00    -0.300 OA
ENDBRANCH   1   2
BRANCH   1   5
ATOM      5  C   UNL     1       7.129   0.124   0.615  1.00  0.00     0.043 C 
BRANCH   5   6
ATOM      6  C   UNL     1       8.340   0.578   1.321  1.00  0.00    -0.044 A 
ATOM      7  C   UNL     1       8.332   1.721   2.130  1.00  0.00     0.008 A 
ATOM      8  C   UNL     1       9.512  -0.131   1.191  1.00  0.00     0.054 A 
ATOM      9  C   UNL     1       9.499   2.099   2.769  1.00  0.00     0.051 A 
ATOM     10  C   UNL     1      10.689   0.255   1.840  1.00  0.00     0.166 A 
ATOM     11  C   UNL     1      10.682   1.380   2.635  1.00  0.00     0.165 A 
ATOM     12  O   UNL     1      11.962  -0.273   1.870  1.00  0.00    -0.454 OA
ATOM     13  O   UNL     1      11.964   1.519   3.143  1.00  0.00    -0.454 OA
ATOM     14  C   UNL     1      12.784   0.443   2.756  1.00  0.00     0.468 C 
ENDBRANCH   5   6
ENDBRANCH   1   5
TORSDOF 3
ENDMDL
MODEL 4
REMARK VINA RESULT:      -6.9      1.923      2.358
REMARK SMILES CC(=O)CCc1ccc2c(c1)OCO2
REMARK SMILES IDX 4 1 2 2 1 3 3 4 5 5 6 6 7 7 11 8 8 9 10 10 9 11 12 12 14 13
REMARK SMILES IDX 13 14
REMARK H PARENT
REMARK Flexibility Score: inf
ROOT
ATOM      1  C   UNL     1       5.892   1.537  -0.177  1.00  0.00     0.080 C 
ENDROOT
BRANCH   1   2
ATOM      2  C   UNL     1       5.139   1.326   1.091  1.00  0.00     0.130 C 
ATOM      3  C   UNL     1       5.346   0.114   1.929  1.00  0.00     0.087 C 
ATOM      4  O   UNL     1       4.325   2.147   1.481  1.00  0.00    -0.300 OA
ENDBRANCH   1   2
BRANCH   1   5
ATOM      5  C   UNL     1       7.353   1.167  -0.018  1.00  0.00     0.043 C 
BRANCH   5   6
ATOM      6  C   UNL     1       7.670  -0.107  -0.687  1.00  0.00    -0.044 A 
ATOM      7  C   UNL     1       7.662  -0.225  -2.082  1.00  0.00     0.008 A 
ATOM      8  C   UNL     1       7.987  -1.214   0.067  1.00  0.00     0.054 A 
ATOM      9  C   UNL     1       7.969  -1.446  -2.654  1.00  0.00     0.051 A 
ATOM     10  C   UNL     1       8.297  -2.446  -0.516  1.00  0.00     0.166 A 
ATOM     11  C   UNL     1       8.287  -2.563  -1.888  1.00  0.00     0.165 A 
ATOM     12  O   UNL     1       8.638  -3.675   0.008  1.00  0.00    -0.454 OA
ATOM     13  O   UNL     1       8.628  -3.874  -2.182  1.00  0.00    -0.454 OA
ATOM     14  C   UNL     1       8.947  -4.590  -1.012  1.00  0.00     0.468 C 
ENDBRANCH   5   6
ENDBRANCH   1   5
TORSDOF 3
ENDMDL
MODEL 5
REMARK VINA RESULT:      -6.8      2.102      2.602
REMARK SMILES CC(=O)CCc1ccc2c(c1)OCO2
REMARK SMILES IDX 4 1 2 2 1 3 3 4 5 5 6 6 7 7 11 8 8 9 10 10 9 11 12 12 14 13
REMARK SMILES IDX 13 14
REMARK H PARENT
REMARK Flexibility Score: inf
ROOT
ATOM      1  C   UNL     1       5.690   0.113   1.961  1.00  0.00     0.080 C 
ENDROOT
BRANCH   1   2
ATOM      2  C   UNL     1       4.737   1.201   1.608  1.00  0.00     0.130 C 
ATOM      3  C   UNL     1       5.005   2.141   0.487  1.00  0.00     0.087 C 
ATOM      4  O   UNL     1       3.700   1.354   2.233  1.00  0.00    -0.300 OA
ENDBRANCH   1   2
BRANCH   1   5
ATOM      5  C   UNL     1       7.069   0.383   1.392  1.00  0.00     0.043 C 
BRANCH   5   6
ATOM      6  C   UNL     1       7.444  -0.613   0.373  1.00  0.00    -0.044 A 
ATOM      7  C   UNL     1       7.335  -0.338  -0.995  1.00  0.00     0.008 A 
ATOM      8  C   UNL     1       7.916  -1.845   0.764  1.00  0.00     0.054 A 
ATOM      9  C   UNL     1       7.703  -1.312  -1.907  1.00  0.00     0.051 A 
ATOM     10  C   UNL     1       8.287  -2.826  -0.161  1.00  0.00     0.166 A 
ATOM     11  C   UNL     1       8.179  -2.557  -1.507  1.00  0.00     0.165 A 
ATOM     12  O   UNL     1       8.777  -4.108  -0.026  1.00  0.00    -0.454 OA
ATOM     13  O   UNL     1       8.610  -3.690  -2.178  1.00  0.00    -0.454 OA
ATOM     14  C   UNL     1       9.083  -4.664  -1.279  1.00  0.00     0.468 C 
ENDBRANCH   5   6
ENDBRANCH   1   5
TORSDOF 3
ENDMDL
