@<TRIPOS>MOLECULE
/home/cewinharhar/GITHUB/reincatalyze/data/processed/docking_pred/2023-May-30-2130_sub9_nm5_bs15_s42_ex16_mel10_mts10000_k50_ec05_g099_lra3e-4_lrc3e-3/090474ec6ad34f6c7e6271970b3dfdf762d08d64_ligand_9.pdbqt
 14 15 0 0 0
SMALL
GASTEIGER

@<TRIPOS>ATOM
      1  C          5.9360    0.0340    1.5450 C.3     1  UNL1        0.0800
      2  C          4.9790    1.1500    1.3070 C.2     1  UNL1        0.1300
      3  C          5.1010    2.0440    0.1240 C.3     1  UNL1        0.0870
      4  O          4.0620    1.3650    2.0820 O.2     1  UNL1       -0.3000
      5  C          7.1290    0.1240    0.6150 C.3     1  UNL1        0.0430
      6  C          8.3400    0.5780    1.3210 C.2     1  UNL1       -0.0440
      7  C          8.3320    1.7210    2.1300 C.2     1  UNL1        0.0080
      8  C          9.5120   -0.1310    1.1910 C.2     1  UNL1        0.0540
      9  C          9.4990    2.0990    2.7690 C.2     1  UNL1        0.0510
     10  C         10.6890    0.2550    1.8400 C.2     1  UNL1        0.1660
     11  C         10.6820    1.3800    2.6350 C.2     1  UNL1        0.1650
     12  O         11.9620   -0.2730    1.8700 O.2     1  UNL1       -0.4540
     13  O         11.9640    1.5190    3.1430 O.2     1  UNL1       -0.4540
     14  C         12.7840    0.4430    2.7560 C.3     1  UNL1        0.4680
@<TRIPOS>BOND
     1     3     2    1
     2     5     6    1
     3     5     1    1
     4     8     6    2
     5     8    10    1
     6     2     1    1
     7     2     4    2
     8     6     7    1
     9    10    12    1
    10    10    11    2
    11    12    14    1
    12     7     9    2
    13    11     9    1
    14    11    13    1
    15    14    13    1
