@<TRIPOS>MOLECULE
/home/cewinharhar/GITHUB/reincatalyze/data/processed/docking_pred/2023-May-30-2130_sub9_nm5_bs15_s42_ex16_mel10_mts10000_k50_ec05_g099_lra3e-4_lrc3e-3/09c0e00cbaa22f287e1ef7d21129eabb08ea3244_ligand_9.pdbqt
 14 15 0 0 0
SMALL
GASTEIGER

@<TRIPOS>ATOM
      1  C          5.9910    1.0440    0.7980 C.3     1  UNL1        0.0800
      2  C          5.4300    0.2840    1.9490 C.2     1  UNL1        0.1300
      3  C          6.1400   -0.8850    2.5340 C.3     1  UNL1        0.0870
      4  O          4.3620    0.6010    2.4490 O.2     1  UNL1       -0.3000
      5  C          6.4010    0.1150   -0.3280 C.3     1  UNL1        0.0430
      6  C          7.8670    0.0030   -0.4370 C.2     1  UNL1       -0.0440
      7  C          8.6250    0.9550   -1.1280 C.2     1  UNL1        0.0080
      8  C          8.5150   -1.0580    0.1520 C.2     1  UNL1        0.0540
      9  C          9.9980    0.7980   -1.1960 C.2     1  UNL1        0.0510
     10  C          9.9030   -1.2120    0.0810 C.2     1  UNL1        0.1660
     11  C         10.6500   -0.2770   -0.6000 C.2     1  UNL1        0.1650
     12  O         10.7690   -2.1650    0.5740 O.2     1  UNL1       -0.4540
     13  O         11.9740   -0.6780   -0.5080 O.2     1  UNL1       -0.4540
     14  C         12.1040   -1.8200    0.3040 C.3     1  UNL1        0.4680
@<TRIPOS>BOND
     1     9     7    1
     2     9    11    2
     3     7     6    2
     4    11    13    1
     5    11    10    1
     6    13    14    1
     7     6     5    1
     8     6     8    1
     9     5     1    1
    10    10     8    2
    11    10    12    1
    12    14    12    1
    13     1     2    1
    14     2     4    2
    15     2     3    1
