@<TRIPOS>MOLECULE
/home/cewinharhar/GITHUB/reincatalyze/data/processed/docking_pred/2023-May-30-2130_sub9_nm5_bs15_s42_ex16_mel10_mts10000_k50_ec05_g099_lra3e-4_lrc3e-3/09c0e00cbaa22f287e1ef7d21129eabb08ea3244_ligand_9.pdbqt
 14 15 0 0 0
SMALL
GASTEIGER

@<TRIPOS>ATOM
      1  C          5.8540    0.6120    0.2340 C.3     1  UNL1        0.0800
      2  C          5.5790    0.1970    1.6380 C.2     1  UNL1        0.1300
      3  C          6.3650   -0.8770    2.3030 C.3     1  UNL1        0.0870
      4  O          4.6940    0.7300    2.2870 O.2     1  UNL1       -0.3000
      5  C          7.3240    0.9210    0.0300 C.3     1  UNL1        0.0430
      6  C          7.9610   -0.0410   -0.8870 C.2     1  UNL1       -0.0440
      7  C          7.5510   -0.1660   -2.2200 C.2     1  UNL1        0.0080
      8  C          8.9880   -0.8390   -0.4340 C.2     1  UNL1        0.0540
      9  C          8.1870   -1.0860   -3.0340 C.2     1  UNL1        0.0510
     10  C          9.6280   -1.7660   -1.2610 C.2     1  UNL1        0.1660
     11  C          9.2240   -1.8910   -2.5720 C.2     1  UNL1        0.1650
     12  O         10.6560   -2.6610   -1.0510 O.2     1  UNL1       -0.4540
     13  O         10.0210   -2.8690   -3.1460 O.2     1  UNL1       -0.4540
     14  C         11.0020   -3.3190   -2.2420 C.3     1  UNL1        0.4680
@<TRIPOS>BOND
     1    13    11    1
     2    13    14    1
     3     9    11    2
     4     9     7    1
     5    11    10    1
     6    14    12    1
     7     7     6    2
     8    10    12    1
     9    10     8    2
    10     6     8    1
    11     6     5    1
    12     5     1    1
    13     1     2    1
    14     2     4    2
    15     2     3    1
