@<TRIPOS>MOLECULE
/home/cewinharhar/GITHUB/reincatalyze/data/processed/docking_pred/2023-May-30-2130_sub9_nm5_bs15_s42_ex16_mel10_mts10000_k50_ec05_g099_lra3e-4_lrc3e-3/09c0e00cbaa22f287e1ef7d21129eabb08ea3244_ligand_9.pdbqt
 14 15 0 0 0
SMALL
GASTEIGER

@<TRIPOS>ATOM
      1  C          5.9680    1.4770    0.9300 C.3     1  UNL1        0.0800
      2  C          5.4460    0.4840    1.9100 C.2     1  UNL1        0.1300
      3  C          6.2380   -0.7100    2.3090 C.3     1  UNL1        0.0870
      4  O          4.3440    0.6230    2.4170 O.2     1  UNL1       -0.3000
      5  C          5.8520    0.9610   -0.4910 C.3     1  UNL1        0.0430
      6  C          7.0910    0.2980   -0.9340 C.2     1  UNL1       -0.0440
      7  C          8.3370    0.9270   -0.8290 C.2     1  UNL1        0.0080
      8  C          7.0340   -0.9720   -1.4620 C.2     1  UNL1        0.0540
      9  C          9.4670    0.2550   -1.2610 C.2     1  UNL1        0.0510
     10  C          8.1790   -1.6470   -1.8960 C.2     1  UNL1        0.1660
     11  C          9.4050   -1.0280   -1.7950 C.2     1  UNL1        0.1650
     12  O          8.3820   -2.8940   -2.4490 O.2     1  UNL1       -0.4540
     13  O         10.3450   -1.9170   -2.2920 O.2     1  UNL1       -0.4540
     14  C          9.7510   -3.1470   -2.6340 C.3     1  UNL1        0.4680
@<TRIPOS>BOND
     1    14    12    1
     2    14    13    1
     3    12    10    1
     4    13    11    1
     5    10    11    2
     6    10     8    1
     7    11     9    1
     8     8     6    2
     9     9     7    2
    10     6     7    1
    11     6     5    1
    12     5     1    1
    13     1     2    1
    14     2     3    1
    15     2     4    2
