MODEL 1
REMARK VINA RESULT:      -8.2      0.000      0.000
REMARK SMILES CC(=O)CCc1ccc2c(c1)OCO2
REMARK SMILES IDX 4 1 2 2 1 3 3 4 5 5 6 6 7 7 11 8 8 9 10 10 9 11 12 12 14 13
REMARK SMILES IDX 13 14
REMARK H PARENT
REMARK Flexibility Score: inf
ROOT
ATOM      1  C   UNL     1       5.968   1.477   0.930  1.00  0.00     0.080 C 
ENDROOT
BRANCH   1   2
ATOM      2  C   UNL     1       5.446   0.484   1.910  1.00  0.00     0.130 C 
ATOM      3  C   UNL     1       6.238  -0.710   2.309  1.00  0.00     0.087 C 
ATOM      4  O   UNL     1       4.344   0.623   2.417  1.00  0.00    -0.300 OA
ENDBRANCH   1   2
BRANCH   1   5
ATOM      5  C   UNL     1       5.852   0.961  -0.491  1.00  0.00     0.043 C 
BRANCH   5   6
ATOM      6  C   UNL     1       7.091   0.298  -0.934  1.00  0.00    -0.044 A 
ATOM      7  C   UNL     1       8.337   0.927  -0.829  1.00  0.00     0.008 A 
ATOM      8  C   UNL     1       7.034  -0.972  -1.462  1.00  0.00     0.054 A 
ATOM      9  C   UNL     1       9.467   0.255  -1.261  1.00  0.00     0.051 A 
ATOM     10  C   UNL     1       8.179  -1.647  -1.896  1.00  0.00     0.166 A 
ATOM     11  C   UNL     1       9.405  -1.028  -1.795  1.00  0.00     0.165 A 
ATOM     12  O   UNL     1       8.382  -2.894  -2.449  1.00  0.00    -0.454 OA
ATOM     13  O   UNL     1      10.345  -1.917  -2.292  1.00  0.00    -0.454 OA
ATOM     14  C   UNL     1       9.751  -3.147  -2.634  1.00  0.00     0.468 C 
ENDBRANCH   5   6
ENDBRANCH   1   5
TORSDOF 3
ENDMDL
MODEL 2
REMARK VINA RESULT:      -7.7      1.101      1.574
REMARK SMILES CC(=O)CCc1ccc2c(c1)OCO2
REMARK SMILES IDX 4 1 2 2 1 3 3 4 5 5 6 6 7 7 11 8 8 9 10 10 9 11 12 12 14 13
REMARK SMILES IDX 13 14
REMARK H PARENT
REMARK Flexibility Score: inf
ROOT
ATOM      1  C   UNL     1       5.854   0.612   0.234  1.00  0.00     0.080 C 
ENDROOT
BRANCH   1   2
ATOM      2  C   UNL     1       5.579   0.197   1.638  1.00  0.00     0.130 C 
ATOM      3  C   UNL     1       6.365  -0.877   2.303  1.00  0.00     0.087 C 
ATOM      4  O   UNL     1       4.694   0.730   2.287  1.00  0.00    -0.300 OA
ENDBRANCH   1   2
BRANCH   1   5
ATOM      5  C   UNL     1       7.324   0.921   0.030  1.00  0.00     0.043 C 
BRANCH   5   6
ATOM      6  C   UNL     1       7.961  -0.041  -0.887  1.00  0.00    -0.044 A 
ATOM      7  C   UNL     1       7.551  -0.166  -2.220  1.00  0.00     0.008 A 
ATOM      8  C   UNL     1       8.988  -0.839  -0.434  1.00  0.00     0.054 A 
ATOM      9  C   UNL     1       8.187  -1.086  -3.034  1.00  0.00     0.051 A 
ATOM     10  C   UNL     1       9.628  -1.766  -1.261  1.00  0.00     0.166 A 
ATOM     11  C   UNL     1       9.224  -1.891  -2.572  1.00  0.00     0.165 A 
ATOM     12  O   UNL     1      10.656  -2.661  -1.051  1.00  0.00    -0.454 OA
ATOM     13  O   UNL     1      10.021  -2.869  -3.146  1.00  0.00    -0.454 OA
ATOM     14  C   UNL     1      11.002  -3.319  -2.242  1.00  0.00     0.468 C 
ENDBRANCH   5   6
ENDBRANCH   1   5
TORSDOF 3
ENDMDL
MODEL 3
REMARK VINA RESULT:      -7.3      1.079      1.105
REMARK SMILES CC(=O)CCc1ccc2c(c1)OCO2
REMARK SMILES IDX 4 1 2 2 1 3 3 4 5 5 6 6 7 7 11 8 8 9 10 10 9 11 12 12 14 13
REMARK SMILES IDX 13 14
REMARK H PARENT
REMARK Flexibility Score: inf
ROOT
ATOM      1  C   UNL     1       6.472   1.081   0.848  1.00  0.00     0.080 C 
ENDROOT
BRANCH   1   2
ATOM      2  C   UNL     1       5.722   0.351   1.909  1.00  0.00     0.130 C 
ATOM      3  C   UNL     1       6.273  -0.869   2.556  1.00  0.00     0.087 C 
ATOM      4  O   UNL     1       4.625   0.738   2.280  1.00  0.00    -0.300 OA
ENDBRANCH   1   2
BRANCH   1   5
ATOM      5  C   UNL     1       5.989   0.690  -0.534  1.00  0.00     0.043 C 
BRANCH   5   6
ATOM      6  C   UNL     1       6.976  -0.146  -1.241  1.00  0.00    -0.044 A 
ATOM      7  C   UNL     1       7.583   0.282  -2.427  1.00  0.00     0.008 A 
ATOM      8  C   UNL     1       7.318  -1.378  -0.730  1.00  0.00     0.054 A 
ATOM      9  C   UNL     1       8.503  -0.545  -3.046  1.00  0.00     0.051 A 
ATOM     10  C   UNL     1       8.249  -2.210  -1.360  1.00  0.00     0.166 A 
ATOM     11  C   UNL     1       8.846  -1.790  -2.528  1.00  0.00     0.165 A 
ATOM     12  O   UNL     1       8.749  -3.458  -1.057  1.00  0.00    -0.454 OA
ATOM     13  O   UNL     1       9.710  -2.800  -2.921  1.00  0.00    -0.454 OA
ATOM     14  C   UNL     1       9.747  -3.836  -1.970  1.00  0.00     0.468 C 
ENDBRANCH   5   6
ENDBRANCH   1   5
TORSDOF 3
ENDMDL
MODEL 4
REMARK VINA RESULT:      -7.3      1.007      1.771
REMARK SMILES CC(=O)CCc1ccc2c(c1)OCO2
REMARK SMILES IDX 4 1 2 2 1 3 3 4 5 5 6 6 7 7 11 8 8 9 10 10 9 11 12 12 14 13
REMARK SMILES IDX 13 14
REMARK H PARENT
REMARK Flexibility Score: inf
ROOT
ATOM      1  C   UNL     1       6.168   1.395   0.978  1.00  0.00     0.080 C 
ENDROOT
BRANCH   1   2
ATOM      2  C   UNL     1       5.468   0.420   1.861  1.00  0.00     0.130 C 
ATOM      3  C   UNL     1       6.089  -0.878   2.236  1.00  0.00     0.087 C 
ATOM      4  O   UNL     1       4.357   0.661   2.303  1.00  0.00    -0.300 OA
ENDBRANCH   1   2
BRANCH   1   5
ATOM      5  C   UNL     1       6.022   1.018  -0.483  1.00  0.00     0.043 C 
BRANCH   5   6
ATOM      6  C   UNL     1       7.093   0.104  -0.920  1.00  0.00    -0.044 A 
ATOM      7  C   UNL     1       6.896  -0.810  -1.961  1.00  0.00     0.008 A 
ATOM      8  C   UNL     1       8.320   0.145  -0.299  1.00  0.00     0.054 A 
ATOM      9  C   UNL     1       7.938  -1.642  -2.329  1.00  0.00     0.051 A 
ATOM     10  C   UNL     1       9.371  -0.698  -0.675  1.00  0.00     0.166 A 
ATOM     11  C   UNL     1       9.177  -1.599  -1.699  1.00  0.00     0.165 A 
ATOM     12  O   UNL     1      10.663  -0.849  -0.220  1.00  0.00    -0.454 OA
ATOM     13  O   UNL     1      10.368  -2.292  -1.853  1.00  0.00    -0.454 OA
ATOM     14  C   UNL     1      11.365  -1.786  -0.997  1.00  0.00     0.468 C 
ENDBRANCH   5   6
ENDBRANCH   1   5
TORSDOF 3
ENDMDL
MODEL 5
REMARK VINA RESULT:      -7.2      1.848      2.021
REMARK SMILES CC(=O)CCc1ccc2c(c1)OCO2
REMARK SMILES IDX 4 1 2 2 1 3 3 4 5 5 6 6 7 7 11 8 8 9 10 10 9 11 12 12 14 13
REMARK SMILES IDX 13 14
REMARK H PARENT
REMARK Flexibility Score: inf
ROOT
ATOM      1  C   UNL     1       5.991   1.044   0.798  1.00  0.00     0.080 C 
ENDROOT
BRANCH   1   2
ATOM      2  C   UNL     1       5.430   0.284   1.949  1.00  0.00     0.130 C 
ATOM      3  C   UNL     1       6.140  -0.885   2.534  1.00  0.00     0.087 C 
ATOM      4  O   UNL     1       4.362   0.601   2.449  1.00  0.00    -0.300 OA
ENDBRANCH   1   2
BRANCH   1   5
ATOM      5  C   UNL     1       6.401   0.115  -0.328  1.00  0.00     0.043 C 
BRANCH   5   6
ATOM      6  C   UNL     1       7.867   0.003  -0.437  1.00  0.00    -0.044 A 
ATOM      7  C   UNL     1       8.625   0.955  -1.128  1.00  0.00     0.008 A 
ATOM      8  C   UNL     1       8.515  -1.058   0.152  1.00  0.00     0.054 A 
ATOM      9  C   UNL     1       9.998   0.798  -1.196  1.00  0.00     0.051 A 
ATOM     10  C   UNL     1       9.903  -1.212   0.081  1.00  0.00     0.166 A 
ATOM     11  C   UNL     1      10.650  -0.277  -0.600  1.00  0.00     0.165 A 
ATOM     12  O   UNL     1      10.769  -2.165   0.574  1.00  0.00    -0.454 OA
ATOM     13  O   UNL     1      11.974  -0.678  -0.508  1.00  0.00    -0.454 OA
ATOM     14  C   UNL     1      12.104  -1.820   0.304  1.00  0.00     0.468 C 
ENDBRANCH   5   6
ENDBRANCH   1   5
TORSDOF 3
ENDMDL
