@<TRIPOS>MOLECULE
/home/cewinharhar/GITHUB/reincatalyze/data/processed/docking_pred/2023-May-30-2130_sub9_nm5_bs15_s42_ex16_mel10_mts10000_k50_ec05_g099_lra3e-4_lrc3e-3/09c0e00cbaa22f287e1ef7d21129eabb08ea3244_ligand_9.pdbqt
 14 15 0 0 0
SMALL
GASTEIGER

@<TRIPOS>ATOM
      1  C          6.4720    1.0810    0.8480 C.3     1  UNL1        0.0800
      2  C          5.7220    0.3510    1.9090 C.2     1  UNL1        0.1300
      3  C          6.2730   -0.8690    2.5560 C.3     1  UNL1        0.0870
      4  O          4.6250    0.7380    2.2800 O.2     1  UNL1       -0.3000
      5  C          5.9890    0.6900   -0.5340 C.3     1  UNL1        0.0430
      6  C          6.9760   -0.1460   -1.2410 C.2     1  UNL1       -0.0440
      7  C          7.5830    0.2820   -2.4270 C.2     1  UNL1        0.0080
      8  C          7.3180   -1.3780   -0.7300 C.2     1  UNL1        0.0540
      9  C          8.5030   -0.5450   -3.0460 C.2     1  UNL1        0.0510
     10  C          8.2490   -2.2100   -1.3600 C.2     1  UNL1        0.1660
     11  C          8.8460   -1.7900   -2.5280 C.2     1  UNL1        0.1650
     12  O          8.7490   -3.4580   -1.0570 O.2     1  UNL1       -0.4540
     13  O          9.7100   -2.8000   -2.9210 O.2     1  UNL1       -0.4540
     14  C          9.7470   -3.8360   -1.9700 C.3     1  UNL1        0.4680
@<TRIPOS>BOND
     1     9    11    2
     2     9     7    1
     3    13    11    1
     4    13    14    1
     5    11    10    1
     6     7     6    2
     7    14    12    1
     8    10    12    1
     9    10     8    2
    10     6     8    1
    11     6     5    1
    12     5     1    1
    13     1     2    1
    14     2     4    2
    15     2     3    1
