@<TRIPOS>MOLECULE
/home/cewinharhar/GITHUB/reincatalyze/data/processed/docking_pred/2023-May-30-2130_sub9_nm5_bs15_s42_ex16_mel10_mts10000_k50_ec05_g099_lra3e-4_lrc3e-3/09c0e00cbaa22f287e1ef7d21129eabb08ea3244_ligand_9.pdbqt
 14 15 0 0 0
SMALL
GASTEIGER

@<TRIPOS>ATOM
      1  C          6.1680    1.3950    0.9780 C.3     1  UNL1        0.0800
      2  C          5.4680    0.4200    1.8610 C.2     1  UNL1        0.1300
      3  C          6.0890   -0.8780    2.2360 C.3     1  UNL1        0.0870
      4  O          4.3570    0.6610    2.3030 O.2     1  UNL1       -0.3000
      5  C          6.0220    1.0180   -0.4830 C.3     1  UNL1        0.0430
      6  C          7.0930    0.1040   -0.9200 C.2     1  UNL1       -0.0440
      7  C          6.8960   -0.8100   -1.9610 C.2     1  UNL1        0.0080
      8  C          8.3200    0.1450   -0.2990 C.2     1  UNL1        0.0540
      9  C          7.9380   -1.6420   -2.3290 C.2     1  UNL1        0.0510
     10  C          9.3710   -0.6980   -0.6750 C.2     1  UNL1        0.1660
     11  C          9.1770   -1.5990   -1.6990 C.2     1  UNL1        0.1650
     12  O         10.6630   -0.8490   -0.2200 O.2     1  UNL1       -0.4540
     13  O         10.3680   -2.2920   -1.8530 O.2     1  UNL1       -0.4540
     14  C         11.3650   -1.7860   -0.9970 C.3     1  UNL1        0.4680
@<TRIPOS>BOND
     1     9     7    1
     2     9    11    2
     3     7     6    2
     4    13    11    1
     5    13    14    1
     6    11    10    1
     7    14    12    1
     8     6     5    1
     9     6     8    1
    10    10     8    2
    11    10    12    1
    12     5     1    1
    13     1     2    1
    14     2     3    1
    15     2     4    2
