MODEL 1
REMARK VINA RESULT:      -7.7      0.000      0.000
REMARK SMILES CC(=O)CCc1ccc2c(c1)OCO2
REMARK SMILES IDX 4 1 2 2 1 3 3 4 5 5 6 6 7 7 11 8 8 9 10 10 9 11 12 12 14 13
REMARK SMILES IDX 13 14
REMARK H PARENT
REMARK Flexibility Score: inf
ROOT
ATOM      1  C   UNL     1       5.507   1.891   1.263  1.00  0.00     0.080 C 
ENDROOT
BRANCH   1   2
ATOM      2  C   UNL     1       5.027   0.686   1.996  1.00  0.00     0.130 C 
ATOM      3  C   UNL     1       5.852  -0.548   2.095  1.00  0.00     0.087 C 
ATOM      4  O   UNL     1       3.934   0.677   2.539  1.00  0.00    -0.300 OA
ENDBRANCH   1   2
BRANCH   1   5
ATOM      5  C   UNL     1       5.386   1.708  -0.237  1.00  0.00     0.043 C 
BRANCH   5   6
ATOM      6  C   UNL     1       6.560   1.016  -0.799  1.00  0.00    -0.044 A 
ATOM      7  C   UNL     1       7.862   1.467  -0.557  1.00  0.00     0.008 A 
ATOM      8  C   UNL     1       6.382  -0.103  -1.581  1.00  0.00     0.054 A 
ATOM      9  C   UNL     1       8.925   0.777  -1.111  1.00  0.00     0.051 A 
ATOM     10  C   UNL     1       7.460  -0.797  -2.138  1.00  0.00     0.166 A 
ATOM     11  C   UNL     1       8.742  -0.353  -1.901  1.00  0.00     0.165 A 
ATOM     12  O   UNL     1       7.544  -1.918  -2.937  1.00  0.00    -0.454 OA
ATOM     13  O   UNL     1       9.595  -1.220  -2.566  1.00  0.00    -0.454 OA
ATOM     14  C   UNL     1       8.883  -2.278  -3.161  1.00  0.00     0.468 C 
ENDBRANCH   5   6
ENDBRANCH   1   5
TORSDOF 3
ENDMDL
MODEL 2
REMARK VINA RESULT:      -7.5      1.904      2.358
REMARK SMILES CC(=O)CCc1ccc2c(c1)OCO2
REMARK SMILES IDX 4 1 2 2 1 3 3 4 5 5 6 6 7 7 11 8 8 9 10 10 9 11 12 12 14 13
REMARK SMILES IDX 13 14
REMARK H PARENT
REMARK Flexibility Score: inf
ROOT
ATOM      1  C   UNL     1       5.721   1.322  -0.279  1.00  0.00     0.080 C 
ENDROOT
BRANCH   1   2
ATOM      2  C   UNL     1       5.118   1.261   1.082  1.00  0.00     0.130 C 
ATOM      3  C   UNL     1       5.381   0.123   2.003  1.00  0.00     0.087 C 
ATOM      4  O   UNL     1       4.384   2.150   1.482  1.00  0.00    -0.300 OA
ENDBRANCH   1   2
BRANCH   1   5
ATOM      5  C   UNL     1       7.220   1.101  -0.227  1.00  0.00     0.043 C 
BRANCH   5   6
ATOM      6  C   UNL     1       7.606  -0.178  -0.849  1.00  0.00    -0.044 A 
ATOM      7  C   UNL     1       7.708  -0.316  -2.238  1.00  0.00     0.008 A 
ATOM      8  C   UNL     1       7.878  -1.268  -0.054  1.00  0.00     0.054 A 
ATOM      9  C   UNL     1       8.075  -1.540  -2.765  1.00  0.00     0.051 A 
ATOM     10  C   UNL     1       8.250  -2.504  -0.592  1.00  0.00     0.166 A 
ATOM     11  C   UNL     1       8.349  -2.641  -1.959  1.00  0.00     0.165 A 
ATOM     12  O   UNL     1       8.566  -3.719  -0.023  1.00  0.00    -0.454 OA
ATOM     13  O   UNL     1       8.729  -3.951  -2.203  1.00  0.00    -0.454 OA
ATOM     14  C   UNL     1       8.966  -4.645  -1.001  1.00  0.00     0.468 C 
ENDBRANCH   5   6
ENDBRANCH   1   5
TORSDOF 3
ENDMDL
MODEL 3
REMARK VINA RESULT:      -7.2      2.088      2.620
REMARK SMILES CC(=O)CCc1ccc2c(c1)OCO2
REMARK SMILES IDX 4 1 2 2 1 3 3 4 5 5 6 6 7 7 11 8 8 9 10 10 9 11 12 12 14 13
REMARK SMILES IDX 13 14
REMARK H PARENT
REMARK Flexibility Score: inf
ROOT
ATOM      1  C   UNL     1       5.565  -0.015   1.905  1.00  0.00     0.080 C 
ENDROOT
BRANCH   1   2
ATOM      2  C   UNL     1       4.677   1.147   1.622  1.00  0.00     0.130 C 
ATOM      3  C   UNL     1       4.947   2.080   0.496  1.00  0.00     0.087 C 
ATOM      4  O   UNL     1       3.695   1.368   2.313  1.00  0.00    -0.300 OA
ENDBRANCH   1   2
BRANCH   1   5
ATOM      5  C   UNL     1       6.979   0.243   1.424  1.00  0.00     0.043 C 
BRANCH   5   6
ATOM      6  C   UNL     1       7.391  -0.723   0.390  1.00  0.00    -0.044 A 
ATOM      7  C   UNL     1       7.292  -0.424  -0.973  1.00  0.00     0.008 A 
ATOM      8  C   UNL     1       7.887  -1.952   0.764  1.00  0.00     0.054 A 
ATOM      9  C   UNL     1       7.694  -1.370  -1.899  1.00  0.00     0.051 A 
ATOM     10  C   UNL     1       8.293  -2.904  -0.176  1.00  0.00     0.166 A 
ATOM     11  C   UNL     1       8.195  -2.611  -1.518  1.00  0.00     0.165 A 
ATOM     12  O   UNL     1       8.810  -4.177  -0.060  1.00  0.00    -0.454 OA
ATOM     13  O   UNL     1       8.661  -3.721  -2.205  1.00  0.00    -0.454 OA
ATOM     14  C   UNL     1       9.146  -4.701  -1.319  1.00  0.00     0.468 C 
ENDBRANCH   5   6
ENDBRANCH   1   5
TORSDOF 3
ENDMDL
MODEL 4
REMARK VINA RESULT:      -7.1      1.257      1.465
REMARK SMILES CC(=O)CCc1ccc2c(c1)OCO2
REMARK SMILES IDX 4 1 2 2 1 3 3 4 5 5 6 6 7 7 11 8 8 9 10 10 9 11 12 12 14 13
REMARK SMILES IDX 13 14
REMARK H PARENT
REMARK Flexibility Score: inf
ROOT
ATOM      1  C   UNL     1       6.405   1.201   0.939  1.00  0.00     0.080 C 
ENDROOT
BRANCH   1   2
ATOM      2  C   UNL     1       5.669   0.366   1.930  1.00  0.00     0.130 C 
ATOM      3  C   UNL     1       6.264  -0.871   2.503  1.00  0.00     0.087 C 
ATOM      4  O   UNL     1       4.549   0.676   2.301  1.00  0.00    -0.300 OA
ENDBRANCH   1   2
BRANCH   1   5
ATOM      5  C   UNL     1       5.902   0.954  -0.469  1.00  0.00     0.043 C 
BRANCH   5   6
ATOM      6  C   UNL     1       6.837   0.117  -1.244  1.00  0.00    -0.044 A 
ATOM      7  C   UNL     1       7.522   0.621  -2.355  1.00  0.00     0.008 A 
ATOM      8  C   UNL     1       7.049  -1.191  -0.873  1.00  0.00     0.054 A 
ATOM      9  C   UNL     1       8.387  -0.210  -3.043  1.00  0.00     0.051 A 
ATOM     10  C   UNL     1       7.925  -2.027  -1.572  1.00  0.00     0.166 A 
ATOM     11  C   UNL     1       8.600  -1.533  -2.666  1.00  0.00     0.165 A 
ATOM     12  O   UNL     1       8.302  -3.343  -1.405  1.00  0.00    -0.454 OA
ATOM     13  O   UNL     1       9.385  -2.566  -3.153  1.00  0.00    -0.454 OA
ATOM     14  C   UNL     1       9.296  -3.704  -2.330  1.00  0.00     0.468 C 
ENDBRANCH   5   6
ENDBRANCH   1   5
TORSDOF 3
ENDMDL
MODEL 5
REMARK VINA RESULT:      -7.1      1.940      2.534
REMARK SMILES CC(=O)CCc1ccc2c(c1)OCO2
REMARK SMILES IDX 4 1 2 2 1 3 3 4 5 5 6 6 7 7 11 8 8 9 10 10 9 11 12 12 14 13
REMARK SMILES IDX 13 14
REMARK H PARENT
REMARK Flexibility Score: inf
ROOT
ATOM      1  C   UNL     1       6.939   0.943   1.220  1.00  0.00     0.080 C 
ENDROOT
BRANCH   1   2
ATOM      2  C   UNL     1       5.480   1.205   1.368  1.00  0.00     0.130 C 
ATOM      3  C   UNL     1       4.761   2.150   0.472  1.00  0.00     0.087 C 
ATOM      4  O   UNL     1       4.829   0.647   2.236  1.00  0.00    -0.300 OA
ENDBRANCH   1   2
BRANCH   1   5
ATOM      5  C   UNL     1       7.382   1.094  -0.222  1.00  0.00     0.043 C 
BRANCH   5   6
ATOM      6  C   UNL     1       7.687  -0.209  -0.840  1.00  0.00    -0.044 A 
ATOM      7  C   UNL     1       7.666  -0.385  -2.228  1.00  0.00     0.008 A 
ATOM      8  C   UNL     1       8.003  -1.284  -0.041  1.00  0.00     0.054 A 
ATOM      9  C   UNL     1       7.962  -1.631  -2.751  1.00  0.00     0.051 A 
ATOM     10  C   UNL     1       8.302  -2.542  -0.575  1.00  0.00     0.166 A 
ATOM     11  C   UNL     1       8.281  -2.716  -1.941  1.00  0.00     0.165 A 
ATOM     12  O   UNL     1       8.641  -3.749  -0.002  1.00  0.00    -0.454 OA
ATOM     13  O   UNL     1       8.612  -4.041  -2.181  1.00  0.00    -0.454 OA
ATOM     14  C   UNL     1       8.937  -4.708  -0.985  1.00  0.00     0.468 C 
ENDBRANCH   5   6
ENDBRANCH   1   5
TORSDOF 3
ENDMDL
