@<TRIPOS>MOLECULE
/home/cewinharhar/GITHUB/reincatalyze/data/processed/docking_pred/2023-May-30-2130_sub9_nm5_bs15_s42_ex16_mel10_mts10000_k50_ec05_g099_lra3e-4_lrc3e-3/0bc78f1071f374665515956646110ea4a2a90639_ligand_9.pdbqt
 14 15 0 0 0
SMALL
GASTEIGER

@<TRIPOS>ATOM
      1  C          6.9390    0.9430    1.2200 C.3     1  UNL1        0.0800
      2  C          5.4800    1.2050    1.3680 C.2     1  UNL1        0.1300
      3  C          4.7610    2.1500    0.4720 C.3     1  UNL1        0.0870
      4  O          4.8290    0.6470    2.2360 O.2     1  UNL1       -0.3000
      5  C          7.3820    1.0940   -0.2220 C.3     1  UNL1        0.0430
      6  C          7.6870   -0.2090   -0.8400 C.2     1  UNL1       -0.0440
      7  C          7.6660   -0.3850   -2.2280 C.2     1  UNL1        0.0080
      8  C          8.0030   -1.2840   -0.0410 C.2     1  UNL1        0.0540
      9  C          7.9620   -1.6310   -2.7510 C.2     1  UNL1        0.0510
     10  C          8.3020   -2.5420   -0.5750 C.2     1  UNL1        0.1660
     11  C          8.2810   -2.7160   -1.9410 C.2     1  UNL1        0.1650
     12  O          8.6410   -3.7490   -0.0020 O.2     1  UNL1       -0.4540
     13  O          8.6120   -4.0410   -2.1810 O.2     1  UNL1       -0.4540
     14  C          8.9370   -4.7080   -0.9850 C.3     1  UNL1        0.4680
@<TRIPOS>BOND
     1     9     7    1
     2     9    11    2
     3     7     6    2
     4    13    11    1
     5    13    14    1
     6    11    10    1
     7    14    12    1
     8     6     5    1
     9     6     8    1
    10    10     8    2
    11    10    12    1
    12     5     1    1
    13     3     2    1
    14     1     2    1
    15     2     4    2
