@<TRIPOS>MOLECULE
/home/cewinharhar/GITHUB/reincatalyze/data/processed/docking_pred/2023-May-30-2130_sub9_nm5_bs15_s42_ex16_mel10_mts10000_k50_ec05_g099_lra3e-4_lrc3e-3/0bc78f1071f374665515956646110ea4a2a90639_ligand_9.pdbqt
 14 15 0 0 0
SMALL
GASTEIGER

@<TRIPOS>ATOM
      1  C          5.5070    1.8910    1.2630 C.3     1  UNL1        0.0800
      2  C          5.0270    0.6860    1.9960 C.2     1  UNL1        0.1300
      3  C          5.8520   -0.5480    2.0950 C.3     1  UNL1        0.0870
      4  O          3.9340    0.6770    2.5390 O.2     1  UNL1       -0.3000
      5  C          5.3860    1.7080   -0.2370 C.3     1  UNL1        0.0430
      6  C          6.5600    1.0160   -0.7990 C.2     1  UNL1       -0.0440
      7  C          7.8620    1.4670   -0.5570 C.2     1  UNL1        0.0080
      8  C          6.3820   -0.1030   -1.5810 C.2     1  UNL1        0.0540
      9  C          8.9250    0.7770   -1.1110 C.2     1  UNL1        0.0510
     10  C          7.4600   -0.7970   -2.1380 C.2     1  UNL1        0.1660
     11  C          8.7420   -0.3530   -1.9010 C.2     1  UNL1        0.1650
     12  O          7.5440   -1.9180   -2.9370 O.2     1  UNL1       -0.4540
     13  O          9.5950   -1.2200   -2.5660 O.2     1  UNL1       -0.4540
     14  C          8.8830   -2.2780   -3.1610 C.3     1  UNL1        0.4680
@<TRIPOS>BOND
     1    14    12    1
     2    14    13    1
     3    12    10    1
     4    13    11    1
     5    10    11    2
     6    10     8    1
     7    11     9    1
     8     8     6    2
     9     9     7    2
    10     6     7    1
    11     6     5    1
    12     5     1    1
    13     1     2    1
    14     2     3    1
    15     2     4    2
