@<TRIPOS>MOLECULE
/home/cewinharhar/GITHUB/reincatalyze/data/processed/docking_pred/2023-May-30-2130_sub9_nm5_bs15_s42_ex16_mel10_mts10000_k50_ec05_g099_lra3e-4_lrc3e-3/0bc78f1071f374665515956646110ea4a2a90639_ligand_9.pdbqt
 14 15 0 0 0
SMALL
GASTEIGER

@<TRIPOS>ATOM
      1  C          5.5650   -0.0150    1.9050 C.3     1  UNL1        0.0800
      2  C          4.6770    1.1470    1.6220 C.2     1  UNL1        0.1300
      3  C          4.9470    2.0800    0.4960 C.3     1  UNL1        0.0870
      4  O          3.6950    1.3680    2.3130 O.2     1  UNL1       -0.3000
      5  C          6.9790    0.2430    1.4240 C.3     1  UNL1        0.0430
      6  C          7.3910   -0.7230    0.3900 C.2     1  UNL1       -0.0440
      7  C          7.2920   -0.4240   -0.9730 C.2     1  UNL1        0.0080
      8  C          7.8870   -1.9520    0.7640 C.2     1  UNL1        0.0540
      9  C          7.6940   -1.3700   -1.8990 C.2     1  UNL1        0.0510
     10  C          8.2930   -2.9040   -0.1760 C.2     1  UNL1        0.1660
     11  C          8.1950   -2.6110   -1.5180 C.2     1  UNL1        0.1650
     12  O          8.8100   -4.1770   -0.0600 O.2     1  UNL1       -0.4540
     13  O          8.6610   -3.7210   -2.2050 O.2     1  UNL1       -0.4540
     14  C          9.1460   -4.7010   -1.3190 C.3     1  UNL1        0.4680
@<TRIPOS>BOND
     1    13    11    1
     2    13    14    1
     3     9    11    2
     4     9     7    1
     5    11    10    1
     6    14    12    1
     7     7     6    2
     8    10    12    1
     9    10     8    2
    10     6     8    1
    11     6     5    1
    12     3     2    1
    13     5     1    1
    14     2     1    1
    15     2     4    2
