MODEL 1
REMARK VINA RESULT:      -7.6      0.000      0.000
REMARK SMILES CC(=O)CCc1ccc2c(c1)OCO2
REMARK SMILES IDX 4 1 2 2 1 3 3 4 5 5 6 6 7 7 11 8 8 9 10 10 9 11 12 12 14 13
REMARK SMILES IDX 13 14
REMARK H PARENT
REMARK Flexibility Score: inf
ROOT
ATOM      1  C   UNL     1       5.549   1.897   1.287  1.00  0.00     0.080 C 
ENDROOT
BRANCH   1   2
ATOM      2  C   UNL     1       5.108   0.676   2.016  1.00  0.00     0.130 C 
ATOM      3  C   UNL     1       6.007  -0.496   2.191  1.00  0.00     0.087 C 
ATOM      4  O   UNL     1       3.987   0.601   2.493  1.00  0.00    -0.300 OA
ENDBRANCH   1   2
BRANCH   1   5
ATOM      5  C   UNL     1       5.416   1.721  -0.213  1.00  0.00     0.043 C 
BRANCH   5   6
ATOM      6  C   UNL     1       6.578   1.019  -0.786  1.00  0.00    -0.044 A 
ATOM      7  C   UNL     1       7.887   1.456  -0.552  1.00  0.00     0.008 A 
ATOM      8  C   UNL     1       6.383  -0.095  -1.570  1.00  0.00     0.054 A 
ATOM      9  C   UNL     1       8.938   0.757  -1.116  1.00  0.00     0.051 A 
ATOM     10  C   UNL     1       7.450  -0.800  -2.136  1.00  0.00     0.166 A 
ATOM     11  C   UNL     1       8.738  -0.369  -1.908  1.00  0.00     0.165 A 
ATOM     12  O   UNL     1       7.517  -1.918  -2.940  1.00  0.00    -0.454 OA
ATOM     13  O   UNL     1       9.578  -1.243  -2.581  1.00  0.00    -0.454 OA
ATOM     14  C   UNL     1       8.850  -2.292  -3.174  1.00  0.00     0.468 C 
ENDBRANCH   5   6
ENDBRANCH   1   5
TORSDOF 3
ENDMDL
MODEL 2
REMARK VINA RESULT:      -7.2      2.034      2.616
REMARK SMILES CC(=O)CCc1ccc2c(c1)OCO2
REMARK SMILES IDX 4 1 2 2 1 3 3 4 5 5 6 6 7 7 11 8 8 9 10 10 9 11 12 12 14 13
REMARK SMILES IDX 13 14
REMARK H PARENT
REMARK Flexibility Score: inf
ROOT
ATOM      1  C   UNL     1       5.372  -0.089   2.015  1.00  0.00     0.080 C 
ENDROOT
BRANCH   1   2
ATOM      2  C   UNL     1       4.549   1.129   1.775  1.00  0.00     0.130 C 
ATOM      3  C   UNL     1       4.907   2.119   0.724  1.00  0.00     0.087 C 
ATOM      4  O   UNL     1       3.550   1.352   2.440  1.00  0.00    -0.300 OA
ENDBRANCH   1   2
BRANCH   1   5
ATOM      5  C   UNL     1       6.822   0.144   1.640  1.00  0.00     0.043 C 
BRANCH   5   6
ATOM      6  C   UNL     1       7.258  -0.758   0.559  1.00  0.00    -0.044 A 
ATOM      7  C   UNL     1       7.137  -0.400  -0.789  1.00  0.00     0.008 A 
ATOM      8  C   UNL     1       7.802  -1.984   0.871  1.00  0.00     0.054 A 
ATOM      9  C   UNL     1       7.564  -1.287  -1.760  1.00  0.00     0.051 A 
ATOM     10  C   UNL     1       8.233  -2.877  -0.115  1.00  0.00     0.166 A 
ATOM     11  C   UNL     1       8.112  -2.526  -1.441  1.00  0.00     0.165 A 
ATOM     12  O   UNL     1       8.797  -4.134  -0.062  1.00  0.00    -0.454 OA
ATOM     13  O   UNL     1       8.612  -3.585  -2.183  1.00  0.00    -0.454 OA
ATOM     14  C   UNL     1       9.139  -4.587  -1.347  1.00  0.00     0.468 C 
ENDBRANCH   5   6
ENDBRANCH   1   5
TORSDOF 3
ENDMDL
MODEL 3
REMARK VINA RESULT:      -7.1      1.959      2.543
REMARK SMILES CC(=O)CCc1ccc2c(c1)OCO2
REMARK SMILES IDX 4 1 2 2 1 3 3 4 5 5 6 6 7 7 11 8 8 9 10 10 9 11 12 12 14 13
REMARK SMILES IDX 13 14
REMARK H PARENT
REMARK Flexibility Score: inf
ROOT
ATOM      1  C   UNL     1       6.844   0.800   1.216  1.00  0.00     0.080 C 
ENDROOT
BRANCH   1   2
ATOM      2  C   UNL     1       5.424   1.224   1.368  1.00  0.00     0.130 C 
ATOM      3  C   UNL     1       4.777   2.150   0.401  1.00  0.00     0.087 C 
ATOM      4  O   UNL     1       4.746   0.820   2.300  1.00  0.00    -0.300 OA
ENDBRANCH   1   2
BRANCH   1   5
ATOM      5  C   UNL     1       7.325   0.991  -0.209  1.00  0.00     0.043 C 
BRANCH   5   6
ATOM      6  C   UNL     1       7.709  -0.288  -0.832  1.00  0.00    -0.044 A 
ATOM      7  C   UNL     1       7.819  -0.423  -2.220  1.00  0.00     0.008 A 
ATOM      8  C   UNL     1       7.972  -1.382  -0.038  1.00  0.00     0.054 A 
ATOM      9  C   UNL     1       8.184  -1.648  -2.749  1.00  0.00     0.051 A 
ATOM     10  C   UNL     1       8.341  -2.618  -0.577  1.00  0.00     0.166 A 
ATOM     11  C   UNL     1       8.447  -2.752  -1.944  1.00  0.00     0.165 A 
ATOM     12  O   UNL     1       8.648  -3.836  -0.010  1.00  0.00    -0.454 OA
ATOM     13  O   UNL     1       8.823  -4.063  -2.190  1.00  0.00    -0.454 OA
ATOM     14  C   UNL     1       9.049  -4.761  -0.988  1.00  0.00     0.468 C 
ENDBRANCH   5   6
ENDBRANCH   1   5
TORSDOF 3
ENDMDL
MODEL 4
REMARK VINA RESULT:      -7.1      1.245      1.438
REMARK SMILES CC(=O)CCc1ccc2c(c1)OCO2
REMARK SMILES IDX 4 1 2 2 1 3 3 4 5 5 6 6 7 7 11 8 8 9 10 10 9 11 12 12 14 13
REMARK SMILES IDX 13 14
REMARK H PARENT
REMARK Flexibility Score: inf
ROOT
ATOM      1  C   UNL     1       6.363   1.222   0.964  1.00  0.00     0.080 C 
ENDROOT
BRANCH   1   2
ATOM      2  C   UNL     1       5.658   0.363   1.956  1.00  0.00     0.130 C 
ATOM      3  C   UNL     1       6.289  -0.863   2.515  1.00  0.00     0.087 C 
ATOM      4  O   UNL     1       4.534   0.642   2.340  1.00  0.00    -0.300 OA
ENDBRANCH   1   2
BRANCH   1   5
ATOM      5  C   UNL     1       5.855   0.971  -0.442  1.00  0.00     0.043 C 
BRANCH   5   6
ATOM      6  C   UNL     1       6.790   0.138  -1.219  1.00  0.00    -0.044 A 
ATOM      7  C   UNL     1       7.456   0.638  -2.344  1.00  0.00     0.008 A 
ATOM      8  C   UNL     1       7.023  -1.164  -0.838  1.00  0.00     0.054 A 
ATOM      9  C   UNL     1       8.322  -0.189  -3.035  1.00  0.00     0.051 A 
ATOM     10  C   UNL     1       7.900  -1.997  -1.539  1.00  0.00     0.166 A 
ATOM     11  C   UNL     1       8.555  -1.505  -2.647  1.00  0.00     0.165 A 
ATOM     12  O   UNL     1       8.294  -3.306  -1.365  1.00  0.00    -0.454 OA
ATOM     13  O   UNL     1       9.346  -2.534  -3.133  1.00  0.00    -0.454 OA
ATOM     14  C   UNL     1       9.281  -3.665  -2.298  1.00  0.00     0.468 C 
ENDBRANCH   5   6
ENDBRANCH   1   5
TORSDOF 3
ENDMDL
MODEL 5
REMARK VINA RESULT:      -7.1      1.683      2.086
REMARK SMILES CC(=O)CCc1ccc2c(c1)OCO2
REMARK SMILES IDX 4 1 2 2 1 3 3 4 5 5 6 6 7 7 11 8 8 9 10 10 9 11 12 12 14 13
REMARK SMILES IDX 13 14
REMARK H PARENT
REMARK Flexibility Score: inf
ROOT
ATOM      1  C   UNL     1       5.540   1.574   0.136  1.00  0.00     0.080 C 
ENDROOT
BRANCH   1   2
ATOM      2  C   UNL     1       4.931   1.106   1.412  1.00  0.00     0.130 C 
ATOM      3  C   UNL     1       5.458  -0.078   2.141  1.00  0.00     0.087 C 
ATOM      4  O   UNL     1       3.973   1.685   1.899  1.00  0.00    -0.300 OA
ENDBRANCH   1   2
BRANCH   1   5
ATOM      5  C   UNL     1       7.030   1.297   0.103  1.00  0.00     0.043 C 
BRANCH   5   6
ATOM      6  C   UNL     1       7.342   0.074  -0.659  1.00  0.00    -0.044 A 
ATOM      7  C   UNL     1       7.166   0.010  -2.046  1.00  0.00     0.008 A 
ATOM      8  C   UNL     1       7.820  -1.036  -0.001  1.00  0.00     0.054 A 
ATOM      9  C   UNL     1       7.476  -1.164  -2.708  1.00  0.00     0.051 A 
ATOM     10  C   UNL     1       8.133  -2.220  -0.675  1.00  0.00     0.166 A 
ATOM     11  C   UNL     1       7.959  -2.285  -2.040  1.00  0.00     0.165 A 
ATOM     12  O   UNL     1       8.615  -3.442  -0.255  1.00  0.00    -0.454 OA
ATOM     13  O   UNL     1       8.342  -3.557  -2.433  1.00  0.00    -0.454 OA
ATOM     14  C   UNL     1       8.851  -4.294  -1.347  1.00  0.00     0.468 C 
ENDBRANCH   5   6
ENDBRANCH   1   5
TORSDOF 3
ENDMDL
