@<TRIPOS>MOLECULE
/home/cewinharhar/GITHUB/reincatalyze/data/processed/docking_pred/2023-May-30-2130_sub9_nm5_bs15_s42_ex16_mel10_mts10000_k50_ec05_g099_lra3e-4_lrc3e-3/104e94148118840ff9051874ebdd157f969f5898_ligand_9.pdbqt
 14 15 0 0 0
SMALL
GASTEIGER

@<TRIPOS>ATOM
      1  C          5.5400    1.5740    0.1360 C.3     1  UNL1        0.0800
      2  C          4.9310    1.1060    1.4120 C.2     1  UNL1        0.1300
      3  C          5.4580   -0.0780    2.1410 C.3     1  UNL1        0.0870
      4  O          3.9730    1.6850    1.8990 O.2     1  UNL1       -0.3000
      5  C          7.0300    1.2970    0.1030 C.3     1  UNL1        0.0430
      6  C          7.3420    0.0740   -0.6590 C.2     1  UNL1       -0.0440
      7  C          7.1660    0.0100   -2.0460 C.2     1  UNL1        0.0080
      8  C          7.8200   -1.0360   -0.0010 C.2     1  UNL1        0.0540
      9  C          7.4760   -1.1640   -2.7080 C.2     1  UNL1        0.0510
     10  C          8.1330   -2.2200   -0.6750 C.2     1  UNL1        0.1660
     11  C          7.9590   -2.2850   -2.0400 C.2     1  UNL1        0.1650
     12  O          8.6150   -3.4420   -0.2550 O.2     1  UNL1       -0.4540
     13  O          8.3420   -3.5570   -2.4330 O.2     1  UNL1       -0.4540
     14  C          8.8510   -4.2940   -1.3470 C.3     1  UNL1        0.4680
@<TRIPOS>BOND
     1     9     7    1
     2     9    11    2
     3    13    11    1
     4    13    14    1
     5     7     6    2
     6    11    10    1
     7    14    12    1
     8    10    12    1
     9    10     8    2
    10     6     8    1
    11     6     5    1
    12     5     1    1
    13     1     2    1
    14     2     4    2
    15     2     3    1
