@<TRIPOS>MOLECULE
/home/cewinharhar/GITHUB/reincatalyze/data/processed/docking_pred/2023-May-30-2130_sub9_nm5_bs15_s42_ex16_mel10_mts10000_k50_ec05_g099_lra3e-4_lrc3e-3/12a677e1fc1355f2f00deb0d8e94f00822fba38d_ligand_9.pdbqt
 14 15 0 0 0
SMALL
GASTEIGER

@<TRIPOS>ATOM
      1  C          6.7300    0.3010    0.9600 C.3     1  UNL1        0.0800
      2  C          5.4470    0.9990    1.2520 C.2     1  UNL1        0.1300
      3  C          4.9590    2.1210    0.4070 C.3     1  UNL1        0.0870
      4  O          4.7550    0.6670    2.2020 O.2     1  UNL1       -0.3000
      5  C          7.4310    0.9140   -0.2360 C.3     1  UNL1        0.0430
      6  C          8.1010   -0.1070   -1.0590 C.2     1  UNL1       -0.0440
      7  C          7.6930   -0.3760   -2.3710 C.2     1  UNL1        0.0080
      8  C          9.1580   -0.8190   -0.5370 C.2     1  UNL1        0.0540
      9  C          8.3610   -1.3450   -3.0970 C.2     1  UNL1        0.0510
     10  C          9.8300   -1.7970   -1.2760 C.2     1  UNL1        0.1660
     11  C          9.4280   -2.0630   -2.5660 C.2     1  UNL1        0.1650
     12  O         10.8910   -2.6290   -0.9860 O.2     1  UNL1       -0.4540
     13  O         10.2600   -3.0610   -3.0470 O.2     1  UNL1       -0.4540
     14  C         11.2600   -3.3860   -2.1110 C.3     1  UNL1        0.4680
@<TRIPOS>BOND
     1     9    11    2
     2     9     7    1
     3    13    11    1
     4    13    14    1
     5    11    10    1
     6     7     6    2
     7    14    12    1
     8    10    12    1
     9    10     8    2
    10     6     8    1
    11     6     5    1
    12     5     1    1
    13     3     2    1
    14     1     2    1
    15     2     4    2
