@<TRIPOS>MOLECULE
/home/cewinharhar/GITHUB/reincatalyze/data/processed/docking_pred/2023-May-30-2130_sub9_nm5_bs15_s42_ex16_mel10_mts10000_k50_ec05_g099_lra3e-4_lrc3e-3/12a677e1fc1355f2f00deb0d8e94f00822fba38d_ligand_9.pdbqt
 14 15 0 0 0
SMALL
GASTEIGER

@<TRIPOS>ATOM
      1  C          5.8900    1.3060   -0.2920 C.3     1  UNL1        0.0800
      2  C          5.2870    1.1360    1.0590 C.2     1  UNL1        0.1300
      3  C          5.6310   -0.0220    1.9280 C.3     1  UNL1        0.0870
      4  O          4.4870    1.9470    1.4950 O.2     1  UNL1       -0.3000
      5  C          7.4040    1.2890   -0.2250 C.3     1  UNL1        0.0430
      6  C          7.9750    0.1960   -1.0320 C.2     1  UNL1       -0.0440
      7  C          7.4200   -0.1740   -2.2620 C.2     1  UNL1        0.0080
      8  C          9.0820   -0.4820   -0.5750 C.2     1  UNL1        0.0540
      9  C          7.9990   -1.2070   -2.9760 C.2     1  UNL1        0.0510
     10  C          9.6640   -1.5260   -1.3010 C.2     1  UNL1        0.1660
     11  C          9.1180   -1.8920   -2.5110 C.2     1  UNL1        0.1650
     12  O         10.7490   -2.3430   -1.0650 O.2     1  UNL1       -0.4540
     13  O          9.8870   -2.9360   -2.9990 O.2     1  UNL1       -0.4540
     14  C         10.9860   -3.1940   -2.1580 C.3     1  UNL1        0.4680
@<TRIPOS>BOND
     1    13    11    1
     2    13    14    1
     3     9    11    2
     4     9     7    1
     5    11    10    1
     6     7     6    2
     7    14    12    1
     8    10    12    1
     9    10     8    2
    10     6     8    1
    11     6     5    1
    12     1     5    1
    13     1     2    1
    14     2     4    2
    15     2     3    1
