@<TRIPOS>MOLECULE
/home/cewinharhar/GITHUB/reincatalyze/data/processed/docking_pred/2023-May-30-2130_sub9_nm5_bs15_s42_ex16_mel10_mts10000_k50_ec05_g099_lra3e-4_lrc3e-3/137462db5aaa4c0d89203b892bf7897df04b2771_ligand_9.pdbqt
 14 15 0 0 0
SMALL
GASTEIGER

@<TRIPOS>ATOM
      1  C          5.5930    0.0440    1.9420 C.3     1  UNL1        0.0800
      2  C          4.6730    1.1740    1.6290 C.2     1  UNL1        0.1300
      3  C          4.9330    2.1020    0.4960 C.3     1  UNL1        0.0870
      4  O          3.6730    1.3710    2.3000 O.2     1  UNL1       -0.3000
      5  C          6.9920    0.3140    1.4240 C.3     1  UNL1        0.0430
      6  C          7.3920   -0.6640    0.3960 C.2     1  UNL1       -0.0440
      7  C          7.2960   -0.3730   -0.9690 C.2     1  UNL1        0.0080
      8  C          7.8760   -1.8950    0.7780 C.2     1  UNL1        0.0540
      9  C          7.6870   -1.3300   -1.8880 C.2     1  UNL1        0.0510
     10  C          8.2710   -2.8580   -0.1550 C.2     1  UNL1        0.1660
     11  C          8.1750   -2.5730   -1.4990 C.2     1  UNL1        0.1650
     12  O          8.7750   -4.1350   -0.0310 O.2     1  UNL1       -0.4540
     13  O          8.6290   -3.6930   -2.1790 O.2     1  UNL1       -0.4540
     14  C          9.1040   -4.6720   -1.2870 C.3     1  UNL1        0.4680
@<TRIPOS>BOND
     1    13    11    1
     2    13    14    1
     3     9    11    2
     4     9     7    1
     5    11    10    1
     6    14    12    1
     7     7     6    2
     8    10    12    1
     9    10     8    2
    10     6     8    1
    11     6     5    1
    12     3     2    1
    13     5     1    1
    14     2     1    1
    15     2     4    2
