MODEL 1
REMARK VINA RESULT:      -7.7      0.000      0.000
REMARK SMILES CC(=O)CCc1ccc2c(c1)OCO2
REMARK SMILES IDX 4 1 2 2 1 3 3 4 5 5 6 6 7 7 11 8 8 9 10 10 9 11 12 12 14 13
REMARK SMILES IDX 13 14
REMARK H PARENT
REMARK Flexibility Score: inf
ROOT
ATOM      1  C   UNL     1       5.500   1.913   1.246  1.00  0.00     0.080 C 
ENDROOT
BRANCH   1   2
ATOM      2  C   UNL     1       5.051   0.707   1.996  1.00  0.00     0.130 C 
ATOM      3  C   UNL     1       5.921  -0.490   2.144  1.00  0.00     0.087 C 
ATOM      4  O   UNL     1       3.948   0.667   2.516  1.00  0.00    -0.300 OA
ENDBRANCH   1   2
BRANCH   1   5
ATOM      5  C   UNL     1       5.374   1.708  -0.251  1.00  0.00     0.043 C 
BRANCH   5   6
ATOM      6  C   UNL     1       6.551   1.017  -0.809  1.00  0.00    -0.044 A 
ATOM      7  C   UNL     1       7.852   1.470  -0.564  1.00  0.00     0.008 A 
ATOM      8  C   UNL     1       6.377  -0.105  -1.588  1.00  0.00     0.054 A 
ATOM      9  C   UNL     1       8.917   0.781  -1.113  1.00  0.00     0.051 A 
ATOM     10  C   UNL     1       7.458  -0.799  -2.140  1.00  0.00     0.166 A 
ATOM     11  C   UNL     1       8.738  -0.352  -1.901  1.00  0.00     0.165 A 
ATOM     12  O   UNL     1       7.546  -1.921  -2.937  1.00  0.00    -0.454 OA
ATOM     13  O   UNL     1       9.595  -1.219  -2.562  1.00  0.00    -0.454 OA
ATOM     14  C   UNL     1       8.886  -2.280  -3.156  1.00  0.00     0.468 C 
ENDBRANCH   5   6
ENDBRANCH   1   5
TORSDOF 3
ENDMDL
MODEL 2
REMARK VINA RESULT:      -7.5      1.913      2.371
REMARK SMILES CC(=O)CCc1ccc2c(c1)OCO2
REMARK SMILES IDX 4 1 2 2 1 3 3 4 5 5 6 6 7 7 11 8 8 9 10 10 9 11 12 12 14 13
REMARK SMILES IDX 13 14
REMARK H PARENT
REMARK Flexibility Score: inf
ROOT
ATOM      1  C   UNL     1       5.732   1.356  -0.289  1.00  0.00     0.080 C 
ENDROOT
BRANCH   1   2
ATOM      2  C   UNL     1       5.120   1.275   1.067  1.00  0.00     0.130 C 
ATOM      3  C   UNL     1       5.394   0.132   1.980  1.00  0.00     0.087 C 
ATOM      4  O   UNL     1       4.372   2.150   1.470  1.00  0.00    -0.300 OA
ENDBRANCH   1   2
BRANCH   1   5
ATOM      5  C   UNL     1       7.228   1.119  -0.233  1.00  0.00     0.043 C 
BRANCH   5   6
ATOM      6  C   UNL     1       7.601  -0.169  -0.843  1.00  0.00    -0.044 A 
ATOM      7  C   UNL     1       7.674  -0.330  -2.231  1.00  0.00     0.008 A 
ATOM      8  C   UNL     1       7.889  -1.247  -0.037  1.00  0.00     0.054 A 
ATOM      9  C   UNL     1       8.030  -1.562  -2.747  1.00  0.00     0.051 A 
ATOM     10  C   UNL     1       8.250  -2.492  -0.563  1.00  0.00     0.166 A 
ATOM     11  C   UNL     1       8.320  -2.650  -1.929  1.00  0.00     0.165 A 
ATOM     12  O   UNL     1       8.578  -3.698   0.018  1.00  0.00    -0.454 OA
ATOM     13  O   UNL     1       8.695  -3.965  -2.161  1.00  0.00    -0.454 OA
ATOM     14  C   UNL     1       8.957  -4.639  -0.953  1.00  0.00     0.468 C 
ENDBRANCH   5   6
ENDBRANCH   1   5
TORSDOF 3
ENDMDL
MODEL 3
REMARK VINA RESULT:      -7.2      2.044      2.610
REMARK SMILES CC(=O)CCc1ccc2c(c1)OCO2
REMARK SMILES IDX 4 1 2 2 1 3 3 4 5 5 6 6 7 7 11 8 8 9 10 10 9 11 12 12 14 13
REMARK SMILES IDX 13 14
REMARK H PARENT
REMARK Flexibility Score: inf
ROOT
ATOM      1  C   UNL     1       5.447  -0.029   2.016  1.00  0.00     0.080 C 
ENDROOT
BRANCH   1   2
ATOM      2  C   UNL     1       4.574   1.153   1.771  1.00  0.00     0.130 C 
ATOM      3  C   UNL     1       4.886   2.148   0.710  1.00  0.00     0.087 C 
ATOM      4  O   UNL     1       3.571   1.341   2.441  1.00  0.00    -0.300 OA
ENDBRANCH   1   2
BRANCH   1   5
ATOM      5  C   UNL     1       6.870   0.235   1.566  1.00  0.00     0.043 C 
BRANCH   5   6
ATOM      6  C   UNL     1       7.292  -0.702   0.509  1.00  0.00    -0.044 A 
ATOM      7  C   UNL     1       7.165  -0.382  -0.848  1.00  0.00     0.008 A 
ATOM      8  C   UNL     1       7.827  -1.922   0.854  1.00  0.00     0.054 A 
ATOM      9  C   UNL     1       7.579  -1.301  -1.795  1.00  0.00     0.051 A 
ATOM     10  C   UNL     1       8.244  -2.847  -0.108  1.00  0.00     0.166 A 
ATOM     11  C   UNL     1       8.119  -2.534  -1.443  1.00  0.00     0.165 A 
ATOM     12  O   UNL     1       8.798  -4.107  -0.022  1.00  0.00    -0.454 OA
ATOM     13  O   UNL     1       8.604  -3.619  -2.157  1.00  0.00    -0.454 OA
ATOM     14  C   UNL     1       9.128  -4.601  -1.295  1.00  0.00     0.468 C 
ENDBRANCH   5   6
ENDBRANCH   1   5
TORSDOF 3
ENDMDL
MODEL 4
REMARK VINA RESULT:      -7.1      1.254      1.467
REMARK SMILES CC(=O)CCc1ccc2c(c1)OCO2
REMARK SMILES IDX 4 1 2 2 1 3 3 4 5 5 6 6 7 7 11 8 8 9 10 10 9 11 12 12 14 13
REMARK SMILES IDX 13 14
REMARK H PARENT
REMARK Flexibility Score: inf
ROOT
ATOM      1  C   UNL     1       6.376   1.181   0.923  1.00  0.00     0.080 C 
ENDROOT
BRANCH   1   2
ATOM      2  C   UNL     1       5.659   0.373   1.949  1.00  0.00     0.130 C 
ATOM      3  C   UNL     1       6.255  -0.862   2.527  1.00  0.00     0.087 C 
ATOM      4  O   UNL     1       4.554   0.703   2.347  1.00  0.00    -0.300 OA
ENDBRANCH   1   2
BRANCH   1   5
ATOM      5  C   UNL     1       5.860   0.883  -0.470  1.00  0.00     0.043 C 
BRANCH   5   6
ATOM      6  C   UNL     1       6.815   0.072  -1.246  1.00  0.00    -0.044 A 
ATOM      7  C   UNL     1       7.501   0.599  -2.346  1.00  0.00     0.008 A 
ATOM      8  C   UNL     1       7.048  -1.236  -0.886  1.00  0.00     0.054 A 
ATOM      9  C   UNL     1       8.386  -0.210  -3.035  1.00  0.00     0.051 A 
ATOM     10  C   UNL     1       7.945  -2.049  -1.586  1.00  0.00     0.166 A 
ATOM     11  C   UNL     1       8.619  -1.532  -2.669  1.00  0.00     0.165 A 
ATOM     12  O   UNL     1       8.343  -3.360  -1.429  1.00  0.00    -0.454 OA
ATOM     13  O   UNL     1       9.427  -2.546  -3.160  1.00  0.00    -0.454 OA
ATOM     14  C   UNL     1       9.351  -3.694  -2.349  1.00  0.00     0.468 C 
ENDBRANCH   5   6
ENDBRANCH   1   5
TORSDOF 3
ENDMDL
MODEL 5
REMARK VINA RESULT:      -7.1      1.917      2.581
REMARK SMILES CC(=O)CCc1ccc2c(c1)OCO2
REMARK SMILES IDX 4 1 2 2 1 3 3 4 5 5 6 6 7 7 11 8 8 9 10 10 9 11 12 12 14 13
REMARK SMILES IDX 13 14
REMARK H PARENT
REMARK Flexibility Score: inf
ROOT
ATOM      1  C   UNL     1       6.654   1.113   1.144  1.00  0.00     0.080 C 
ENDROOT
BRANCH   1   2
ATOM      2  C   UNL     1       5.286   1.631   0.860  1.00  0.00     0.130 C 
ATOM      3  C   UNL     1       4.911   2.148  -0.484  1.00  0.00     0.087 C 
ATOM      4  O   UNL     1       4.429   1.647   1.728  1.00  0.00    -0.300 OA
ENDBRANCH   1   2
BRANCH   1   5
ATOM      5  C   UNL     1       7.550   1.231  -0.073  1.00  0.00     0.043 C 
BRANCH   5   6
ATOM      6  C   UNL     1       7.786  -0.079  -0.706  1.00  0.00    -0.044 A 
ATOM      7  C   UNL     1       7.713  -0.246  -2.094  1.00  0.00     0.008 A 
ATOM      8  C   UNL     1       8.087  -1.171   0.076  1.00  0.00     0.054 A 
ATOM      9  C   UNL     1       7.945  -1.498  -2.633  1.00  0.00     0.051 A 
ATOM     10  C   UNL     1       8.321  -2.435  -0.474  1.00  0.00     0.166 A 
ATOM     11  C   UNL     1       8.249  -2.600  -1.839  1.00  0.00     0.165 A 
ATOM     12  O   UNL     1       8.633  -3.658   0.082  1.00  0.00    -0.454 OA
ATOM     13  O   UNL     1       8.521  -3.935  -2.096  1.00  0.00    -0.454 OA
ATOM     14  C   UNL     1       8.859  -4.621  -0.915  1.00  0.00     0.468 C 
ENDBRANCH   5   6
ENDBRANCH   1   5
TORSDOF 3
ENDMDL
