MODEL 1
REMARK VINA RESULT:      -7.6      0.000      0.000
REMARK SMILES CC(=O)CCc1ccc2c(c1)OCO2
REMARK SMILES IDX 4 1 2 2 1 3 3 4 5 5 6 6 7 7 11 8 8 9 10 10 9 11 12 12 14 13
REMARK SMILES IDX 13 14
REMARK H PARENT
REMARK Flexibility Score: inf
ROOT
ATOM      1  C   UNL     1       5.525   1.927   1.252  1.00  0.00     0.080 C 
ENDROOT
BRANCH   1   2
ATOM      2  C   UNL     1       5.092   0.714   2.000  1.00  0.00     0.130 C 
ATOM      3  C   UNL     1       5.995  -0.454   2.184  1.00  0.00     0.087 C 
ATOM      4  O   UNL     1       3.975   0.643   2.487  1.00  0.00    -0.300 OA
ENDBRANCH   1   2
BRANCH   1   5
ATOM      5  C   UNL     1       5.398   1.725  -0.245  1.00  0.00     0.043 C 
BRANCH   5   6
ATOM      6  C   UNL     1       6.566   1.020  -0.803  1.00  0.00    -0.044 A 
ATOM      7  C   UNL     1       7.873   1.453  -0.549  1.00  0.00     0.008 A 
ATOM      8  C   UNL     1       6.379  -0.092  -1.591  1.00  0.00     0.054 A 
ATOM      9  C   UNL     1       8.930   0.751  -1.099  1.00  0.00     0.051 A 
ATOM     10  C   UNL     1       7.452  -0.799  -2.144  1.00  0.00     0.166 A 
ATOM     11  C   UNL     1       8.738  -0.373  -1.896  1.00  0.00     0.165 A 
ATOM     12  O   UNL     1       7.527  -1.916  -2.948  1.00  0.00    -0.454 OA
ATOM     13  O   UNL     1       9.585  -1.248  -2.559  1.00  0.00    -0.454 OA
ATOM     14  C   UNL     1       8.862  -2.294  -3.164  1.00  0.00     0.468 C 
ENDBRANCH   5   6
ENDBRANCH   1   5
TORSDOF 3
ENDMDL
MODEL 2
REMARK VINA RESULT:      -7.3      1.863      2.298
REMARK SMILES CC(=O)CCc1ccc2c(c1)OCO2
REMARK SMILES IDX 4 1 2 2 1 3 3 4 5 5 6 6 7 7 11 8 8 9 10 10 9 11 12 12 14 13
REMARK SMILES IDX 13 14
REMARK H PARENT
REMARK Flexibility Score: inf
ROOT
ATOM      1  C   UNL     1       5.827   1.535  -0.203  1.00  0.00     0.080 C 
ENDROOT
BRANCH   1   2
ATOM      2  C   UNL     1       5.102   1.334   1.082  1.00  0.00     0.130 C 
ATOM      3  C   UNL     1       5.341   0.139   1.935  1.00  0.00     0.087 C 
ATOM      4  O   UNL     1       4.283   2.150   1.475  1.00  0.00    -0.300 OA
ENDBRANCH   1   2
BRANCH   1   5
ATOM      5  C   UNL     1       7.297   1.193  -0.065  1.00  0.00     0.043 C 
BRANCH   5   6
ATOM      6  C   UNL     1       7.629  -0.075  -0.739  1.00  0.00    -0.044 A 
ATOM      7  C   UNL     1       7.623  -0.187  -2.134  1.00  0.00     0.008 A 
ATOM      8  C   UNL     1       7.955  -1.182   0.011  1.00  0.00     0.054 A 
ATOM      9  C   UNL     1       7.944  -1.402  -2.712  1.00  0.00     0.051 A 
ATOM     10  C   UNL     1       8.279  -2.408  -0.577  1.00  0.00     0.166 A 
ATOM     11  C   UNL     1       8.273  -2.519  -1.950  1.00  0.00     0.165 A 
ATOM     12  O   UNL     1       8.631  -3.636  -0.058  1.00  0.00    -0.454 OA
ATOM     13  O   UNL     1       8.627  -3.826  -2.248  1.00  0.00    -0.454 OA
ATOM     14  C   UNL     1       8.951  -4.543  -1.081  1.00  0.00     0.468 C 
ENDBRANCH   5   6
ENDBRANCH   1   5
TORSDOF 3
ENDMDL
MODEL 3
REMARK VINA RESULT:      -7.2      2.068      2.606
REMARK SMILES CC(=O)CCc1ccc2c(c1)OCO2
REMARK SMILES IDX 4 1 2 2 1 3 3 4 5 5 6 6 7 7 11 8 8 9 10 10 9 11 12 12 14 13
REMARK SMILES IDX 13 14
REMARK H PARENT
REMARK Flexibility Score: inf
ROOT
ATOM      1  C   UNL     1       5.547   0.018   1.966  1.00  0.00     0.080 C 
ENDROOT
BRANCH   1   2
ATOM      2  C   UNL     1       4.652   1.165   1.649  1.00  0.00     0.130 C 
ATOM      3  C   UNL     1       4.948   2.101   0.532  1.00  0.00     0.087 C 
ATOM      4  O   UNL     1       3.642   1.371   2.303  1.00  0.00    -0.300 OA
ENDBRANCH   1   2
BRANCH   1   5
ATOM      5  C   UNL     1       6.962   0.275   1.485  1.00  0.00     0.043 C 
BRANCH   5   6
ATOM      6  C   UNL     1       7.367  -0.685   0.442  1.00  0.00    -0.044 A 
ATOM      7  C   UNL     1       7.258  -0.377  -0.919  1.00  0.00     0.008 A 
ATOM      8  C   UNL     1       7.868  -1.915   0.804  1.00  0.00     0.054 A 
ATOM      9  C   UNL     1       7.655  -1.317  -1.853  1.00  0.00     0.051 A 
ATOM     10  C   UNL     1       8.268  -2.861  -0.145  1.00  0.00     0.166 A 
ATOM     11  C   UNL     1       8.160  -2.559  -1.484  1.00  0.00     0.165 A 
ATOM     12  O   UNL     1       8.788  -4.133  -0.041  1.00  0.00    -0.454 OA
ATOM     13  O   UNL     1       8.623  -3.664  -2.182  1.00  0.00    -0.454 OA
ATOM     14  C   UNL     1       9.115  -4.649  -1.305  1.00  0.00     0.468 C 
ENDBRANCH   5   6
ENDBRANCH   1   5
TORSDOF 3
ENDMDL
MODEL 4
REMARK VINA RESULT:      -7.1      1.258      1.464
REMARK SMILES CC(=O)CCc1ccc2c(c1)OCO2
REMARK SMILES IDX 4 1 2 2 1 3 3 4 5 5 6 6 7 7 11 8 8 9 10 10 9 11 12 12 14 13
REMARK SMILES IDX 13 14
REMARK H PARENT
REMARK Flexibility Score: inf
ROOT
ATOM      1  C   UNL     1       6.392   1.184   0.959  1.00  0.00     0.080 C 
ENDROOT
BRANCH   1   2
ATOM      2  C   UNL     1       5.652   0.355   1.951  1.00  0.00     0.130 C 
ATOM      3  C   UNL     1       6.248  -0.874   2.541  1.00  0.00     0.087 C 
ATOM      4  O   UNL     1       4.527   0.662   2.310  1.00  0.00    -0.300 OA
ENDBRANCH   1   2
BRANCH   1   5
ATOM      5  C   UNL     1       5.893   0.934  -0.450  1.00  0.00     0.043 C 
BRANCH   5   6
ATOM      6  C   UNL     1       6.832   0.104  -1.224  1.00  0.00    -0.044 A 
ATOM      7  C   UNL     1       7.511   0.609  -2.338  1.00  0.00     0.008 A 
ATOM      8  C   UNL     1       7.058  -1.202  -0.849  1.00  0.00     0.054 A 
ATOM      9  C   UNL     1       8.382  -0.217  -3.025  1.00  0.00     0.051 A 
ATOM     10  C   UNL     1       7.939  -2.032  -1.547  1.00  0.00     0.166 A 
ATOM     11  C   UNL     1       8.607  -1.536  -2.644  1.00  0.00     0.165 A 
ATOM     12  O   UNL     1       8.328  -3.344  -1.377  1.00  0.00    -0.454 OA
ATOM     13  O   UNL     1       9.400  -2.563  -3.130  1.00  0.00    -0.454 OA
ATOM     14  C   UNL     1       9.322  -3.700  -2.302  1.00  0.00     0.468 C 
ENDBRANCH   5   6
ENDBRANCH   1   5
TORSDOF 3
ENDMDL
MODEL 5
REMARK VINA RESULT:      -6.9      2.008      2.647
REMARK SMILES CC(=O)CCc1ccc2c(c1)OCO2
REMARK SMILES IDX 4 1 2 2 1 3 3 4 5 5 6 6 7 7 11 8 8 9 10 10 9 11 12 12 14 13
REMARK SMILES IDX 13 14
REMARK H PARENT
REMARK Flexibility Score: inf
ROOT
ATOM      1  C   UNL     1       6.533   0.326   1.163  1.00  0.00     0.080 C 
ENDROOT
BRANCH   1   2
ATOM      2  C   UNL     1       5.257   1.048   1.429  1.00  0.00     0.130 C 
ATOM      3  C   UNL     1       4.783   2.147   0.545  1.00  0.00     0.087 C 
ATOM      4  O   UNL     1       4.560   0.757   2.387  1.00  0.00    -0.300 OA
ENDBRANCH   1   2
BRANCH   1   5
ATOM      5  C   UNL     1       7.029   0.586  -0.246  1.00  0.00     0.043 C 
BRANCH   5   6
ATOM      6  C   UNL     1       7.577  -0.633  -0.866  1.00  0.00    -0.044 A 
ATOM      7  C   UNL     1       7.843  -0.702  -2.238  1.00  0.00     0.008 A 
ATOM      8  C   UNL     1       7.840  -1.736  -0.085  1.00  0.00     0.054 A 
ATOM      9  C   UNL     1       8.358  -1.873  -2.764  1.00  0.00     0.051 A 
ATOM     10  C   UNL     1       8.361  -2.917  -0.622  1.00  0.00     0.166 A 
ATOM     11  C   UNL     1       8.622  -2.986  -1.972  1.00  0.00     0.165 A 
ATOM     12  O   UNL     1       8.703  -4.132  -0.065  1.00  0.00    -0.454 OA
ATOM     13  O   UNL     1       9.125  -4.254  -2.219  1.00  0.00    -0.454 OA
ATOM     14  C   UNL     1       9.278  -4.982  -1.024  1.00  0.00     0.468 C 
ENDBRANCH   5   6
ENDBRANCH   1   5
TORSDOF 3
ENDMDL
