@<TRIPOS>MOLECULE
/home/cewinharhar/GITHUB/reincatalyze/data/processed/docking_pred/2023-May-30-2130_sub9_nm5_bs15_s42_ex16_mel10_mts10000_k50_ec05_g099_lra3e-4_lrc3e-3/13e8c6f9c16a4fbf8ad14846e02839591438c51f_ligand_9.pdbqt
 14 15 0 0 0
SMALL
GASTEIGER

@<TRIPOS>ATOM
      1  C          6.3920    1.1840    0.9590 C.3     1  UNL1        0.0800
      2  C          5.6520    0.3550    1.9510 C.2     1  UNL1        0.1300
      3  C          6.2480   -0.8740    2.5410 C.3     1  UNL1        0.0870
      4  O          4.5270    0.6620    2.3100 O.2     1  UNL1       -0.3000
      5  C          5.8930    0.9340   -0.4500 C.3     1  UNL1        0.0430
      6  C          6.8320    0.1040   -1.2240 C.2     1  UNL1       -0.0440
      7  C          7.5110    0.6090   -2.3380 C.2     1  UNL1        0.0080
      8  C          7.0580   -1.2020   -0.8490 C.2     1  UNL1        0.0540
      9  C          8.3820   -0.2170   -3.0250 C.2     1  UNL1        0.0510
     10  C          7.9390   -2.0320   -1.5470 C.2     1  UNL1        0.1660
     11  C          8.6070   -1.5360   -2.6440 C.2     1  UNL1        0.1650
     12  O          8.3280   -3.3440   -1.3770 O.2     1  UNL1       -0.4540
     13  O          9.4000   -2.5630   -3.1300 O.2     1  UNL1       -0.4540
     14  C          9.3220   -3.7000   -2.3020 C.3     1  UNL1        0.4680
@<TRIPOS>BOND
     1    13    11    1
     2    13    14    1
     3     9    11    2
     4     9     7    1
     5    11    10    1
     6     7     6    2
     7    14    12    1
     8    10    12    1
     9    10     8    2
    10     6     8    1
    11     6     5    1
    12     5     1    1
    13     1     2    1
    14     2     4    2
    15     2     3    1
