@<TRIPOS>MOLECULE
/home/cewinharhar/GITHUB/reincatalyze/data/processed/docking_pred/2023-May-30-2130_sub9_nm5_bs15_s42_ex16_mel10_mts10000_k50_ec05_g099_lra3e-4_lrc3e-3/13e8c6f9c16a4fbf8ad14846e02839591438c51f_ligand_9.pdbqt
 14 15 0 0 0
SMALL
GASTEIGER

@<TRIPOS>ATOM
      1  C          6.5330    0.3260    1.1630 C.3     1  UNL1        0.0800
      2  C          5.2570    1.0480    1.4290 C.2     1  UNL1        0.1300
      3  C          4.7830    2.1470    0.5450 C.3     1  UNL1        0.0870
      4  O          4.5600    0.7570    2.3870 O.2     1  UNL1       -0.3000
      5  C          7.0290    0.5860   -0.2460 C.3     1  UNL1        0.0430
      6  C          7.5770   -0.6330   -0.8660 C.2     1  UNL1       -0.0440
      7  C          7.8430   -0.7020   -2.2380 C.2     1  UNL1        0.0080
      8  C          7.8400   -1.7360   -0.0850 C.2     1  UNL1        0.0540
      9  C          8.3580   -1.8730   -2.7640 C.2     1  UNL1        0.0510
     10  C          8.3610   -2.9170   -0.6220 C.2     1  UNL1        0.1660
     11  C          8.6220   -2.9860   -1.9720 C.2     1  UNL1        0.1650
     12  O          8.7030   -4.1320   -0.0650 O.2     1  UNL1       -0.4540
     13  O          9.1250   -4.2540   -2.2190 O.2     1  UNL1       -0.4540
     14  C          9.2780   -4.9820   -1.0240 C.3     1  UNL1        0.4680
@<TRIPOS>BOND
     1     9     7    1
     2     9    11    2
     3     7     6    2
     4    13    11    1
     5    13    14    1
     6    11    10    1
     7    14    12    1
     8     6     5    1
     9     6     8    1
    10    10     8    2
    11    10    12    1
    12     5     1    1
    13     3     2    1
    14     1     2    1
    15     2     4    2
