@<TRIPOS>MOLECULE
/home/cewinharhar/GITHUB/reincatalyze/data/processed/docking_pred/2023-May-30-2130_sub9_nm5_bs15_s42_ex16_mel10_mts10000_k50_ec05_g099_lra3e-4_lrc3e-3/13e8c6f9c16a4fbf8ad14846e02839591438c51f_ligand_9.pdbqt
 14 15 0 0 0
SMALL
GASTEIGER

@<TRIPOS>ATOM
      1  C          5.8270    1.5350   -0.2030 C.3     1  UNL1        0.0800
      2  C          5.1020    1.3340    1.0820 C.2     1  UNL1        0.1300
      3  C          5.3410    0.1390    1.9350 C.3     1  UNL1        0.0870
      4  O          4.2830    2.1500    1.4750 O.2     1  UNL1       -0.3000
      5  C          7.2970    1.1930   -0.0650 C.3     1  UNL1        0.0430
      6  C          7.6290   -0.0750   -0.7390 C.2     1  UNL1       -0.0440
      7  C          7.6230   -0.1870   -2.1340 C.2     1  UNL1        0.0080
      8  C          7.9550   -1.1820    0.0110 C.2     1  UNL1        0.0540
      9  C          7.9440   -1.4020   -2.7120 C.2     1  UNL1        0.0510
     10  C          8.2790   -2.4080   -0.5770 C.2     1  UNL1        0.1660
     11  C          8.2730   -2.5190   -1.9500 C.2     1  UNL1        0.1650
     12  O          8.6310   -3.6360   -0.0580 O.2     1  UNL1       -0.4540
     13  O          8.6270   -3.8260   -2.2480 O.2     1  UNL1       -0.4540
     14  C          8.9510   -4.5430   -1.0810 C.3     1  UNL1        0.4680
@<TRIPOS>BOND
     1     9     7    1
     2     9    11    2
     3    13    11    1
     4    13    14    1
     5     7     6    2
     6    11    10    1
     7    14    12    1
     8     6     5    1
     9     6     8    1
    10    10    12    1
    11    10     8    2
    12     1     5    1
    13     1     2    1
    14     2     4    2
    15     2     3    1
