@<TRIPOS>MOLECULE
/home/cewinharhar/GITHUB/reincatalyze/data/processed/docking_pred/2023-May-30-2130_sub9_nm5_bs15_s42_ex16_mel10_mts10000_k50_ec05_g099_lra3e-4_lrc3e-3/141a4713aaf07cdd351da17b8461b13d6c9c65f9_ligand_9.pdbqt
 14 15 0 0 0
SMALL
GASTEIGER

@<TRIPOS>ATOM
      1  C          6.9060    0.7000    1.0300 C.3     1  UNL1        0.0800
      2  C          5.5140    1.1280    1.3420 C.2     1  UNL1        0.1300
      3  C          4.8090    2.1500    0.5230 C.3     1  UNL1        0.0870
      4  O          4.9080    0.6490    2.2870 O.2     1  UNL1       -0.3000
      5  C          7.1950    0.8060   -0.4540 C.3     1  UNL1        0.0430
      6  C          7.6640   -0.4750   -1.0120 C.2     1  UNL1       -0.0440
      7  C          7.8960   -0.6360   -2.3830 C.2     1  UNL1        0.0080
      8  C          7.8860   -1.5440   -0.1730 C.2     1  UNL1        0.0540
      9  C          8.3380   -1.8620   -2.8490 C.2     1  UNL1        0.0510
     10  C          8.3330   -2.7800   -0.6490 C.2     1  UNL1        0.1660
     11  C          8.5600   -2.9400   -1.9980 C.2     1  UNL1        0.1650
     12  O          8.6220   -3.9770   -0.0290 O.2     1  UNL1       -0.4540
     13  O          8.9900   -4.2450   -2.1800 O.2     1  UNL1       -0.4540
     14  C          9.1300   -4.9110   -0.9470 C.3     1  UNL1        0.4680
@<TRIPOS>BOND
     1     9     7    1
     2     9    11    2
     3     7     6    2
     4    13    11    1
     5    13    14    1
     6    11    10    1
     7     6     5    1
     8     6     8    1
     9    14    12    1
    10    10     8    2
    11    10    12    1
    12     5     1    1
    13     3     2    1
    14     1     2    1
    15     2     4    2
