@<TRIPOS>MOLECULE
/home/cewinharhar/GITHUB/reincatalyze/data/processed/docking_pred/2023-May-30-2130_sub9_nm5_bs15_s42_ex16_mel10_mts10000_k50_ec05_g099_lra3e-4_lrc3e-3/141a4713aaf07cdd351da17b8461b13d6c9c65f9_ligand_9.pdbqt
 14 15 0 0 0
SMALL
GASTEIGER

@<TRIPOS>ATOM
      1  C          5.8790    1.4890   -0.2100 C.3     1  UNL1        0.0800
      2  C          5.1200    1.3200    1.0610 C.2     1  UNL1        0.1300
      3  C          5.3300    0.1420    1.9450 C.3     1  UNL1        0.0870
      4  O          4.2980    2.1490    1.4140 O.2     1  UNL1       -0.3000
      5  C          7.3400    1.1240   -0.0310 C.3     1  UNL1        0.0430
      6  C          7.6710   -0.1470   -0.7000 C.2     1  UNL1       -0.0440
      7  C          7.6870   -0.2590   -2.0950 C.2     1  UNL1        0.0080
      8  C          7.9750   -1.2560    0.0560 C.2     1  UNL1        0.0540
      9  C          8.0060   -1.4770   -2.6670 C.2     1  UNL1        0.0510
     10  C          8.2970   -2.4860   -0.5270 C.2     1  UNL1        0.1660
     11  C          8.3120   -2.5970   -1.9000 C.2     1  UNL1        0.1650
     12  O          8.6300   -3.7160   -0.0020 O.2     1  UNL1       -0.4540
     13  O          8.6600   -3.9070   -2.1920 O.2     1  UNL1       -0.4540
     14  C          8.9580   -4.6270   -1.0200 C.3     1  UNL1        0.4680
@<TRIPOS>BOND
     1     9     7    1
     2     9    11    2
     3    13    11    1
     4    13    14    1
     5     7     6    2
     6    11    10    1
     7    14    12    1
     8     6     5    1
     9     6     8    1
    10    10    12    1
    11    10     8    2
    12     1     5    1
    13     1     2    1
    14     2     4    2
    15     2     3    1
