@<TRIPOS>MOLECULE
/home/cewinharhar/GITHUB/reincatalyze/data/processed/docking_pred/2023-May-30-2130_sub9_nm5_bs15_s42_ex16_mel10_mts10000_k50_ec05_g099_lra3e-4_lrc3e-3/141a4713aaf07cdd351da17b8461b13d6c9c65f9_ligand_9.pdbqt
 14 15 0 0 0
SMALL
GASTEIGER

@<TRIPOS>ATOM
      1  C          6.3640    1.2360    0.9140 C.3     1  UNL1        0.0800
      2  C          5.6630    0.4040    1.9320 C.2     1  UNL1        0.1300
      3  C          6.2950   -0.8060    2.5210 C.3     1  UNL1        0.0870
      4  O          4.5400    0.6950    2.3130 O.2     1  UNL1       -0.3000
      5  C          5.8560    0.9400   -0.4830 C.3     1  UNL1        0.0430
      6  C          6.8100    0.1170   -1.2480 C.2     1  UNL1       -0.0440
      7  C          7.5040    0.6310   -2.3490 C.2     1  UNL1        0.0080
      8  C          7.0320   -1.1900   -0.8780 C.2     1  UNL1        0.0540
      9  C          8.3870   -0.1890   -3.0280 C.2     1  UNL1        0.0510
     10  C          7.9270   -2.0150   -1.5670 C.2     1  UNL1        0.1660
     11  C          8.6090   -1.5100   -2.6510 C.2     1  UNL1        0.1650
     12  O          8.3150   -3.3270   -1.3990 O.2     1  UNL1       -0.4540
     13  O          9.4120   -2.5320   -3.1310 O.2     1  UNL1       -0.4540
     14  C          9.3250   -3.6740   -2.3120 C.3     1  UNL1        0.4680
@<TRIPOS>BOND
     1    13    11    1
     2    13    14    1
     3     9    11    2
     4     9     7    1
     5    11    10    1
     6     7     6    2
     7    14    12    1
     8    10    12    1
     9    10     8    2
    10     6     8    1
    11     6     5    1
    12     5     1    1
    13     1     2    1
    14     2     4    2
    15     2     3    1
