@<TRIPOS>MOLECULE
/home/cewinharhar/GITHUB/reincatalyze/data/processed/docking_pred/2023-May-30-2130_sub9_nm5_bs15_s42_ex16_mel10_mts10000_k50_ec05_g099_lra3e-4_lrc3e-3/141a4713aaf07cdd351da17b8461b13d6c9c65f9_ligand_9.pdbqt
 14 15 0 0 0
SMALL
GASTEIGER

@<TRIPOS>ATOM
      1  C          5.4110   -0.0640    2.0050 C.3     1  UNL1        0.0800
      2  C          4.5750    1.1450    1.7610 C.2     1  UNL1        0.1300
      3  C          4.9160    2.1290    0.7000 C.3     1  UNL1        0.0870
      4  O          3.5790    1.3630    2.4320 O.2     1  UNL1       -0.3000
      5  C          6.8540    0.1750    1.6030 C.3     1  UNL1        0.0430
      6  C          7.2850   -0.7510    0.5410 C.2     1  UNL1       -0.0440
      7  C          7.1650   -0.4190   -0.8140 C.2     1  UNL1        0.0080
      8  C          7.8240   -1.9720    0.8770 C.2     1  UNL1        0.0540
      9  C          7.5880   -1.3280   -1.7670 C.2     1  UNL1        0.0510
     10  C          8.2510   -2.8860   -0.0900 C.2     1  UNL1        0.1660
     11  C          8.1310   -2.5620   -1.4230 C.2     1  UNL1        0.1650
     12  O          8.8090   -4.1440   -0.0120 O.2     1  UNL1       -0.4540
     13  O          8.6260   -3.6380   -2.1440 O.2     1  UNL1       -0.4540
     14  C          9.1490   -4.6250   -1.2880 C.3     1  UNL1        0.4680
@<TRIPOS>BOND
     1    13    11    1
     2    13    14    1
     3     9    11    2
     4     9     7    1
     5    11    10    1
     6    14    12    1
     7     7     6    2
     8    10    12    1
     9    10     8    2
    10     6     8    1
    11     6     5    1
    12     3     2    1
    13     5     1    1
    14     2     1    1
    15     2     4    2
