@<TRIPOS>MOLECULE
/home/cewinharhar/GITHUB/reincatalyze/data/processed/docking_pred/2023-May-30-2130_sub9_nm5_bs15_s42_ex16_mel10_mts10000_k50_ec05_g099_lra3e-4_lrc3e-3/141a4713aaf07cdd351da17b8461b13d6c9c65f9_ligand_9.pdbqt
 14 15 0 0 0
SMALL
GASTEIGER

@<TRIPOS>ATOM
      1  C          5.5360    1.9210    1.2670 C.3     1  UNL1        0.0800
      2  C          5.1060    0.7020    2.0080 C.2     1  UNL1        0.1300
      3  C          6.0130   -0.4630    2.1880 C.3     1  UNL1        0.0870
      4  O          3.9880    0.6240    2.4910 O.2     1  UNL1       -0.3000
      5  C          5.4080    1.7290   -0.2310 C.3     1  UNL1        0.0430
      6  C          6.5740    1.0250   -0.7930 C.2     1  UNL1       -0.0440
      7  C          7.8820    1.4510   -0.5360 C.2     1  UNL1        0.0080
      8  C          6.3840   -0.0820   -1.5900 C.2     1  UNL1        0.0540
      9  C          8.9370    0.7490   -1.0900 C.2     1  UNL1        0.0510
     10  C          7.4540   -0.7870   -2.1470 C.2     1  UNL1        0.1660
     11  C          8.7410   -0.3680   -1.8950 C.2     1  UNL1        0.1650
     12  O          7.5250   -1.8990   -2.9590 O.2     1  UNL1       -0.4540
     13  O          9.5850   -1.2410   -2.5640 O.2     1  UNL1       -0.4540
     14  C          8.8600   -2.2800   -3.1770 C.3     1  UNL1        0.4680
@<TRIPOS>BOND
     1    14    12    1
     2    14    13    1
     3    12    10    1
     4    13    11    1
     5    10    11    2
     6    10     8    1
     7    11     9    1
     8     8     6    2
     9     9     7    2
    10     6     7    1
    11     6     5    1
    12     5     1    1
    13     1     2    1
    14     2     3    1
    15     2     4    2
