@<TRIPOS>MOLECULE
/home/cewinharhar/GITHUB/reincatalyze/data/processed/docking_pred/2023-May-30-2130_sub9_nm5_bs15_s42_ex16_mel10_mts10000_k50_ec05_g099_lra3e-4_lrc3e-3/1444e75be78da7e2931ed2b5f85ad252461f0798_ligand_9.pdbqt
 14 15 0 0 0
SMALL
GASTEIGER

@<TRIPOS>ATOM
      1  C          5.3010   -0.0700    1.9630 C.3     1  UNL1        0.0800
      2  C          4.4180    1.1160    1.7820 C.2     1  UNL1        0.1300
      3  C          4.6900    2.1390    0.7360 C.3     1  UNL1        0.0870
      4  O          3.4400    1.2840    2.4920 O.2     1  UNL1       -0.3000
      5  C          6.7650    0.3180    1.9020 C.3     1  UNL1        0.0430
      6  C          7.3730   -0.0450    0.6090 C.2     1  UNL1       -0.0440
      7  C          7.8610    0.9280   -0.2710 C.2     1  UNL1        0.0080
      8  C          7.4700   -1.3700    0.2500 C.2     1  UNL1        0.0540
      9  C          8.4220    0.5270   -1.4700 C.2     1  UNL1        0.0510
     10  C          8.0390   -1.7700   -0.9630 C.2     1  UNL1        0.1660
     11  C          8.5180   -0.8130   -1.8300 C.2     1  UNL1        0.1650
     12  O          8.2480   -3.0040   -1.5420 O.2     1  UNL1       -0.4540
     13  O          9.0180   -1.4870   -2.9340 O.2     1  UNL1       -0.4540
     14  C          8.9490   -2.8810   -2.7530 C.3     1  UNL1        0.4680
@<TRIPOS>BOND
     1    13    14    1
     2    13    11    1
     3    14    12    1
     4    11     9    2
     5    11    10    1
     6    12    10    1
     7     9     7    1
     8    10     8    2
     9     7     6    2
    10     8     6    1
    11     6     5    1
    12     3     2    1
    13     2     1    1
    14     2     4    2
    15     5     1    1
