@<TRIPOS>MOLECULE
/home/cewinharhar/GITHUB/reincatalyze/data/processed/docking_pred/2023-May-30-2130_sub9_nm5_bs15_s42_ex16_mel10_mts10000_k50_ec05_g099_lra3e-4_lrc3e-3/16519f8051380dc2329c6f51dcb24a8f5dfeda31_ligand_9.pdbqt
 14 15 0 0 0
SMALL
GASTEIGER

@<TRIPOS>ATOM
      1  C          5.3830   -0.0810    2.0280 C.3     1  UNL1        0.0800
      2  C          4.5390    1.1200    1.7720 C.2     1  UNL1        0.1300
      3  C          4.8910    2.1110    0.7210 C.3     1  UNL1        0.0870
      4  O          3.5280    1.3260    2.4240 O.2     1  UNL1       -0.3000
      5  C          6.8250    0.1650    1.6340 C.3     1  UNL1        0.0430
      6  C          7.2630   -0.7480    0.5620 C.2     1  UNL1       -0.0440
      7  C          7.1460   -0.4010   -0.7890 C.2     1  UNL1        0.0080
      8  C          7.8020   -1.9710    0.8870 C.2     1  UNL1        0.0540
      9  C          7.5730   -1.2980   -1.7510 C.2     1  UNL1        0.0510
     10  C          8.2340   -2.8740   -0.0890 C.2     1  UNL1        0.1660
     11  C          8.1180   -2.5350   -1.4190 C.2     1  UNL1        0.1650
     12  O          8.7950   -4.1320   -0.0240 O.2     1  UNL1       -0.4540
     13  O          8.6170   -3.6020   -2.1500 O.2     1  UNL1       -0.4540
     14  C          9.1400   -4.5980   -1.3030 C.3     1  UNL1        0.4680
@<TRIPOS>BOND
     1    13    11    1
     2    13    14    1
     3     9    11    2
     4     9     7    1
     5    11    10    1
     6    14    12    1
     7     7     6    2
     8    10    12    1
     9    10     8    2
    10     6     8    1
    11     6     5    1
    12     3     2    1
    13     5     1    1
    14     2     1    1
    15     2     4    2
