@<TRIPOS>MOLECULE
/home/cewinharhar/GITHUB/reincatalyze/data/processed/docking_pred/2023-May-30-2130_sub9_nm5_bs15_s42_ex16_mel10_mts10000_k50_ec05_g099_lra3e-4_lrc3e-3/1c0c8a91d3eae7937fa2398dc61f909c50ab5738_ligand_9.pdbqt
 14 15 0 0 0
SMALL
GASTEIGER

@<TRIPOS>ATOM
      1  C          5.7720    1.2470   -0.3110 C.3     1  UNL1        0.0800
      2  C          5.2430    1.2000    1.0810 C.2     1  UNL1        0.1300
      3  C          5.4240    0.0020    1.9450 C.3     1  UNL1        0.0870
      4  O          4.6420    2.1500    1.5560 O.2     1  UNL1       -0.3000
      5  C          7.2760    1.0580   -0.3350 C.3     1  UNL1        0.0430
      6  C          7.6550   -0.2370   -0.9260 C.2     1  UNL1       -0.0440
      7  C          7.7670   -0.4060   -2.3110 C.2     1  UNL1        0.0080
      8  C          7.9100   -1.3130   -0.1060 C.2     1  UNL1        0.0540
      9  C          8.1280   -1.6450   -2.8090 C.2     1  UNL1        0.0510
     10  C          8.2740   -2.5630   -0.6150 C.2     1  UNL1        0.1660
     11  C          8.3840   -2.7310   -1.9770 C.2     1  UNL1        0.1650
     12  O          8.5740   -3.7690   -0.0170 O.2     1  UNL1       -0.4540
     13  O          8.7530   -4.0490   -2.1910 O.2     1  UNL1       -0.4540
     14  C          8.9730   -4.7190   -0.9720 C.3     1  UNL1        0.4680
@<TRIPOS>BOND
     1     9     7    1
     2     9    11    2
     3     7     6    2
     4    13    11    1
     5    13    14    1
     6    11    10    1
     7    14    12    1
     8     6     5    1
     9     6     8    1
    10    10     8    2
    11    10    12    1
    12     5     1    1
    13     1     2    1
    14     2     4    2
    15     2     3    1
