@<TRIPOS>MOLECULE
/home/cewinharhar/GITHUB/reincatalyze/data/processed/docking_pred/2023-May-30-2130_sub9_nm5_bs15_s42_ex16_mel10_mts10000_k50_ec05_g099_lra3e-4_lrc3e-3/1c0c8a91d3eae7937fa2398dc61f909c50ab5738_ligand_9.pdbqt
 14 15 0 0 0
SMALL
GASTEIGER

@<TRIPOS>ATOM
      1  C          5.5180   -0.0040    1.9550 C.3     1  UNL1        0.0800
      2  C          4.6520    1.1700    1.6540 C.2     1  UNL1        0.1300
      3  C          4.9760    2.1180    0.5550 C.3     1  UNL1        0.0870
      4  O          3.6440    1.3890    2.3060 O.2     1  UNL1       -0.3000
      5  C          6.9460    0.2370    1.5070 C.3     1  UNL1        0.0430
      6  C          7.3600   -0.7180    0.4630 C.2     1  UNL1       -0.0440
      7  C          7.2540   -0.4080   -0.8970 C.2     1  UNL1        0.0080
      8  C          7.8660   -1.9460    0.8240 C.2     1  UNL1        0.0540
      9  C          7.6590   -1.3430   -1.8320 C.2     1  UNL1        0.0510
     10  C          8.2740   -2.8880   -0.1250 C.2     1  UNL1        0.1660
     11  C          8.1690   -2.5840   -1.4640 C.2     1  UNL1        0.1650
     12  O          8.8010   -4.1580   -0.0220 O.2     1  UNL1       -0.4540
     13  O          8.6400   -3.6850   -2.1630 O.2     1  UNL1       -0.4540
     14  C          9.1350   -4.6690   -1.2870 C.3     1  UNL1        0.4680
@<TRIPOS>BOND
     1    13    11    1
     2    13    14    1
     3     9    11    2
     4     9     7    1
     5    11    10    1
     6    14    12    1
     7     7     6    2
     8    10    12    1
     9    10     8    2
    10     6     8    1
    11     6     5    1
    12     3     2    1
    13     5     1    1
    14     2     1    1
    15     2     4    2
