MODEL 1
REMARK VINA RESULT:      -7.6      0.000      0.000
REMARK SMILES CC(=O)CCc1ccc2c(c1)OCO2
REMARK SMILES IDX 4 1 2 2 1 3 3 4 5 5 6 6 7 7 11 8 8 9 10 10 9 11 12 12 14 13
REMARK SMILES IDX 13 14
REMARK H PARENT
REMARK Flexibility Score: inf
ROOT
ATOM      1  C   UNL     1       5.566   1.877   1.285  1.00  0.00     0.080 C 
ENDROOT
BRANCH   1   2
ATOM      2  C   UNL     1       5.117   0.660   2.017  1.00  0.00     0.130 C 
ATOM      3  C   UNL     1       6.007  -0.518   2.195  1.00  0.00     0.087 C 
ATOM      4  O   UNL     1       3.996   0.595   2.496  1.00  0.00    -0.300 OA
ENDBRANCH   1   2
BRANCH   1   5
ATOM      5  C   UNL     1       5.428   1.700  -0.214  1.00  0.00     0.043 C 
BRANCH   5   6
ATOM      6  C   UNL     1       6.589   0.999  -0.791  1.00  0.00    -0.044 A 
ATOM      7  C   UNL     1       7.898   1.438  -0.563  1.00  0.00     0.008 A 
ATOM      8  C   UNL     1       6.392  -0.118  -1.572  1.00  0.00     0.054 A 
ATOM      9  C   UNL     1       8.948   0.740  -1.130  1.00  0.00     0.051 A 
ATOM     10  C   UNL     1       7.458  -0.821  -2.142  1.00  0.00     0.166 A 
ATOM     11  C   UNL     1       8.746  -0.388  -1.919  1.00  0.00     0.165 A 
ATOM     12  O   UNL     1       7.523  -1.940  -2.944  1.00  0.00    -0.454 OA
ATOM     13  O   UNL     1       9.585  -1.261  -2.595  1.00  0.00    -0.454 OA
ATOM     14  C   UNL     1       8.856  -2.312  -3.183  1.00  0.00     0.468 C 
ENDBRANCH   5   6
ENDBRANCH   1   5
TORSDOF 3
ENDMDL
MODEL 2
REMARK VINA RESULT:      -7.4      1.923      2.400
REMARK SMILES CC(=O)CCc1ccc2c(c1)OCO2
REMARK SMILES IDX 4 1 2 2 1 3 3 4 5 5 6 6 7 7 11 8 8 9 10 10 9 11 12 12 14 13
REMARK SMILES IDX 13 14
REMARK H PARENT
REMARK Flexibility Score: inf
ROOT
ATOM      1  C   UNL     1       5.772   1.247  -0.311  1.00  0.00     0.080 C 
ENDROOT
BRANCH   1   2
ATOM      2  C   UNL     1       5.243   1.200   1.081  1.00  0.00     0.130 C 
ATOM      3  C   UNL     1       5.424   0.002   1.945  1.00  0.00     0.087 C 
ATOM      4  O   UNL     1       4.642   2.150   1.556  1.00  0.00    -0.300 OA
ENDBRANCH   1   2
BRANCH   1   5
ATOM      5  C   UNL     1       7.276   1.058  -0.335  1.00  0.00     0.043 C 
BRANCH   5   6
ATOM      6  C   UNL     1       7.655  -0.237  -0.926  1.00  0.00    -0.044 A 
ATOM      7  C   UNL     1       7.767  -0.406  -2.311  1.00  0.00     0.008 A 
ATOM      8  C   UNL     1       7.910  -1.313  -0.106  1.00  0.00     0.054 A 
ATOM      9  C   UNL     1       8.128  -1.645  -2.809  1.00  0.00     0.051 A 
ATOM     10  C   UNL     1       8.274  -2.563  -0.615  1.00  0.00     0.166 A 
ATOM     11  C   UNL     1       8.384  -2.731  -1.977  1.00  0.00     0.165 A 
ATOM     12  O   UNL     1       8.574  -3.769  -0.017  1.00  0.00    -0.454 OA
ATOM     13  O   UNL     1       8.753  -4.049  -2.191  1.00  0.00    -0.454 OA
ATOM     14  C   UNL     1       8.973  -4.719  -0.972  1.00  0.00     0.468 C 
ENDBRANCH   5   6
ENDBRANCH   1   5
TORSDOF 3
ENDMDL
MODEL 3
REMARK VINA RESULT:      -7.2      2.078      2.618
REMARK SMILES CC(=O)CCc1ccc2c(c1)OCO2
REMARK SMILES IDX 4 1 2 2 1 3 3 4 5 5 6 6 7 7 11 8 8 9 10 10 9 11 12 12 14 13
REMARK SMILES IDX 13 14
REMARK H PARENT
REMARK Flexibility Score: inf
ROOT
ATOM      1  C   UNL     1       5.518  -0.004   1.955  1.00  0.00     0.080 C 
ENDROOT
BRANCH   1   2
ATOM      2  C   UNL     1       4.652   1.170   1.654  1.00  0.00     0.130 C 
ATOM      3  C   UNL     1       4.976   2.118   0.555  1.00  0.00     0.087 C 
ATOM      4  O   UNL     1       3.644   1.389   2.306  1.00  0.00    -0.300 OA
ENDBRANCH   1   2
BRANCH   1   5
ATOM      5  C   UNL     1       6.946   0.237   1.507  1.00  0.00     0.043 C 
BRANCH   5   6
ATOM      6  C   UNL     1       7.360  -0.718   0.463  1.00  0.00    -0.044 A 
ATOM      7  C   UNL     1       7.254  -0.408  -0.897  1.00  0.00     0.008 A 
ATOM      8  C   UNL     1       7.866  -1.946   0.824  1.00  0.00     0.054 A 
ATOM      9  C   UNL     1       7.659  -1.343  -1.832  1.00  0.00     0.051 A 
ATOM     10  C   UNL     1       8.274  -2.888  -0.125  1.00  0.00     0.166 A 
ATOM     11  C   UNL     1       8.169  -2.584  -1.464  1.00  0.00     0.165 A 
ATOM     12  O   UNL     1       8.801  -4.158  -0.022  1.00  0.00    -0.454 OA
ATOM     13  O   UNL     1       8.640  -3.685  -2.163  1.00  0.00    -0.454 OA
ATOM     14  C   UNL     1       9.135  -4.669  -1.287  1.00  0.00     0.468 C 
ENDBRANCH   5   6
ENDBRANCH   1   5
TORSDOF 3
ENDMDL
MODEL 4
REMARK VINA RESULT:      -7.1      1.231      1.417
REMARK SMILES CC(=O)CCc1ccc2c(c1)OCO2
REMARK SMILES IDX 4 1 2 2 1 3 3 4 5 5 6 6 7 7 11 8 8 9 10 10 9 11 12 12 14 13
REMARK SMILES IDX 13 14
REMARK H PARENT
REMARK Flexibility Score: inf
ROOT
ATOM      1  C   UNL     1       6.344   1.246   0.862  1.00  0.00     0.080 C 
ENDROOT
BRANCH   1   2
ATOM      2  C   UNL     1       5.662   0.436   1.910  1.00  0.00     0.130 C 
ATOM      3  C   UNL     1       6.284  -0.791   2.476  1.00  0.00     0.087 C 
ATOM      4  O   UNL     1       4.565   0.758   2.337  1.00  0.00    -0.300 OA
ENDBRANCH   1   2
BRANCH   1   5
ATOM      5  C   UNL     1       5.828   0.903  -0.521  1.00  0.00     0.043 C 
BRANCH   5   6
ATOM      6  C   UNL     1       6.798   0.094  -1.280  1.00  0.00    -0.044 A 
ATOM      7  C   UNL     1       7.518   0.630  -2.354  1.00  0.00     0.008 A 
ATOM      8  C   UNL     1       7.011  -1.220  -0.932  1.00  0.00     0.054 A 
ATOM      9  C   UNL     1       8.416  -0.177  -3.030  1.00  0.00     0.051 A 
ATOM     10  C   UNL     1       7.921  -2.032  -1.618  1.00  0.00     0.166 A 
ATOM     11  C   UNL     1       8.629  -1.505  -2.675  1.00  0.00     0.165 A 
ATOM     12  O   UNL     1       8.305  -3.347  -1.468  1.00  0.00    -0.454 OA
ATOM     13  O   UNL     1       9.442  -2.519  -3.157  1.00  0.00    -0.454 OA
ATOM     14  C   UNL     1       9.335  -3.677  -2.364  1.00  0.00     0.468 C 
ENDBRANCH   5   6
ENDBRANCH   1   5
TORSDOF 3
ENDMDL
MODEL 5
REMARK VINA RESULT:      -6.9      1.795      2.417
REMARK SMILES CC(=O)CCc1ccc2c(c1)OCO2
REMARK SMILES IDX 4 1 2 2 1 3 3 4 5 5 6 6 7 7 11 8 8 9 10 10 9 11 12 12 14 13
REMARK SMILES IDX 13 14
REMARK H PARENT
REMARK Flexibility Score: inf
ROOT
ATOM      1  C   UNL     1       6.604   0.981   1.273  1.00  0.00     0.080 C 
ENDROOT
BRANCH   1   2
ATOM      2  C   UNL     1       5.237   1.539   1.071  1.00  0.00     0.130 C 
ATOM      3  C   UNL     1       4.826   2.149  -0.221  1.00  0.00     0.087 C 
ATOM      4  O   UNL     1       4.411   1.511   1.969  1.00  0.00    -0.300 OA
ENDBRANCH   1   2
BRANCH   1   5
ATOM      5  C   UNL     1       7.480   1.221   0.060  1.00  0.00     0.043 C 
BRANCH   5   6
ATOM      6  C   UNL     1       7.742  -0.026  -0.681  1.00  0.00    -0.044 A 
ATOM      7  C   UNL     1       7.727  -0.064  -2.080  1.00  0.00     0.008 A 
ATOM      8  C   UNL     1       8.011  -1.186   0.009  1.00  0.00     0.054 A 
ATOM      9  C   UNL     1       7.981  -1.263  -2.721  1.00  0.00     0.051 A 
ATOM     10  C   UNL     1       8.267  -2.395  -0.643  1.00  0.00     0.166 A 
ATOM     11  C   UNL     1       8.252  -2.434  -2.020  1.00  0.00     0.165 A 
ATOM     12  O   UNL     1       8.555  -3.665  -0.190  1.00  0.00    -0.454 OA
ATOM     13  O   UNL     1       8.534  -3.741  -2.387  1.00  0.00    -0.454 OA
ATOM     14  C   UNL     1       8.823  -4.534  -1.261  1.00  0.00     0.468 C 
ENDBRANCH   5   6
ENDBRANCH   1   5
TORSDOF 3
ENDMDL
