@<TRIPOS>MOLECULE
/home/cewinharhar/GITHUB/reincatalyze/data/processed/docking_pred/2023-May-30-2130_sub9_nm5_bs15_s42_ex16_mel10_mts10000_k50_ec05_g099_lra3e-4_lrc3e-3/1c0c8a91d3eae7937fa2398dc61f909c50ab5738_ligand_9.pdbqt
 14 15 0 0 0
SMALL
GASTEIGER

@<TRIPOS>ATOM
      1  C          5.5660    1.8770    1.2850 C.3     1  UNL1        0.0800
      2  C          5.1170    0.6600    2.0170 C.2     1  UNL1        0.1300
      3  C          6.0070   -0.5180    2.1950 C.3     1  UNL1        0.0870
      4  O          3.9960    0.5950    2.4960 O.2     1  UNL1       -0.3000
      5  C          5.4280    1.7000   -0.2140 C.3     1  UNL1        0.0430
      6  C          6.5890    0.9990   -0.7910 C.2     1  UNL1       -0.0440
      7  C          7.8980    1.4380   -0.5630 C.2     1  UNL1        0.0080
      8  C          6.3920   -0.1180   -1.5720 C.2     1  UNL1        0.0540
      9  C          8.9480    0.7400   -1.1300 C.2     1  UNL1        0.0510
     10  C          7.4580   -0.8210   -2.1420 C.2     1  UNL1        0.1660
     11  C          8.7460   -0.3880   -1.9190 C.2     1  UNL1        0.1650
     12  O          7.5230   -1.9400   -2.9440 O.2     1  UNL1       -0.4540
     13  O          9.5850   -1.2610   -2.5950 O.2     1  UNL1       -0.4540
     14  C          8.8560   -2.3120   -3.1830 C.3     1  UNL1        0.4680
@<TRIPOS>BOND
     1    14    12    1
     2    14    13    1
     3    12    10    1
     4    13    11    1
     5    10    11    2
     6    10     8    1
     7    11     9    1
     8     8     6    2
     9     9     7    2
    10     6     7    1
    11     6     5    1
    12     5     1    1
    13     1     2    1
    14     2     3    1
    15     2     4    2
