@<TRIPOS>MOLECULE
/home/cewinharhar/GITHUB/reincatalyze/data/processed/docking_pred/2023-May-30-2130_sub9_nm5_bs15_s42_ex16_mel10_mts10000_k50_ec05_g099_lra3e-4_lrc3e-3/1c86ade130d2cc9f902dffb19ba95248752a952e_ligand_9.pdbqt
 14 15 0 0 0
SMALL
GASTEIGER

@<TRIPOS>ATOM
      1  C          6.9680    0.9410    1.2370 C.3     1  UNL1        0.0800
      2  C          5.5150    1.2100    1.4230 C.2     1  UNL1        0.1300
      3  C          4.7750    2.1500    0.5390 C.3     1  UNL1        0.0870
      4  O          4.8850    0.6630    2.3140 O.2     1  UNL1       -0.3000
      5  C          7.3730    1.0880   -0.2160 C.3     1  UNL1        0.0430
      6  C          7.6790   -0.2150   -0.8330 C.2     1  UNL1       -0.0440
      7  C          7.6570   -0.3920   -2.2210 C.2     1  UNL1        0.0080
      8  C          7.9970   -1.2900   -0.0340 C.2     1  UNL1        0.0540
      9  C          7.9530   -1.6380   -2.7440 C.2     1  UNL1        0.0510
     10  C          8.2960   -2.5470   -0.5680 C.2     1  UNL1        0.1660
     11  C          8.2740   -2.7230   -1.9330 C.2     1  UNL1        0.1650
     12  O          8.6360   -3.7540    0.0060 O.2     1  UNL1       -0.4540
     13  O          8.6050   -4.0470   -2.1730 O.2     1  UNL1       -0.4540
     14  C          8.9310   -4.7140   -0.9770 C.3     1  UNL1        0.4680
@<TRIPOS>BOND
     1     9     7    1
     2     9    11    2
     3     7     6    2
     4    13    11    1
     5    13    14    1
     6    11    10    1
     7    14    12    1
     8     6     5    1
     9     6     8    1
    10    10     8    2
    11    10    12    1
    12     5     1    1
    13     3     2    1
    14     1     2    1
    15     2     4    2
