@<TRIPOS>MOLECULE
/home/cewinharhar/GITHUB/reincatalyze/data/processed/docking_pred/2023-May-30-2130_sub9_nm5_bs15_s42_ex16_mel10_mts10000_k50_ec05_g099_lra3e-4_lrc3e-3/1c86ade130d2cc9f902dffb19ba95248752a952e_ligand_9.pdbqt
 14 15 0 0 0
SMALL
GASTEIGER

@<TRIPOS>ATOM
      1  C          5.4910   -0.0670    1.9380 C.3     1  UNL1        0.0800
      2  C          4.6550    1.1360    1.6700 C.2     1  UNL1        0.1300
      3  C          5.0000    2.1030    0.5950 C.3     1  UNL1        0.0870
      4  O          3.6550    1.3640    2.3320 O.2     1  UNL1       -0.3000
      5  C          6.9300    0.1590    1.5200 C.3     1  UNL1        0.0430
      6  C          7.3460   -0.7780    0.4610 C.2     1  UNL1       -0.0440
      7  C          7.2150   -0.4560   -0.8950 C.2     1  UNL1        0.0080
      8  C          7.8790   -2.0000    0.8020 C.2     1  UNL1        0.0540
      9  C          7.6230   -1.3750   -1.8450 C.2     1  UNL1        0.0510
     10  C          8.2900   -2.9250   -0.1620 C.2     1  UNL1        0.1660
     11  C          8.1610   -2.6100   -1.4960 C.2     1  UNL1        0.1650
     12  O          8.8400   -4.1870   -0.0800 O.2     1  UNL1       -0.4540
     13  O          8.6410   -3.6950   -2.2130 O.2     1  UNL1       -0.4540
     14  C          9.1650   -4.6790   -1.3540 C.3     1  UNL1        0.4680
@<TRIPOS>BOND
     1    13    11    1
     2    13    14    1
     3     9    11    2
     4     9     7    1
     5    11    10    1
     6    14    12    1
     7     7     6    2
     8    10    12    1
     9    10     8    2
    10     6     8    1
    11     6     5    1
    12     3     2    1
    13     5     1    1
    14     2     1    1
    15     2     4    2
