@<TRIPOS>MOLECULE
/home/cewinharhar/GITHUB/reincatalyze/data/processed/docking_pred/2023-May-30-2130_sub9_nm5_bs15_s42_ex16_mel10_mts10000_k50_ec05_g099_lra3e-4_lrc3e-3/1e16add1d5649bf0b13dd0d86c7d3fc630d89625_ligand_9.pdbqt
 14 15 0 0 0
SMALL
GASTEIGER

@<TRIPOS>ATOM
      1  C          5.7610    0.8290    0.4130 C.3     1  UNL1        0.0800
      2  C          5.4230    0.3300    1.7750 C.2     1  UNL1        0.1300
      3  C          6.2390   -0.7140    2.4500 C.3     1  UNL1        0.0870
      4  O          4.4570    0.7680    2.3810 O.2     1  UNL1       -0.3000
      5  C          7.2610    0.8430    0.1890 C.3     1  UNL1        0.0430
      6  C          7.6550   -0.0350   -0.9260 C.2     1  UNL1       -0.0440
      7  C          7.8430    0.4630   -2.2200 C.2     1  UNL1        0.0080
      8  C          7.8490   -1.3790   -0.7010 C.2     1  UNL1        0.0540
      9  C          8.2150   -0.4080   -3.2280 C.2     1  UNL1        0.0510
     10  C          8.2250   -2.2560   -1.7220 C.2     1  UNL1        0.1660
     11  C          8.4090   -1.7670   -2.9960 C.2     1  UNL1        0.1650
     12  O          8.4750   -3.6120   -1.7530 O.2     1  UNL1       -0.4540
     13  O          8.7730   -2.8430   -3.7910 O.2     1  UNL1       -0.4540
     14  C          8.9150   -4.0150   -3.0240 C.3     1  UNL1        0.4680
@<TRIPOS>BOND
     1    13    14    1
     2    13    11    1
     3     9    11    2
     4     9     7    1
     5    14    12    1
     6    11    10    1
     7     7     6    2
     8    12    10    1
     9    10     8    2
    10     6     8    1
    11     6     5    1
    12     5     1    1
    13     1     2    1
    14     2     4    2
    15     2     3    1
