@<TRIPOS>MOLECULE
/home/cewinharhar/GITHUB/reincatalyze/data/processed/docking_pred/2023-May-30-2130_sub9_nm5_bs15_s42_ex16_mel10_mts10000_k50_ec05_g099_lra3e-4_lrc3e-3/1e16add1d5649bf0b13dd0d86c7d3fc630d89625_ligand_9.pdbqt
 14 15 0 0 0
SMALL
GASTEIGER

@<TRIPOS>ATOM
      1  C          8.0350   -2.4670   -3.5340 C.3     1  UNL1        0.0800
      2  C          9.1510   -3.4410   -3.3800 C.2     1  UNL1        0.1300
      3  C          8.9030   -4.9050   -3.2980 C.3     1  UNL1        0.0870
      4  O         10.3090   -3.0620   -3.3160 O.2     1  UNL1       -0.3000
      5  C          8.4430   -1.0840   -3.0660 C.3     1  UNL1        0.0430
      6  C          7.6770   -0.6600   -1.8810 C.2     1  UNL1       -0.0440
      7  C          6.7900    0.4220   -1.9300 C.2     1  UNL1        0.0080
      8  C          7.8280   -1.3380   -0.6930 C.2     1  UNL1        0.0540
      9  C          6.0970    0.7740   -0.7850 C.2     1  UNL1        0.0510
     10  C          7.1250   -0.9790    0.4610 C.2     1  UNL1        0.1660
     11  C          6.2530    0.0860    0.4140 C.2     1  UNL1        0.1650
     12  O          7.1010   -1.4860    1.7430 O.2     1  UNL1       -0.4540
     13  O          5.7050    0.2120    1.6820 O.2     1  UNL1       -0.4540
     14  C          6.1470   -0.8210    2.5310 C.3     1  UNL1        0.4680
@<TRIPOS>BOND
     1     1     2    1
     2     1     5    1
     3     2     4    2
     4     2     3    1
     5     5     6    1
     6     7     6    2
     7     7     9    1
     8     6     8    1
     9     9    11    2
    10     8    10    2
    11    11    10    1
    12    11    13    1
    13    10    12    1
    14    13    14    1
    15    12    14    1
