MODEL 1
REMARK VINA RESULT:      -8.0      0.000      0.000
REMARK SMILES CC(=O)CCc1ccc2c(c1)OCO2
REMARK SMILES IDX 4 1 2 2 1 3 3 4 5 5 6 6 7 7 11 8 8 9 10 10 9 11 12 12 14 13
REMARK SMILES IDX 13 14
REMARK H PARENT
REMARK Flexibility Score: inf
ROOT
ATOM      1  C   UNL     1       6.006   1.634   1.136  1.00  0.00     0.080 C 
ENDROOT
BRANCH   1   2
ATOM      2  C   UNL     1       5.452   0.536   1.976  1.00  0.00     0.130 C 
ATOM      3  C   UNL     1       6.252  -0.673   2.309  1.00  0.00     0.087 C 
ATOM      4  O   UNL     1       4.316   0.598   2.419  1.00  0.00    -0.300 OA
ENDBRANCH   1   2
BRANCH   1   5
ATOM      5  C   UNL     1       5.727   1.395  -0.335  1.00  0.00     0.043 C 
BRANCH   5   6
ATOM      6  C   UNL     1       6.804   0.620  -0.977  1.00  0.00    -0.044 A 
ATOM      7  C   UNL     1       8.147   0.997  -0.862  1.00  0.00     0.008 A 
ATOM      8  C   UNL     1       6.493  -0.505  -1.706  1.00  0.00     0.054 A 
ATOM      9  C   UNL     1       9.115   0.230  -1.485  1.00  0.00     0.051 A 
ATOM     10  C   UNL     1       7.475  -1.278  -2.334  1.00  0.00     0.166 A 
ATOM     11  C   UNL     1       8.797  -0.906  -2.223  1.00  0.00     0.165 A 
ATOM     12  O   UNL     1       7.423  -2.420  -3.103  1.00  0.00    -0.454 OA
ATOM     13  O   UNL     1       9.536  -1.839  -2.933  1.00  0.00    -0.454 OA
ATOM     14  C   UNL     1       8.713  -2.867  -3.431  1.00  0.00     0.468 C 
ENDBRANCH   5   6
ENDBRANCH   1   5
TORSDOF 3
ENDMDL
MODEL 2
REMARK VINA RESULT:      -7.3      1.191      1.640
REMARK SMILES CC(=O)CCc1ccc2c(c1)OCO2
REMARK SMILES IDX 4 1 2 2 1 3 3 4 5 5 6 6 7 7 11 8 8 9 10 10 9 11 12 12 14 13
REMARK SMILES IDX 13 14
REMARK H PARENT
REMARK Flexibility Score: inf
ROOT
ATOM      1  C   UNL     1       5.932  -0.354   1.561  1.00  0.00     0.080 C 
ENDROOT
BRANCH   1   2
ATOM      2  C   UNL     1       5.006   0.807   1.680  1.00  0.00     0.130 C 
ATOM      3  C   UNL     1       5.121   1.992   0.788  1.00  0.00     0.087 C 
ATOM      4  O   UNL     1       4.120   0.819   2.519  1.00  0.00    -0.300 OA
ENDBRANCH   1   2
BRANCH   1   5
ATOM      5  C   UNL     1       7.328   0.093   1.173  1.00  0.00     0.043 C 
BRANCH   5   6
ATOM      6  C   UNL     1       7.685  -0.352  -0.186  1.00  0.00    -0.044 A 
ATOM      7  C   UNL     1       7.919   0.563  -1.219  1.00  0.00     0.008 A 
ATOM      8  C   UNL     1       7.797  -1.697  -0.457  1.00  0.00     0.054 A 
ATOM      9  C   UNL     1       8.252   0.088  -2.474  1.00  0.00     0.051 A 
ATOM     10  C   UNL     1       8.135  -2.172  -1.727  1.00  0.00     0.166 A 
ATOM     11  C   UNL     1       8.364  -1.273  -2.744  1.00  0.00     0.165 A 
ATOM     12  O   UNL     1       8.305  -3.440  -2.241  1.00  0.00    -0.454 OA
ATOM     13  O   UNL     1       8.674  -2.015  -3.873  1.00  0.00    -0.454 OA
ATOM     14  C   UNL     1       8.737  -3.389  -3.576  1.00  0.00     0.468 C 
ENDBRANCH   5   6
ENDBRANCH   1   5
TORSDOF 3
ENDMDL
MODEL 3
REMARK VINA RESULT:      -7.2      1.582      5.570
REMARK SMILES CC(=O)CCc1ccc2c(c1)OCO2
REMARK SMILES IDX 4 1 2 2 1 3 3 4 5 5 6 6 7 7 11 8 8 9 10 10 9 11 12 12 14 13
REMARK SMILES IDX 13 14
REMARK H PARENT
REMARK Flexibility Score: inf
ROOT
ATOM      1  C   UNL     1       8.093  -2.493  -3.520  1.00  0.00     0.080 C 
ENDROOT
BRANCH   1   2
ATOM      2  C   UNL     1       9.158  -3.524  -3.371  1.00  0.00     0.130 C 
ATOM      3  C   UNL     1       8.837  -4.974  -3.301  1.00  0.00     0.087 C 
ATOM      4  O   UNL     1      10.334  -3.205  -3.301  1.00  0.00    -0.300 OA
ENDBRANCH   1   2
BRANCH   1   5
ATOM      5  C   UNL     1       8.528  -1.164  -2.935  1.00  0.00     0.043 C 
BRANCH   5   6
ATOM      6  C   UNL     1       7.739  -0.808  -1.742  1.00  0.00    -0.044 A 
ATOM      7  C   UNL     1       7.751  -1.604  -0.591  1.00  0.00     0.008 A 
ATOM      8  C   UNL     1       6.971   0.334  -1.748  1.00  0.00     0.054 A 
ATOM      9  C   UNL     1       6.992  -1.220   0.499  1.00  0.00     0.051 A 
ATOM     10  C   UNL     1       6.206   0.719  -0.643  1.00  0.00     0.166 A 
ATOM     11  C   UNL     1       6.216  -0.065   0.489  1.00  0.00     0.165 A 
ATOM     12  O   UNL     1       5.372   1.791  -0.405  1.00  0.00    -0.454 OA
ATOM     13  O   UNL     1       5.380   0.549   1.409  1.00  0.00    -0.454 OA
ATOM     14  C   UNL     1       4.896   1.776   0.916  1.00  0.00     0.468 C 
ENDBRANCH   5   6
ENDBRANCH   1   5
TORSDOF 3
ENDMDL
MODEL 4
REMARK VINA RESULT:      -7.2      1.254      1.392
REMARK SMILES CC(=O)CCc1ccc2c(c1)OCO2
REMARK SMILES IDX 4 1 2 2 1 3 3 4 5 5 6 6 7 7 11 8 8 9 10 10 9 11 12 12 14 13
REMARK SMILES IDX 13 14
REMARK H PARENT
REMARK Flexibility Score: inf
ROOT
ATOM      1  C   UNL     1       5.761   0.829   0.413  1.00  0.00     0.080 C 
ENDROOT
BRANCH   1   2
ATOM      2  C   UNL     1       5.423   0.330   1.775  1.00  0.00     0.130 C 
ATOM      3  C   UNL     1       6.239  -0.714   2.450  1.00  0.00     0.087 C 
ATOM      4  O   UNL     1       4.457   0.768   2.381  1.00  0.00    -0.300 OA
ENDBRANCH   1   2
BRANCH   1   5
ATOM      5  C   UNL     1       7.261   0.843   0.189  1.00  0.00     0.043 C 
BRANCH   5   6
ATOM      6  C   UNL     1       7.655  -0.035  -0.926  1.00  0.00    -0.044 A 
ATOM      7  C   UNL     1       7.843   0.463  -2.220  1.00  0.00     0.008 A 
ATOM      8  C   UNL     1       7.849  -1.379  -0.701  1.00  0.00     0.054 A 
ATOM      9  C   UNL     1       8.215  -0.408  -3.228  1.00  0.00     0.051 A 
ATOM     10  C   UNL     1       8.225  -2.256  -1.722  1.00  0.00     0.166 A 
ATOM     11  C   UNL     1       8.409  -1.767  -2.996  1.00  0.00     0.165 A 
ATOM     12  O   UNL     1       8.475  -3.612  -1.753  1.00  0.00    -0.454 OA
ATOM     13  O   UNL     1       8.773  -2.843  -3.791  1.00  0.00    -0.454 OA
ATOM     14  C   UNL     1       8.915  -4.015  -3.024  1.00  0.00     0.468 C 
ENDBRANCH   5   6
ENDBRANCH   1   5
TORSDOF 3
ENDMDL
MODEL 5
REMARK VINA RESULT:      -7.1      1.592      5.437
REMARK SMILES CC(=O)CCc1ccc2c(c1)OCO2
REMARK SMILES IDX 4 1 2 2 1 3 3 4 5 5 6 6 7 7 11 8 8 9 10 10 9 11 12 12 14 13
REMARK SMILES IDX 13 14
REMARK H PARENT
REMARK Flexibility Score: inf
ROOT
ATOM      1  C   UNL     1       8.035  -2.467  -3.534  1.00  0.00     0.080 C 
ENDROOT
BRANCH   1   2
ATOM      2  C   UNL     1       9.151  -3.441  -3.380  1.00  0.00     0.130 C 
ATOM      3  C   UNL     1       8.903  -4.905  -3.298  1.00  0.00     0.087 C 
ATOM      4  O   UNL     1      10.309  -3.062  -3.316  1.00  0.00    -0.300 OA
ENDBRANCH   1   2
BRANCH   1   5
ATOM      5  C   UNL     1       8.443  -1.084  -3.066  1.00  0.00     0.043 C 
BRANCH   5   6
ATOM      6  C   UNL     1       7.677  -0.660  -1.881  1.00  0.00    -0.044 A 
ATOM      7  C   UNL     1       6.790   0.422  -1.930  1.00  0.00     0.008 A 
ATOM      8  C   UNL     1       7.828  -1.338  -0.693  1.00  0.00     0.054 A 
ATOM      9  C   UNL     1       6.097   0.774  -0.785  1.00  0.00     0.051 A 
ATOM     10  C   UNL     1       7.125  -0.979   0.461  1.00  0.00     0.166 A 
ATOM     11  C   UNL     1       6.253   0.086   0.414  1.00  0.00     0.165 A 
ATOM     12  O   UNL     1       7.101  -1.486   1.743  1.00  0.00    -0.454 OA
ATOM     13  O   UNL     1       5.705   0.212   1.682  1.00  0.00    -0.454 OA
ATOM     14  C   UNL     1       6.147  -0.821   2.531  1.00  0.00     0.468 C 
ENDBRANCH   5   6
ENDBRANCH   1   5
TORSDOF 3
ENDMDL
