@<TRIPOS>MOLECULE
/home/cewinharhar/GITHUB/reincatalyze/data/processed/docking_pred/2023-May-30-2130_sub9_nm5_bs15_s42_ex16_mel10_mts10000_k50_ec05_g099_lra3e-4_lrc3e-3/1e16add1d5649bf0b13dd0d86c7d3fc630d89625_ligand_9.pdbqt
 14 15 0 0 0
SMALL
GASTEIGER

@<TRIPOS>ATOM
      1  C          8.0930   -2.4930   -3.5200 C.3     1  UNL1        0.0800
      2  C          9.1580   -3.5240   -3.3710 C.2     1  UNL1        0.1300
      3  C          8.8370   -4.9740   -3.3010 C.3     1  UNL1        0.0870
      4  O         10.3340   -3.2050   -3.3010 O.2     1  UNL1       -0.3000
      5  C          8.5280   -1.1640   -2.9350 C.3     1  UNL1        0.0430
      6  C          7.7390   -0.8080   -1.7420 C.2     1  UNL1       -0.0440
      7  C          7.7510   -1.6040   -0.5910 C.2     1  UNL1        0.0080
      8  C          6.9710    0.3340   -1.7480 C.2     1  UNL1        0.0540
      9  C          6.9920   -1.2200    0.4990 C.2     1  UNL1        0.0510
     10  C          6.2060    0.7190   -0.6430 C.2     1  UNL1        0.1660
     11  C          6.2160   -0.0650    0.4890 C.2     1  UNL1        0.1650
     12  O          5.3720    1.7910   -0.4050 O.2     1  UNL1       -0.4540
     13  O          5.3800    0.5490    1.4090 O.2     1  UNL1       -0.4540
     14  C          4.8960    1.7760    0.9160 C.3     1  UNL1        0.4680
@<TRIPOS>BOND
     1     1     2    1
     2     1     5    1
     3     2     3    1
     4     2     4    2
     5     5     6    1
     6     8     6    2
     7     8    10    1
     8     6     7    1
     9    10    12    1
    10    10    11    2
    11     7     9    2
    12    12    14    1
    13    11     9    1
    14    11    13    1
    15    14    13    1
