@<TRIPOS>MOLECULE
/home/cewinharhar/GITHUB/reincatalyze/data/processed/docking_pred/2023-May-30-2130_sub9_nm5_bs15_s42_ex16_mel10_mts10000_k50_ec05_g099_lra3e-4_lrc3e-3/1e16add1d5649bf0b13dd0d86c7d3fc630d89625_ligand_9.pdbqt
 14 15 0 0 0
SMALL
GASTEIGER

@<TRIPOS>ATOM
      1  C          6.0060    1.6340    1.1360 C.3     1  UNL1        0.0800
      2  C          5.4520    0.5360    1.9760 C.2     1  UNL1        0.1300
      3  C          6.2520   -0.6730    2.3090 C.3     1  UNL1        0.0870
      4  O          4.3160    0.5980    2.4190 O.2     1  UNL1       -0.3000
      5  C          5.7270    1.3950   -0.3350 C.3     1  UNL1        0.0430
      6  C          6.8040    0.6200   -0.9770 C.2     1  UNL1       -0.0440
      7  C          8.1470    0.9970   -0.8620 C.2     1  UNL1        0.0080
      8  C          6.4930   -0.5050   -1.7060 C.2     1  UNL1        0.0540
      9  C          9.1150    0.2300   -1.4850 C.2     1  UNL1        0.0510
     10  C          7.4750   -1.2780   -2.3340 C.2     1  UNL1        0.1660
     11  C          8.7970   -0.9060   -2.2230 C.2     1  UNL1        0.1650
     12  O          7.4230   -2.4200   -3.1030 O.2     1  UNL1       -0.4540
     13  O          9.5360   -1.8390   -2.9330 O.2     1  UNL1       -0.4540
     14  C          8.7130   -2.8670   -3.4310 C.3     1  UNL1        0.4680
@<TRIPOS>BOND
     1    14    12    1
     2    14    13    1
     3    12    10    1
     4    13    11    1
     5    10    11    2
     6    10     8    1
     7    11     9    1
     8     8     6    2
     9     9     7    2
    10     6     7    1
    11     6     5    1
    12     5     1    1
    13     1     2    1
    14     2     3    1
    15     2     4    2
