@<TRIPOS>MOLECULE
/home/cewinharhar/GITHUB/reincatalyze/data/processed/docking_pred/2023-May-30-2130_sub9_nm5_bs15_s42_ex16_mel10_mts10000_k50_ec05_g099_lra3e-4_lrc3e-3/1e16add1d5649bf0b13dd0d86c7d3fc630d89625_ligand_9.pdbqt
 14 15 0 0 0
SMALL
GASTEIGER

@<TRIPOS>ATOM
      1  C          5.9320   -0.3540    1.5610 C.3     1  UNL1        0.0800
      2  C          5.0060    0.8070    1.6800 C.2     1  UNL1        0.1300
      3  C          5.1210    1.9920    0.7880 C.3     1  UNL1        0.0870
      4  O          4.1200    0.8190    2.5190 O.2     1  UNL1       -0.3000
      5  C          7.3280    0.0930    1.1730 C.3     1  UNL1        0.0430
      6  C          7.6850   -0.3520   -0.1860 C.2     1  UNL1       -0.0440
      7  C          7.9190    0.5630   -1.2190 C.2     1  UNL1        0.0080
      8  C          7.7970   -1.6970   -0.4570 C.2     1  UNL1        0.0540
      9  C          8.2520    0.0880   -2.4740 C.2     1  UNL1        0.0510
     10  C          8.1350   -2.1720   -1.7270 C.2     1  UNL1        0.1660
     11  C          8.3640   -1.2730   -2.7440 C.2     1  UNL1        0.1650
     12  O          8.3050   -3.4400   -2.2410 O.2     1  UNL1       -0.4540
     13  O          8.6740   -2.0150   -3.8730 O.2     1  UNL1       -0.4540
     14  C          8.7370   -3.3890   -3.5760 C.3     1  UNL1        0.4680
@<TRIPOS>BOND
     1    13    14    1
     2    13    11    1
     3    14    12    1
     4    11     9    2
     5    11    10    1
     6     9     7    1
     7    12    10    1
     8    10     8    2
     9     7     6    2
    10     8     6    1
    11     6     5    1
    12     3     2    1
    13     5     1    1
    14     1     2    1
    15     2     4    2
