@<TRIPOS>MOLECULE
/home/cewinharhar/GITHUB/reincatalyze/data/processed/docking_pred/2023-May-30-2130_sub9_nm5_bs15_s42_ex16_mel10_mts10000_k50_ec05_g099_lra3e-4_lrc3e-3/1e20ac6c45a20644dde897fa0fc5711864bcd284_ligand_9.pdbqt
 14 15 0 0 0
SMALL
GASTEIGER

@<TRIPOS>ATOM
      1  C          5.4390   -0.0480    2.0070 C.3     1  UNL1        0.0800
      2  C          4.5840    1.1460    1.7600 C.2     1  UNL1        0.1300
      3  C          4.9030    2.1270    0.6880 C.3     1  UNL1        0.0870
      4  O          3.5900    1.3560    2.4370 O.2     1  UNL1       -0.3000
      5  C          6.8700    0.2000    1.5730 C.3     1  UNL1        0.0430
      6  C          7.2910   -0.7360    0.5160 C.2     1  UNL1       -0.0440
      7  C          7.1630   -0.4150   -0.8410 C.2     1  UNL1        0.0080
      8  C          7.8260   -1.9570    0.8590 C.2     1  UNL1        0.0540
      9  C          7.5760   -1.3330   -1.7890 C.2     1  UNL1        0.0510
     10  C          8.2430   -2.8810   -0.1040 C.2     1  UNL1        0.1660
     11  C          8.1160   -2.5670   -1.4390 C.2     1  UNL1        0.1650
     12  O          8.7970   -4.1410   -0.0190 O.2     1  UNL1       -0.4540
     13  O          8.6010   -3.6510   -2.1530 O.2     1  UNL1       -0.4540
     14  C          9.1270   -4.6330   -1.2930 C.3     1  UNL1        0.4680
@<TRIPOS>BOND
     1    13    11    1
     2    13    14    1
     3     9    11    2
     4     9     7    1
     5    11    10    1
     6    14    12    1
     7     7     6    2
     8    10    12    1
     9    10     8    2
    10     6     8    1
    11     6     5    1
    12     3     2    1
    13     5     1    1
    14     2     1    1
    15     2     4    2
