MODEL 1
REMARK VINA RESULT:      -7.6      0.000      0.000
REMARK SMILES CC(=O)CCc1ccc2c(c1)OCO2
REMARK SMILES IDX 4 1 2 2 1 3 3 4 5 5 6 6 7 7 11 8 8 9 10 10 9 11 12 12 14 13
REMARK SMILES IDX 13 14
REMARK H PARENT
REMARK Flexibility Score: inf
ROOT
ATOM      1  C   UNL     1       5.555   1.910   1.272  1.00  0.00     0.080 C 
ENDROOT
BRANCH   1   2
ATOM      2  C   UNL     1       5.113   0.696   2.014  1.00  0.00     0.130 C 
ATOM      3  C   UNL     1       6.010  -0.476   2.198  1.00  0.00     0.087 C 
ATOM      4  O   UNL     1       3.993   0.629   2.494  1.00  0.00    -0.300 OA
ENDBRANCH   1   2
BRANCH   1   5
ATOM      5  C   UNL     1       5.420   1.720  -0.226  1.00  0.00     0.043 C 
BRANCH   5   6
ATOM      6  C   UNL     1       6.583   1.016  -0.794  1.00  0.00    -0.044 A 
ATOM      7  C   UNL     1       7.892   1.449  -0.553  1.00  0.00     0.008 A 
ATOM      8  C   UNL     1       6.389  -0.096  -1.582  1.00  0.00     0.054 A 
ATOM      9  C   UNL     1       8.945   0.748  -1.113  1.00  0.00     0.051 A 
ATOM     10  C   UNL     1       7.457  -0.801  -2.145  1.00  0.00     0.166 A 
ATOM     11  C   UNL     1       8.745  -0.376  -1.909  1.00  0.00     0.165 A 
ATOM     12  O   UNL     1       7.524  -1.918  -2.950  1.00  0.00    -0.454 OA
ATOM     13  O   UNL     1       9.586  -1.250  -2.580  1.00  0.00    -0.454 OA
ATOM     14  C   UNL     1       8.858  -2.295  -3.179  1.00  0.00     0.468 C 
ENDBRANCH   5   6
ENDBRANCH   1   5
TORSDOF 3
ENDMDL
MODEL 2
REMARK VINA RESULT:      -7.4      1.951      2.415
REMARK SMILES CC(=O)CCc1ccc2c(c1)OCO2
REMARK SMILES IDX 4 1 2 2 1 3 3 4 5 5 6 6 7 7 11 8 8 9 10 10 9 11 12 12 14 13
REMARK SMILES IDX 13 14
REMARK H PARENT
REMARK Flexibility Score: inf
ROOT
ATOM      1  C   UNL     1       5.782   1.360  -0.326  1.00  0.00     0.080 C 
ENDROOT
BRANCH   1   2
ATOM      2  C   UNL     1       5.096   1.297   0.995  1.00  0.00     0.130 C 
ATOM      3  C   UNL     1       5.364   0.199   1.962  1.00  0.00     0.087 C 
ATOM      4  O   UNL     1       4.287   2.150   1.322  1.00  0.00    -0.300 OA
ENDBRANCH   1   2
BRANCH   1   5
ATOM      5  C   UNL     1       7.263   1.065  -0.191  1.00  0.00     0.043 C 
BRANCH   5   6
ATOM      6  C   UNL     1       7.622  -0.223  -0.810  1.00  0.00    -0.044 A 
ATOM      7  C   UNL     1       7.660  -0.384  -2.199  1.00  0.00     0.008 A 
ATOM      8  C   UNL     1       7.931  -1.301  -0.011  1.00  0.00     0.054 A 
ATOM      9  C   UNL     1       8.005  -1.617  -2.723  1.00  0.00     0.051 A 
ATOM     10  C   UNL     1       8.279  -2.545  -0.545  1.00  0.00     0.166 A 
ATOM     11  C   UNL     1       8.316  -2.704  -1.912  1.00  0.00     0.165 A 
ATOM     12  O   UNL     1       8.622  -3.751   0.029  1.00  0.00    -0.454 OA
ATOM     13  O   UNL     1       8.686  -4.018  -2.152  1.00  0.00    -0.454 OA
ATOM     14  C   UNL     1       8.978  -4.692  -0.951  1.00  0.00     0.468 C 
ENDBRANCH   5   6
ENDBRANCH   1   5
TORSDOF 3
ENDMDL
MODEL 3
REMARK VINA RESULT:      -7.2      2.061      2.629
REMARK SMILES CC(=O)CCc1ccc2c(c1)OCO2
REMARK SMILES IDX 4 1 2 2 1 3 3 4 5 5 6 6 7 7 11 8 8 9 10 10 9 11 12 12 14 13
REMARK SMILES IDX 13 14
REMARK H PARENT
REMARK Flexibility Score: inf
ROOT
ATOM      1  C   UNL     1       5.439  -0.048   2.007  1.00  0.00     0.080 C 
ENDROOT
BRANCH   1   2
ATOM      2  C   UNL     1       4.584   1.146   1.760  1.00  0.00     0.130 C 
ATOM      3  C   UNL     1       4.903   2.127   0.688  1.00  0.00     0.087 C 
ATOM      4  O   UNL     1       3.590   1.356   2.437  1.00  0.00    -0.300 OA
ENDBRANCH   1   2
BRANCH   1   5
ATOM      5  C   UNL     1       6.870   0.200   1.573  1.00  0.00     0.043 C 
BRANCH   5   6
ATOM      6  C   UNL     1       7.291  -0.736   0.516  1.00  0.00    -0.044 A 
ATOM      7  C   UNL     1       7.163  -0.415  -0.841  1.00  0.00     0.008 A 
ATOM      8  C   UNL     1       7.826  -1.957   0.859  1.00  0.00     0.054 A 
ATOM      9  C   UNL     1       7.576  -1.333  -1.789  1.00  0.00     0.051 A 
ATOM     10  C   UNL     1       8.243  -2.881  -0.104  1.00  0.00     0.166 A 
ATOM     11  C   UNL     1       8.116  -2.567  -1.439  1.00  0.00     0.165 A 
ATOM     12  O   UNL     1       8.797  -4.141  -0.019  1.00  0.00    -0.454 OA
ATOM     13  O   UNL     1       8.601  -3.651  -2.153  1.00  0.00    -0.454 OA
ATOM     14  C   UNL     1       9.127  -4.633  -1.293  1.00  0.00     0.468 C 
ENDBRANCH   5   6
ENDBRANCH   1   5
TORSDOF 3
ENDMDL
MODEL 4
REMARK VINA RESULT:      -7.1      1.241      1.430
REMARK SMILES CC(=O)CCc1ccc2c(c1)OCO2
REMARK SMILES IDX 4 1 2 2 1 3 3 4 5 5 6 6 7 7 11 8 8 9 10 10 9 11 12 12 14 13
REMARK SMILES IDX 13 14
REMARK H PARENT
REMARK Flexibility Score: inf
ROOT
ATOM      1  C   UNL     1       6.342   1.223   0.876  1.00  0.00     0.080 C 
ENDROOT
BRANCH   1   2
ATOM      2  C   UNL     1       5.654   0.408   1.916  1.00  0.00     0.130 C 
ATOM      3  C   UNL     1       6.271  -0.822   2.479  1.00  0.00     0.087 C 
ATOM      4  O   UNL     1       4.554   0.728   2.337  1.00  0.00    -0.300 OA
ENDBRANCH   1   2
BRANCH   1   5
ATOM      5  C   UNL     1       5.825   0.895  -0.511  1.00  0.00     0.043 C 
BRANCH   5   6
ATOM      6  C   UNL     1       6.794   0.094  -1.280  1.00  0.00    -0.044 A 
ATOM      7  C   UNL     1       7.501   0.636  -2.359  1.00  0.00     0.008 A 
ATOM      8  C   UNL     1       7.018  -1.220  -0.936  1.00  0.00     0.054 A 
ATOM      9  C   UNL     1       8.398  -0.164  -3.043  1.00  0.00     0.051 A 
ATOM     10  C   UNL     1       7.926  -2.024  -1.630  1.00  0.00     0.166 A 
ATOM     11  C   UNL     1       8.622  -1.492  -2.693  1.00  0.00     0.165 A 
ATOM     12  O   UNL     1       8.320  -3.338  -1.486  1.00  0.00    -0.454 OA
ATOM     13  O   UNL     1       9.437  -2.499  -3.184  1.00  0.00    -0.454 OA
ATOM     14  C   UNL     1       9.344  -3.659  -2.392  1.00  0.00     0.468 C 
ENDBRANCH   5   6
ENDBRANCH   1   5
TORSDOF 3
ENDMDL
MODEL 5
REMARK VINA RESULT:      -7.0      1.896      2.570
REMARK SMILES CC(=O)CCc1ccc2c(c1)OCO2
REMARK SMILES IDX 4 1 2 2 1 3 3 4 5 5 6 6 7 7 11 8 8 9 10 10 9 11 12 12 14 13
REMARK SMILES IDX 13 14
REMARK H PARENT
REMARK Flexibility Score: inf
ROOT
ATOM      1  C   UNL     1       6.718   1.140   1.149  1.00  0.00     0.080 C 
ENDROOT
BRANCH   1   2
ATOM      2  C   UNL     1       5.372   1.677   0.807  1.00  0.00     0.130 C 
ATOM      3  C   UNL     1       5.045   2.150  -0.564  1.00  0.00     0.087 C 
ATOM      4  O   UNL     1       4.492   1.744   1.650  1.00  0.00    -0.300 OA
ENDBRANCH   1   2
BRANCH   1   5
ATOM      5  C   UNL     1       7.670   1.253  -0.025  1.00  0.00     0.043 C 
BRANCH   5   6
ATOM      6  C   UNL     1       7.875  -0.047  -0.690  1.00  0.00    -0.044 A 
ATOM      7  C   UNL     1       7.814  -0.175  -2.082  1.00  0.00     0.008 A 
ATOM      8  C   UNL     1       8.136  -1.166   0.067  1.00  0.00     0.054 A 
ATOM      9  C   UNL     1       8.015  -1.420  -2.650  1.00  0.00     0.051 A 
ATOM     10  C   UNL     1       8.339  -2.423  -0.513  1.00  0.00     0.166 A 
ATOM     11  C   UNL     1       8.277  -2.550  -1.882  1.00  0.00     0.165 A 
ATOM     12  O   UNL     1       8.608  -3.668   0.014  1.00  0.00    -0.454 OA
ATOM     13  O   UNL     1       8.514  -3.885  -2.171  1.00  0.00    -0.454 OA
ATOM     14  C   UNL     1       8.818  -4.612  -1.005  1.00  0.00     0.468 C 
ENDBRANCH   5   6
ENDBRANCH   1   5
TORSDOF 3
ENDMDL
