@<TRIPOS>MOLECULE
/home/cewinharhar/GITHUB/reincatalyze/data/processed/docking_pred/2023-May-30-2130_sub9_nm5_bs15_s42_ex16_mel10_mts10000_k50_ec05_g099_lra3e-4_lrc3e-3/1e8ffecbec14ce573bf52adb8829230239be76a8_ligand_9.pdbqt
 14 15 0 0 0
SMALL
GASTEIGER

@<TRIPOS>ATOM
      1  C          6.7860    0.6920    1.3440 C.3     1  UNL1        0.0800
      2  C          5.3570    1.0900    1.4720 C.2     1  UNL1        0.1300
      3  C          4.7590    2.1410    0.6050 C.3     1  UNL1        0.0870
      4  O          4.6310    0.5630    2.2980 O.2     1  UNL1       -0.3000
      5  C          7.3070    0.9500   -0.0560 C.3     1  UNL1        0.0430
      6  C          7.6940   -0.3000   -0.7340 C.2     1  UNL1       -0.0440
      7  C          7.8140   -0.3710   -2.1270 C.2     1  UNL1        0.0080
      8  C          7.9490   -1.4290    0.0100 C.2     1  UNL1        0.0540
      9  C          8.1820   -1.5710   -2.7080 C.2     1  UNL1        0.0510
     10  C          8.3220   -2.6390   -0.5830 C.2     1  UNL1        0.1660
     11  C          8.4380   -2.7110   -1.9530 C.2     1  UNL1        0.1650
     12  O          8.6230   -3.8830   -0.0700 O.2     1  UNL1       -0.4540
     13  O          8.8140   -4.0100   -2.2560 O.2     1  UNL1       -0.4540
     14  C          9.0310   -4.7620   -1.0860 C.3     1  UNL1        0.4680
@<TRIPOS>BOND
     1     9     7    1
     2     9    11    2
     3    13    11    1
     4    13    14    1
     5     7     6    2
     6    11    10    1
     7    14    12    1
     8     6     5    1
     9     6     8    1
    10    10    12    1
    11    10     8    2
    12     5     1    1
    13     3     2    1
    14     1     2    1
    15     2     4    2
