@<TRIPOS>MOLECULE
/home/cewinharhar/GITHUB/reincatalyze/data/processed/docking_pred/2023-May-30-2130_sub9_nm5_bs15_s42_ex16_mel10_mts10000_k50_ec05_g099_lra3e-4_lrc3e-3/1e8ffecbec14ce573bf52adb8829230239be76a8_ligand_9.pdbqt
 14 15 0 0 0
SMALL
GASTEIGER

@<TRIPOS>ATOM
      1  C          6.3900    1.2370    0.9050 C.3     1  UNL1        0.0800
      2  C          5.6990    0.3950    1.9210 C.2     1  UNL1        0.1300
      3  C          6.3480   -0.8060    2.5120 C.3     1  UNL1        0.0870
      4  O          4.5710    0.6680    2.2990 O.2     1  UNL1       -0.3000
      5  C          5.8810    0.9430   -0.4920 C.3     1  UNL1        0.0430
      6  C          6.8290    0.1100   -1.2550 C.2     1  UNL1       -0.0440
      7  C          7.5270    0.6170   -2.3570 C.2     1  UNL1        0.0080
      8  C          7.0420   -1.1970   -0.8810 C.2     1  UNL1        0.0540
      9  C          8.4040   -0.2110   -3.0340 C.2     1  UNL1        0.0510
     10  C          7.9310   -2.0300   -1.5680 C.2     1  UNL1        0.1660
     11  C          8.6170   -1.5320   -2.6540 C.2     1  UNL1        0.1650
     12  O          8.3100   -3.3440   -1.3970 O.2     1  UNL1       -0.4540
     13  O          9.4130   -2.5620   -3.1310 O.2     1  UNL1       -0.4540
     14  C          9.3170   -3.7010   -2.3090 C.3     1  UNL1        0.4680
@<TRIPOS>BOND
     1    13    11    1
     2    13    14    1
     3     9    11    2
     4     9     7    1
     5    11    10    1
     6     7     6    2
     7    14    12    1
     8    10    12    1
     9    10     8    2
    10     6     8    1
    11     6     5    1
    12     5     1    1
    13     1     2    1
    14     2     4    2
    15     2     3    1
