MODEL 1
REMARK VINA RESULT:      -7.6      0.000      0.000
REMARK SMILES CC(=O)CCc1ccc2c(c1)OCO2
REMARK SMILES IDX 4 1 2 2 1 3 3 4 5 5 6 6 7 7 11 8 8 9 10 10 9 11 12 12 14 13
REMARK SMILES IDX 13 14
REMARK H PARENT
REMARK Flexibility Score: inf
ROOT
ATOM      1  C   UNL     1       5.546   1.910   1.260  1.00  0.00     0.080 C 
ENDROOT
BRANCH   1   2
ATOM      2  C   UNL     1       5.100   0.703   2.010  1.00  0.00     0.130 C 
ATOM      3  C   UNL     1       5.989  -0.475   2.193  1.00  0.00     0.087 C 
ATOM      4  O   UNL     1       3.983   0.645   2.497  1.00  0.00    -0.300 OA
ENDBRANCH   1   2
BRANCH   1   5
ATOM      5  C   UNL     1       5.410   1.711  -0.236  1.00  0.00     0.043 C 
BRANCH   5   6
ATOM      6  C   UNL     1       6.578   1.012  -0.802  1.00  0.00    -0.044 A 
ATOM      7  C   UNL     1       7.884   1.452  -0.559  1.00  0.00     0.008 A 
ATOM      8  C   UNL     1       6.391  -0.102  -1.588  1.00  0.00     0.054 A 
ATOM      9  C   UNL     1       8.942   0.755  -1.116  1.00  0.00     0.051 A 
ATOM     10  C   UNL     1       7.464  -0.803  -2.149  1.00  0.00     0.166 A 
ATOM     11  C   UNL     1       8.749  -0.370  -1.911  1.00  0.00     0.165 A 
ATOM     12  O   UNL     1       7.538  -1.921  -2.953  1.00  0.00    -0.454 OA
ATOM     13  O   UNL     1       9.595  -1.241  -2.580  1.00  0.00    -0.454 OA
ATOM     14  C   UNL     1       8.874  -2.291  -3.178  1.00  0.00     0.468 C 
ENDBRANCH   5   6
ENDBRANCH   1   5
TORSDOF 3
ENDMDL
MODEL 2
REMARK VINA RESULT:      -7.4      1.875      2.338
REMARK SMILES CC(=O)CCc1ccc2c(c1)OCO2
REMARK SMILES IDX 4 1 2 2 1 3 3 4 5 5 6 6 7 7 11 8 8 9 10 10 9 11 12 12 14 13
REMARK SMILES IDX 13 14
REMARK H PARENT
REMARK Flexibility Score: inf
ROOT
ATOM      1  C   UNL     1       5.759   1.391  -0.276  1.00  0.00     0.080 C 
ENDROOT
BRANCH   1   2
ATOM      2  C   UNL     1       5.171   1.260   1.086  1.00  0.00     0.130 C 
ATOM      3  C   UNL     1       5.394   0.049   1.920  1.00  0.00     0.087 C 
ATOM      4  O   UNL     1       4.483   2.150   1.559  1.00  0.00    -0.300 OA
ENDBRANCH   1   2
BRANCH   1   5
ATOM      5  C   UNL     1       7.255   1.148  -0.255  1.00  0.00     0.043 C 
BRANCH   5   6
ATOM      6  C   UNL     1       7.609  -0.138  -0.881  1.00  0.00    -0.044 A 
ATOM      7  C   UNL     1       7.635  -0.294  -2.272  1.00  0.00     0.008 A 
ATOM      8  C   UNL     1       7.927  -1.218  -0.089  1.00  0.00     0.054 A 
ATOM      9  C   UNL     1       7.976  -1.524  -2.803  1.00  0.00     0.051 A 
ATOM     10  C   UNL     1       8.271  -2.460  -0.631  1.00  0.00     0.166 A 
ATOM     11  C   UNL     1       8.295  -2.614  -1.999  1.00  0.00     0.165 A 
ATOM     12  O   UNL     1       8.620  -3.668  -0.065  1.00  0.00    -0.454 OA
ATOM     13  O   UNL     1       8.664  -3.927  -2.247  1.00  0.00    -0.454 OA
ATOM     14  C   UNL     1       8.968  -4.605  -1.052  1.00  0.00     0.468 C 
ENDBRANCH   5   6
ENDBRANCH   1   5
TORSDOF 3
ENDMDL
MODEL 3
REMARK VINA RESULT:      -7.2      2.057      2.624
REMARK SMILES CC(=O)CCc1ccc2c(c1)OCO2
REMARK SMILES IDX 4 1 2 2 1 3 3 4 5 5 6 6 7 7 11 8 8 9 10 10 9 11 12 12 14 13
REMARK SMILES IDX 13 14
REMARK H PARENT
REMARK Flexibility Score: inf
ROOT
ATOM      1  C   UNL     1       5.423  -0.047   2.019  1.00  0.00     0.080 C 
ENDROOT
BRANCH   1   2
ATOM      2  C   UNL     1       4.566   1.145   1.768  1.00  0.00     0.130 C 
ATOM      3  C   UNL     1       4.900   2.137   0.711  1.00  0.00     0.087 C 
ATOM      4  O   UNL     1       3.558   1.342   2.427  1.00  0.00    -0.300 OA
ENDBRANCH   1   2
BRANCH   1   5
ATOM      5  C   UNL     1       6.856   0.206   1.595  1.00  0.00     0.043 C 
BRANCH   5   6
ATOM      6  C   UNL     1       7.285  -0.725   0.536  1.00  0.00    -0.044 A 
ATOM      7  C   UNL     1       7.168  -0.396  -0.820  1.00  0.00     0.008 A 
ATOM      8  C   UNL     1       7.817  -1.947   0.876  1.00  0.00     0.054 A 
ATOM      9  C   UNL     1       7.587  -1.309  -1.770  1.00  0.00     0.051 A 
ATOM     10  C   UNL     1       8.241  -2.867  -0.089  1.00  0.00     0.166 A 
ATOM     11  C   UNL     1       8.124  -2.545  -1.423  1.00  0.00     0.165 A 
ATOM     12  O   UNL     1       8.794  -4.127  -0.007  1.00  0.00    -0.454 OA
ATOM     13  O   UNL     1       8.615  -3.625  -2.140  1.00  0.00    -0.454 OA
ATOM     14  C   UNL     1       9.133  -4.612  -1.281  1.00  0.00     0.468 C 
ENDBRANCH   5   6
ENDBRANCH   1   5
TORSDOF 3
ENDMDL
MODEL 4
REMARK VINA RESULT:      -7.1      1.955      2.500
REMARK SMILES CC(=O)CCc1ccc2c(c1)OCO2
REMARK SMILES IDX 4 1 2 2 1 3 3 4 5 5 6 6 7 7 11 8 8 9 10 10 9 11 12 12 14 13
REMARK SMILES IDX 13 14
REMARK H PARENT
REMARK Flexibility Score: inf
ROOT
ATOM      1  C   UNL     1       6.786   0.692   1.344  1.00  0.00     0.080 C 
ENDROOT
BRANCH   1   2
ATOM      2  C   UNL     1       5.357   1.090   1.472  1.00  0.00     0.130 C 
ATOM      3  C   UNL     1       4.759   2.141   0.605  1.00  0.00     0.087 C 
ATOM      4  O   UNL     1       4.631   0.563   2.298  1.00  0.00    -0.300 OA
ENDBRANCH   1   2
BRANCH   1   5
ATOM      5  C   UNL     1       7.307   0.950  -0.056  1.00  0.00     0.043 C 
BRANCH   5   6
ATOM      6  C   UNL     1       7.694  -0.300  -0.734  1.00  0.00    -0.044 A 
ATOM      7  C   UNL     1       7.814  -0.371  -2.127  1.00  0.00     0.008 A 
ATOM      8  C   UNL     1       7.949  -1.429   0.010  1.00  0.00     0.054 A 
ATOM      9  C   UNL     1       8.182  -1.571  -2.708  1.00  0.00     0.051 A 
ATOM     10  C   UNL     1       8.322  -2.639  -0.583  1.00  0.00     0.166 A 
ATOM     11  C   UNL     1       8.438  -2.711  -1.953  1.00  0.00     0.165 A 
ATOM     12  O   UNL     1       8.623  -3.883  -0.070  1.00  0.00    -0.454 OA
ATOM     13  O   UNL     1       8.814  -4.010  -2.256  1.00  0.00    -0.454 OA
ATOM     14  C   UNL     1       9.031  -4.762  -1.086  1.00  0.00     0.468 C 
ENDBRANCH   5   6
ENDBRANCH   1   5
TORSDOF 3
ENDMDL
MODEL 5
REMARK VINA RESULT:      -7.1      1.250      1.453
REMARK SMILES CC(=O)CCc1ccc2c(c1)OCO2
REMARK SMILES IDX 4 1 2 2 1 3 3 4 5 5 6 6 7 7 11 8 8 9 10 10 9 11 12 12 14 13
REMARK SMILES IDX 13 14
REMARK H PARENT
REMARK Flexibility Score: inf
ROOT
ATOM      1  C   UNL     1       6.390   1.237   0.905  1.00  0.00     0.080 C 
ENDROOT
BRANCH   1   2
ATOM      2  C   UNL     1       5.699   0.395   1.921  1.00  0.00     0.130 C 
ATOM      3  C   UNL     1       6.348  -0.806   2.512  1.00  0.00     0.087 C 
ATOM      4  O   UNL     1       4.571   0.668   2.299  1.00  0.00    -0.300 OA
ENDBRANCH   1   2
BRANCH   1   5
ATOM      5  C   UNL     1       5.881   0.943  -0.492  1.00  0.00     0.043 C 
BRANCH   5   6
ATOM      6  C   UNL     1       6.829   0.110  -1.255  1.00  0.00    -0.044 A 
ATOM      7  C   UNL     1       7.527   0.617  -2.357  1.00  0.00     0.008 A 
ATOM      8  C   UNL     1       7.042  -1.197  -0.881  1.00  0.00     0.054 A 
ATOM      9  C   UNL     1       8.404  -0.211  -3.034  1.00  0.00     0.051 A 
ATOM     10  C   UNL     1       7.931  -2.030  -1.568  1.00  0.00     0.166 A 
ATOM     11  C   UNL     1       8.617  -1.532  -2.654  1.00  0.00     0.165 A 
ATOM     12  O   UNL     1       8.310  -3.344  -1.397  1.00  0.00    -0.454 OA
ATOM     13  O   UNL     1       9.413  -2.562  -3.131  1.00  0.00    -0.454 OA
ATOM     14  C   UNL     1       9.317  -3.701  -2.309  1.00  0.00     0.468 C 
ENDBRANCH   5   6
ENDBRANCH   1   5
TORSDOF 3
ENDMDL
