@<TRIPOS>MOLECULE
/home/cewinharhar/GITHUB/reincatalyze/data/processed/docking_pred/2023-May-30-2130_sub9_nm5_bs15_s42_ex16_mel10_mts10000_k50_ec05_g099_lra3e-4_lrc3e-3/1f774135605f6656ff2aa9e322f53f2a679c664c_ligand_9.pdbqt
 14 15 0 0 0
SMALL
GASTEIGER

@<TRIPOS>ATOM
      1  C          6.3440    1.2460    0.8620 C.3     1  UNL1        0.0800
      2  C          5.6620    0.4360    1.9100 C.2     1  UNL1        0.1300
      3  C          6.2840   -0.7910    2.4760 C.3     1  UNL1        0.0870
      4  O          4.5650    0.7580    2.3370 O.2     1  UNL1       -0.3000
      5  C          5.8280    0.9030   -0.5210 C.3     1  UNL1        0.0430
      6  C          6.7980    0.0940   -1.2800 C.2     1  UNL1       -0.0440
      7  C          7.5180    0.6300   -2.3540 C.2     1  UNL1        0.0080
      8  C          7.0110   -1.2200   -0.9320 C.2     1  UNL1        0.0540
      9  C          8.4160   -0.1770   -3.0300 C.2     1  UNL1        0.0510
     10  C          7.9210   -2.0320   -1.6180 C.2     1  UNL1        0.1660
     11  C          8.6290   -1.5050   -2.6750 C.2     1  UNL1        0.1650
     12  O          8.3050   -3.3470   -1.4680 O.2     1  UNL1       -0.4540
     13  O          9.4420   -2.5190   -3.1570 O.2     1  UNL1       -0.4540
     14  C          9.3350   -3.6770   -2.3640 C.3     1  UNL1        0.4680
@<TRIPOS>BOND
     1    13    11    1
     2    13    14    1
     3     9    11    2
     4     9     7    1
     5    11    10    1
     6    14    12    1
     7     7     6    2
     8    10    12    1
     9    10     8    2
    10     6     8    1
    11     6     5    1
    12     5     1    1
    13     1     2    1
    14     2     4    2
    15     2     3    1
