@<TRIPOS>MOLECULE
/home/cewinharhar/GITHUB/reincatalyze/data/processed/docking_pred/2023-May-30-2130_sub9_nm5_bs15_s42_ex16_mel10_mts10000_k50_ec05_g099_lra3e-4_lrc3e-3/1f774135605f6656ff2aa9e322f53f2a679c664c_ligand_9.pdbqt
 14 15 0 0 0
SMALL
GASTEIGER

@<TRIPOS>ATOM
      1  C          5.3300   -0.0610    1.9790 C.3     1  UNL1        0.0800
      2  C          4.4420    1.1200    1.7890 C.2     1  UNL1        0.1300
      3  C          4.7220    2.1500    0.7530 C.3     1  UNL1        0.0870
      4  O          3.4510    1.2780    2.4850 O.2     1  UNL1       -0.3000
      5  C          6.7920    0.3330    1.9070 C.3     1  UNL1        0.0430
      6  C          7.3910   -0.0290    0.6100 C.2     1  UNL1       -0.0440
      7  C          7.8820    0.9440   -0.2690 C.2     1  UNL1        0.0080
      8  C          7.4790   -1.3540    0.2450 C.2     1  UNL1        0.0540
      9  C          8.4350    0.5440   -1.4720 C.2     1  UNL1        0.0510
     10  C          8.0390   -1.7530   -0.9720 C.2     1  UNL1        0.1660
     11  C          8.5210   -0.7960   -1.8380 C.2     1  UNL1        0.1650
     12  O          8.2380   -2.9860   -1.5560 O.2     1  UNL1       -0.4540
     13  O          9.0110   -1.4680   -2.9460 O.2     1  UNL1       -0.4540
     14  C          8.9340   -2.8630   -2.7700 C.3     1  UNL1        0.4680
@<TRIPOS>BOND
     1    13    14    1
     2    13    11    1
     3    14    12    1
     4    11     9    2
     5    11    10    1
     6    12    10    1
     7     9     7    1
     8    10     8    2
     9     7     6    2
    10     8     6    1
    11     6     5    1
    12     3     2    1
    13     2     1    1
    14     2     4    2
    15     5     1    1
