@<TRIPOS>MOLECULE
/home/cewinharhar/GITHUB/reincatalyze/data/processed/docking_pred/2023-May-30-2130_sub9_nm5_bs15_s42_ex16_mel10_mts10000_k50_ec05_g099_lra3e-4_lrc3e-3/1f774135605f6656ff2aa9e322f53f2a679c664c_ligand_9.pdbqt
 14 15 0 0 0
SMALL
GASTEIGER

@<TRIPOS>ATOM
      1  C          5.5940    1.4460   -0.1560 C.3     1  UNL1        0.0800
      2  C          5.0150    1.2330    1.2000 C.2     1  UNL1        0.1300
      3  C          5.4650    0.1180    2.0740 C.3     1  UNL1        0.0870
      4  O          4.1480    1.9740    1.6340 O.2     1  UNL1       -0.3000
      5  C          7.0950    1.2330   -0.1540 C.3     1  UNL1        0.0430
      6  C          7.4630   -0.0660   -0.7430 C.2     1  UNL1       -0.0440
      7  C          7.4530   -0.2720   -2.1280 C.2     1  UNL1        0.0080
      8  C          7.8300   -1.1090    0.0770 C.2     1  UNL1        0.0540
      9  C          7.8100   -1.5130   -2.6240 C.2     1  UNL1        0.0510
     10  C          8.1900   -2.3610   -0.4290 C.2     1  UNL1        0.1660
     11  C          8.1790   -2.5650   -1.7910 C.2     1  UNL1        0.1650
     12  O          8.5850   -3.5380    0.1690 O.2     1  UNL1       -0.4540
     13  O          8.5730   -3.8760   -2.0030 O.2     1  UNL1       -0.4540
     14  C          8.9280   -4.5030   -0.7930 C.3     1  UNL1        0.4680
@<TRIPOS>BOND
     1     9     7    1
     2     9    11    2
     3     7     6    2
     4    13    11    1
     5    13    14    1
     6    11    10    1
     7    14    12    1
     8     6     5    1
     9     6     8    1
    10    10     8    2
    11    10    12    1
    12     1     5    1
    13     1     2    1
    14     2     4    2
    15     2     3    1
