@<TRIPOS>MOLECULE
/home/cewinharhar/GITHUB/reincatalyze/data/processed/docking_pred/2023-May-30-2130_sub9_nm5_bs15_s42_ex16_mel10_mts10000_k50_ec05_g099_lra3e-4_lrc3e-3/1fd5ec6d4a6889d2560636754963a08404c0587d_ligand_9.pdbqt
 14 15 0 0 0
SMALL
GASTEIGER

@<TRIPOS>ATOM
      1  C          6.1530   -0.3990    2.3010 C.3     1  UNL1        0.0800
      2  C          5.0890    0.5490    1.8680 C.2     1  UNL1        0.1300
      3  C          5.1990    1.3200    0.6010 C.3     1  UNL1        0.0870
      4  O          4.0890    0.7210    2.5470 O.2     1  UNL1       -0.3000
      5  C          7.4790   -0.0780    1.6400 C.3     1  UNL1        0.0430
      6  C          7.7770   -1.0070    0.5350 C.2     1  UNL1       -0.0440
      7  C          7.6690   -0.6120   -0.8030 C.2     1  UNL1        0.0080
      8  C          8.1750   -2.2940    0.8140 C.2     1  UNL1        0.0540
      9  C          7.9630   -1.5260   -1.7980 C.2     1  UNL1        0.0510
     10  C          8.4720   -3.2150   -0.1950 C.2     1  UNL1        0.1660
     11  C          8.3640   -2.8270   -1.5120 C.2     1  UNL1        0.1650
     12  O          8.8810   -4.5310   -0.1760 O.2     1  UNL1       -0.4540
     13  O          8.7140   -3.9250   -2.2830 O.2     1  UNL1       -0.4540
     14  C          9.1360   -4.9990   -1.4760 C.3     1  UNL1        0.4680
@<TRIPOS>BOND
     1    13    11    1
     2    13    14    1
     3     9    11    2
     4     9     7    1
     5    11    10    1
     6    14    12    1
     7     7     6    2
     8    10    12    1
     9    10     8    2
    10     6     8    1
    11     6     5    1
    12     3     2    1
    13     5     1    1
    14     2     1    1
    15     2     4    2
