@<TRIPOS>MOLECULE
/home/cewinharhar/GITHUB/reincatalyze/data/processed/docking_pred/2023-May-30-2130_sub9_nm5_bs15_s42_ex16_mel10_mts10000_k50_ec05_g099_lra3e-4_lrc3e-3/1fd5ec6d4a6889d2560636754963a08404c0587d_ligand_9.pdbqt
 14 15 0 0 0
SMALL
GASTEIGER

@<TRIPOS>ATOM
      1  C          5.9340    1.5440    1.2100 C.3     1  UNL1        0.0800
      2  C          5.4210    0.4160    2.0380 C.2     1  UNL1        0.1300
      3  C          6.2560   -0.7790    2.3330 C.3     1  UNL1        0.0870
      4  O          4.2920    0.4410    2.5000 O.2     1  UNL1       -0.3000
      5  C          5.6930    1.2980   -0.2660 C.3     1  UNL1        0.0430
      6  C          6.8390    0.6250   -0.9020 C.2     1  UNL1       -0.0440
      7  C          8.1160    1.1990   -0.9070 C.2     1  UNL1        0.0080
      8  C          6.6620   -0.5990   -1.5070 C.2     1  UNL1        0.0540
      9  C          9.1540    0.5210   -1.5190 C.2     1  UNL1        0.0510
     10  C          7.7150   -1.2810   -2.1240 C.2     1  UNL1        0.1660
     11  C          8.9710   -0.7160   -2.1300 C.2     1  UNL1        0.1650
     12  O          7.7940   -2.4890   -2.7830 O.2     1  UNL1       -0.4540
     13  O          9.8040   -1.5990   -2.7990 O.2     1  UNL1       -0.4540
     14  C          9.1190   -2.7770   -3.1510 C.3     1  UNL1        0.4680
@<TRIPOS>BOND
     1    14    13    1
     2    14    12    1
     3    13    11    1
     4    12    10    1
     5    11    10    2
     6    11     9    1
     7    10     8    1
     8     9     7    2
     9     8     6    2
    10     7     6    1
    11     6     5    1
    12     5     1    1
    13     1     2    1
    14     2     3    1
    15     2     4    2
