@<TRIPOS>MOLECULE
/home/cewinharhar/GITHUB/reincatalyze/data/processed/docking_pred/2023-May-30-2130_sub9_nm5_bs15_s42_ex16_mel10_mts10000_k50_ec05_g099_lra3e-4_lrc3e-3/1fd5ec6d4a6889d2560636754963a08404c0587d_ligand_9.pdbqt
 14 15 0 0 0
SMALL
GASTEIGER

@<TRIPOS>ATOM
      1  C          6.3620    1.2180    0.9040 C.3     1  UNL1        0.0800
      2  C          5.6580    0.3950    1.9270 C.2     1  UNL1        0.1300
      3  C          6.2660   -0.8400    2.4890 C.3     1  UNL1        0.0870
      4  O          4.5530    0.7140    2.3350 O.2     1  UNL1       -0.3000
      5  C          5.8530    0.9150   -0.4920 C.3     1  UNL1        0.0430
      6  C          6.8120    0.1000   -1.2580 C.2     1  UNL1       -0.0440
      7  C          7.5180    0.6280   -2.3460 C.2     1  UNL1        0.0080
      8  C          7.0290   -1.2120   -0.9040 C.2     1  UNL1        0.0540
      9  C          8.4060   -0.1840   -3.0270 C.2     1  UNL1        0.0510
     10  C          7.9290   -2.0290   -1.5960 C.2     1  UNL1        0.1660
     11  C          8.6230   -1.5100   -2.6670 C.2     1  UNL1        0.1650
     12  O          8.3140   -3.3440   -1.4430 O.2     1  UNL1       -0.4540
     13  O          9.4290   -2.5280   -3.1530 O.2     1  UNL1       -0.4540
     14  C          9.3320   -3.6800   -2.3500 C.3     1  UNL1        0.4680
@<TRIPOS>BOND
     1    13    11    1
     2    13    14    1
     3     9    11    2
     4     9     7    1
     5    11    10    1
     6    14    12    1
     7     7     6    2
     8    10    12    1
     9    10     8    2
    10     6     8    1
    11     6     5    1
    12     5     1    1
    13     1     2    1
    14     2     4    2
    15     2     3    1
