@<TRIPOS>MOLECULE
/home/cewinharhar/GITHUB/reincatalyze/data/processed/docking_pred/2023-May-30-2130_sub9_nm5_bs15_s42_ex16_mel10_mts10000_k50_ec05_g099_lra3e-4_lrc3e-3/1fd5ec6d4a6889d2560636754963a08404c0587d_ligand_9.pdbqt
 14 15 0 0 0
SMALL
GASTEIGER

@<TRIPOS>ATOM
      1  C          5.8300    0.9880   -0.2390 C.3     1  UNL1        0.0800
      2  C          5.8470    1.0710    1.2490 C.2     1  UNL1        0.1300
      3  C          5.2770   -0.0090    2.0980 C.3     1  UNL1        0.0870
      4  O          6.3320    2.0360    1.8170 O.2     1  UNL1       -0.3000
      5  C          7.2340    1.0440   -0.8090 C.3     1  UNL1        0.0430
      6  C          7.6890   -0.2800   -1.2710 C.2     1  UNL1       -0.0440
      7  C          7.9720   -0.5280   -2.6190 C.2     1  UNL1        0.0080
      8  C          7.8450   -1.3030   -0.3640 C.2     1  UNL1        0.0540
      9  C          8.3960   -1.7890   -2.9950 C.2     1  UNL1        0.0510
     10  C          8.2750   -2.5760   -0.7490 C.2     1  UNL1        0.1660
     11  C          8.5520   -2.8220   -2.0750 C.2     1  UNL1        0.1650
     12  O          8.5040   -3.7420   -0.0490 O.2     1  UNL1       -0.4540
     13  O          8.9510   -4.1460   -2.1630 O.2     1  UNL1       -0.4540
     14  C          9.0220   -4.7410   -0.8890 C.3     1  UNL1        0.4680
@<TRIPOS>BOND
     1     9     7    1
     2     9    11    2
     3     7     6    2
     4    13    11    1
     5    13    14    1
     6    11    10    1
     7     6     5    1
     8     6     8    1
     9    14    12    1
    10     5     1    1
    11    10     8    2
    12    10    12    1
    13     1     2    1
    14     2     4    2
    15     2     3    1
