@<TRIPOS>MOLECULE
/home/cewinharhar/GITHUB/reincatalyze/data/processed/docking_pred/2023-May-30-2130_sub9_nm5_bs15_s42_ex16_mel10_mts10000_k50_ec05_g099_lra3e-4_lrc3e-3/1fd5ec6d4a6889d2560636754963a08404c0587d_ligand_9.pdbqt
 14 15 0 0 0
SMALL
GASTEIGER

@<TRIPOS>ATOM
      1  C          5.8270    1.0670   -0.3050 C.3     1  UNL1        0.0800
      2  C          5.7450    1.2470    1.1720 C.2     1  UNL1        0.1300
      3  C          4.9160    0.3530    2.0230 C.3     1  UNL1        0.0870
      4  O          6.3610    2.1410    1.7290 O.2     1  UNL1       -0.3000
      5  C          7.2580    0.8460   -0.7540 C.3     1  UNL1        0.0430
      6  C          7.7150   -0.5250   -0.4640 C.2     1  UNL1       -0.0440
      7  C          7.9470   -0.9590    0.8460 C.2     1  UNL1        0.0080
      8  C          7.9210   -1.4080   -1.5000 C.2     1  UNL1        0.0540
      9  C          8.3750   -2.2580    1.0560 C.2     1  UNL1        0.0510
     10  C          8.3530   -2.7200   -1.2810 C.2     1  UNL1        0.1660
     11  C          8.5820   -3.1480    0.0070 C.2     1  UNL1        0.1650
     12  O          8.6260   -3.7730   -2.1290 O.2     1  UNL1       -0.4540
     13  O          8.9950   -4.4680   -0.0760 O.2     1  UNL1       -0.4540
     14  C          8.9500   -4.9320   -1.4050 C.3     1  UNL1        0.4680
@<TRIPOS>BOND
     1    12    14    1
     2    12    10    1
     3     8    10    1
     4     8     6    2
     5    14    13    1
     6    10    11    2
     7     5     6    1
     8     5     1    1
     9     6     7    1
    10     1     2    1
    11    13    11    1
    12    11     9    1
    13     7     9    2
    14     2     4    2
    15     2     3    1
