MODEL 1
REMARK VINA RESULT:      -7.2      0.000      0.000
REMARK SMILES CC(=O)CCc1ccc2c(c1)OCO2
REMARK SMILES IDX 4 1 2 2 1 3 3 4 5 5 6 6 7 7 11 8 8 9 10 10 9 11 12 12 14 13
REMARK SMILES IDX 13 14
REMARK H PARENT
REMARK Flexibility Score: inf
ROOT
ATOM      1  C   UNL     1       5.934   1.544   1.210  1.00  0.00     0.080 C 
ENDROOT
BRANCH   1   2
ATOM      2  C   UNL     1       5.421   0.416   2.038  1.00  0.00     0.130 C 
ATOM      3  C   UNL     1       6.256  -0.779   2.333  1.00  0.00     0.087 C 
ATOM      4  O   UNL     1       4.292   0.441   2.500  1.00  0.00    -0.300 OA
ENDBRANCH   1   2
BRANCH   1   5
ATOM      5  C   UNL     1       5.693   1.298  -0.266  1.00  0.00     0.043 C 
BRANCH   5   6
ATOM      6  C   UNL     1       6.839   0.625  -0.902  1.00  0.00    -0.044 A 
ATOM      7  C   UNL     1       8.116   1.199  -0.907  1.00  0.00     0.008 A 
ATOM      8  C   UNL     1       6.662  -0.599  -1.507  1.00  0.00     0.054 A 
ATOM      9  C   UNL     1       9.154   0.521  -1.519  1.00  0.00     0.051 A 
ATOM     10  C   UNL     1       7.715  -1.281  -2.124  1.00  0.00     0.166 A 
ATOM     11  C   UNL     1       8.971  -0.716  -2.130  1.00  0.00     0.165 A 
ATOM     12  O   UNL     1       7.794  -2.489  -2.783  1.00  0.00    -0.454 OA
ATOM     13  O   UNL     1       9.804  -1.599  -2.799  1.00  0.00    -0.454 OA
ATOM     14  C   UNL     1       9.119  -2.777  -3.151  1.00  0.00     0.468 C 
ENDBRANCH   5   6
ENDBRANCH   1   5
TORSDOF 3
ENDMDL
MODEL 2
REMARK VINA RESULT:      -7.2      1.045      1.055
REMARK SMILES CC(=O)CCc1ccc2c(c1)OCO2
REMARK SMILES IDX 4 1 2 2 1 3 3 4 5 5 6 6 7 7 11 8 8 9 10 10 9 11 12 12 14 13
REMARK SMILES IDX 13 14
REMARK H PARENT
REMARK Flexibility Score: inf
ROOT
ATOM      1  C   UNL     1       6.362   1.218   0.904  1.00  0.00     0.080 C 
ENDROOT
BRANCH   1   2
ATOM      2  C   UNL     1       5.658   0.395   1.927  1.00  0.00     0.130 C 
ATOM      3  C   UNL     1       6.266  -0.840   2.489  1.00  0.00     0.087 C 
ATOM      4  O   UNL     1       4.553   0.714   2.335  1.00  0.00    -0.300 OA
ENDBRANCH   1   2
BRANCH   1   5
ATOM      5  C   UNL     1       5.853   0.915  -0.492  1.00  0.00     0.043 C 
BRANCH   5   6
ATOM      6  C   UNL     1       6.812   0.100  -1.258  1.00  0.00    -0.044 A 
ATOM      7  C   UNL     1       7.518   0.628  -2.346  1.00  0.00     0.008 A 
ATOM      8  C   UNL     1       7.029  -1.212  -0.904  1.00  0.00     0.054 A 
ATOM      9  C   UNL     1       8.406  -0.184  -3.027  1.00  0.00     0.051 A 
ATOM     10  C   UNL     1       7.929  -2.029  -1.596  1.00  0.00     0.166 A 
ATOM     11  C   UNL     1       8.623  -1.510  -2.667  1.00  0.00     0.165 A 
ATOM     12  O   UNL     1       8.314  -3.344  -1.443  1.00  0.00    -0.454 OA
ATOM     13  O   UNL     1       9.429  -2.528  -3.153  1.00  0.00    -0.454 OA
ATOM     14  C   UNL     1       9.332  -3.680  -2.350  1.00  0.00     0.468 C 
ENDBRANCH   5   6
ENDBRANCH   1   5
TORSDOF 3
ENDMDL
MODEL 3
REMARK VINA RESULT:      -7.0      1.755      2.215
REMARK SMILES CC(=O)CCc1ccc2c(c1)OCO2
REMARK SMILES IDX 4 1 2 2 1 3 3 4 5 5 6 6 7 7 11 8 8 9 10 10 9 11 12 12 14 13
REMARK SMILES IDX 13 14
REMARK H PARENT
REMARK Flexibility Score: inf
ROOT
ATOM      1  C   UNL     1       5.830   0.988  -0.239  1.00  0.00     0.080 C 
ENDROOT
BRANCH   1   2
ATOM      2  C   UNL     1       5.847   1.071   1.249  1.00  0.00     0.130 C 
ATOM      3  C   UNL     1       5.277  -0.009   2.098  1.00  0.00     0.087 C 
ATOM      4  O   UNL     1       6.332   2.036   1.817  1.00  0.00    -0.300 OA
ENDBRANCH   1   2
BRANCH   1   5
ATOM      5  C   UNL     1       7.234   1.044  -0.809  1.00  0.00     0.043 C 
BRANCH   5   6
ATOM      6  C   UNL     1       7.689  -0.280  -1.271  1.00  0.00    -0.044 A 
ATOM      7  C   UNL     1       7.972  -0.528  -2.619  1.00  0.00     0.008 A 
ATOM      8  C   UNL     1       7.845  -1.303  -0.364  1.00  0.00     0.054 A 
ATOM      9  C   UNL     1       8.396  -1.789  -2.995  1.00  0.00     0.051 A 
ATOM     10  C   UNL     1       8.275  -2.576  -0.749  1.00  0.00     0.166 A 
ATOM     11  C   UNL     1       8.552  -2.822  -2.075  1.00  0.00     0.165 A 
ATOM     12  O   UNL     1       8.504  -3.742  -0.049  1.00  0.00    -0.454 OA
ATOM     13  O   UNL     1       8.951  -4.146  -2.163  1.00  0.00    -0.454 OA
ATOM     14  C   UNL     1       9.022  -4.741  -0.889  1.00  0.00     0.468 C 
ENDBRANCH   5   6
ENDBRANCH   1   5
TORSDOF 3
ENDMDL
MODEL 4
REMARK VINA RESULT:      -6.6      1.959      2.505
REMARK SMILES CC(=O)CCc1ccc2c(c1)OCO2
REMARK SMILES IDX 4 1 2 2 1 3 3 4 5 5 6 6 7 7 11 8 8 9 10 10 9 11 12 12 14 13
REMARK SMILES IDX 13 14
REMARK H PARENT
REMARK Flexibility Score: inf
ROOT
ATOM      1  C   UNL     1       6.153  -0.399   2.301  1.00  0.00     0.080 C 
ENDROOT
BRANCH   1   2
ATOM      2  C   UNL     1       5.089   0.549   1.868  1.00  0.00     0.130 C 
ATOM      3  C   UNL     1       5.199   1.320   0.601  1.00  0.00     0.087 C 
ATOM      4  O   UNL     1       4.089   0.721   2.547  1.00  0.00    -0.300 OA
ENDBRANCH   1   2
BRANCH   1   5
ATOM      5  C   UNL     1       7.479  -0.078   1.640  1.00  0.00     0.043 C 
BRANCH   5   6
ATOM      6  C   UNL     1       7.777  -1.007   0.535  1.00  0.00    -0.044 A 
ATOM      7  C   UNL     1       7.669  -0.612  -0.803  1.00  0.00     0.008 A 
ATOM      8  C   UNL     1       8.175  -2.294   0.814  1.00  0.00     0.054 A 
ATOM      9  C   UNL     1       7.963  -1.526  -1.798  1.00  0.00     0.051 A 
ATOM     10  C   UNL     1       8.472  -3.215  -0.195  1.00  0.00     0.166 A 
ATOM     11  C   UNL     1       8.364  -2.827  -1.512  1.00  0.00     0.165 A 
ATOM     12  O   UNL     1       8.881  -4.531  -0.176  1.00  0.00    -0.454 OA
ATOM     13  O   UNL     1       8.714  -3.925  -2.283  1.00  0.00    -0.454 OA
ATOM     14  C   UNL     1       9.136  -4.999  -1.476  1.00  0.00     0.468 C 
ENDBRANCH   5   6
ENDBRANCH   1   5
TORSDOF 3
ENDMDL
MODEL 5
REMARK VINA RESULT:      -6.4      2.064      2.475
REMARK SMILES CC(=O)CCc1ccc2c(c1)OCO2
REMARK SMILES IDX 4 1 2 2 1 3 3 4 5 5 6 6 7 7 11 8 8 9 10 10 9 11 12 12 14 13
REMARK SMILES IDX 13 14
REMARK H PARENT
REMARK Flexibility Score: inf
ROOT
ATOM      1  C   UNL     1       5.827   1.067  -0.305  1.00  0.00     0.080 C 
ENDROOT
BRANCH   1   2
ATOM      2  C   UNL     1       5.745   1.247   1.172  1.00  0.00     0.130 C 
ATOM      3  C   UNL     1       4.916   0.353   2.023  1.00  0.00     0.087 C 
ATOM      4  O   UNL     1       6.361   2.141   1.729  1.00  0.00    -0.300 OA
ENDBRANCH   1   2
BRANCH   1   5
ATOM      5  C   UNL     1       7.258   0.846  -0.754  1.00  0.00     0.043 C 
BRANCH   5   6
ATOM      6  C   UNL     1       7.715  -0.525  -0.464  1.00  0.00    -0.044 A 
ATOM      7  C   UNL     1       7.947  -0.959   0.846  1.00  0.00     0.008 A 
ATOM      8  C   UNL     1       7.921  -1.408  -1.500  1.00  0.00     0.054 A 
ATOM      9  C   UNL     1       8.375  -2.258   1.056  1.00  0.00     0.051 A 
ATOM     10  C   UNL     1       8.353  -2.720  -1.281  1.00  0.00     0.166 A 
ATOM     11  C   UNL     1       8.582  -3.148   0.007  1.00  0.00     0.165 A 
ATOM     12  O   UNL     1       8.626  -3.773  -2.129  1.00  0.00    -0.454 OA
ATOM     13  O   UNL     1       8.995  -4.468  -0.076  1.00  0.00    -0.454 OA
ATOM     14  C   UNL     1       8.950  -4.932  -1.405  1.00  0.00     0.468 C 
ENDBRANCH   5   6
ENDBRANCH   1   5
TORSDOF 3
ENDMDL
