@<TRIPOS>MOLECULE
/home/cewinharhar/GITHUB/reincatalyze/data/processed/docking_pred/2023-May-30-2130_sub9_nm5_bs15_s42_ex16_mel10_mts10000_k50_ec05_g099_lra3e-4_lrc3e-3/2037f81c995398ea407fbfc0a5ecaefc5001139a_ligand_9.pdbqt
 14 15 0 0 0
SMALL
GASTEIGER

@<TRIPOS>ATOM
      1  C          6.3730    1.2290    0.9180 C.3     1  UNL1        0.0800
      2  C          5.6660    0.4000    1.9330 C.2     1  UNL1        0.1300
      3  C          6.2890   -0.8150    2.5210 C.3     1  UNL1        0.0870
      4  O          4.5450    0.6980    2.3140 O.2     1  UNL1       -0.3000
      5  C          5.8650    0.9390   -0.4810 C.3     1  UNL1        0.0430
      6  C          6.8150    0.1120   -1.2470 C.2     1  UNL1       -0.0440
      7  C          7.5060    0.6230   -2.3520 C.2     1  UNL1        0.0080
      8  C          7.0380   -1.1930   -0.8740 C.2     1  UNL1        0.0540
      9  C          8.3850   -0.1990   -3.0320 C.2     1  UNL1        0.0510
     10  C          7.9290   -2.0200   -1.5640 C.2     1  UNL1        0.1660
     11  C          8.6080   -1.5190   -2.6520 C.2     1  UNL1        0.1650
     12  O          8.3180   -3.3320   -1.3940 O.2     1  UNL1       -0.4540
     13  O          9.4090   -2.5440   -3.1320 O.2     1  UNL1       -0.4540
     14  C          9.3240   -3.6830   -2.3090 C.3     1  UNL1        0.4680
@<TRIPOS>BOND
     1    13    11    1
     2    13    14    1
     3     9    11    2
     4     9     7    1
     5    11    10    1
     6     7     6    2
     7    14    12    1
     8    10    12    1
     9    10     8    2
    10     6     8    1
    11     6     5    1
    12     5     1    1
    13     1     2    1
    14     2     4    2
    15     2     3    1
