@<TRIPOS>MOLECULE
/home/cewinharhar/GITHUB/reincatalyze/data/processed/docking_pred/2023-May-30-2130_sub9_nm5_bs15_s42_ex16_mel10_mts10000_k50_ec05_g099_lra3e-4_lrc3e-3/2037f81c995398ea407fbfc0a5ecaefc5001139a_ligand_9.pdbqt
 14 15 0 0 0
SMALL
GASTEIGER

@<TRIPOS>ATOM
      1  C          5.4350   -0.0490    2.0060 C.3     1  UNL1        0.0800
      2  C          4.5830    1.1480    1.7610 C.2     1  UNL1        0.1300
      3  C          4.9050    2.1290    0.6900 C.3     1  UNL1        0.0870
      4  O          3.5890    1.3590    2.4370 O.2     1  UNL1       -0.3000
      5  C          6.8680    0.2000    1.5810 C.3     1  UNL1        0.0430
      6  C          7.2900   -0.7260    0.5140 C.2     1  UNL1       -0.0440
      7  C          7.1600   -0.3930   -0.8390 C.2     1  UNL1        0.0080
      8  C          7.8280   -1.9480    0.8450 C.2     1  UNL1        0.0540
      9  C          7.5730   -1.3010   -1.7960 C.2     1  UNL1        0.0510
     10  C          8.2460   -2.8630   -0.1260 C.2     1  UNL1        0.1660
     11  C          8.1170   -2.5370   -1.4580 C.2     1  UNL1        0.1650
     12  O          8.8030   -4.1220   -0.0540 O.2     1  UNL1       -0.4540
     13  O          8.6030   -3.6130   -2.1830 O.2     1  UNL1       -0.4540
     14  C          9.1320   -4.6020   -1.3320 C.3     1  UNL1        0.4680
@<TRIPOS>BOND
     1    13    11    1
     2    13    14    1
     3     9    11    2
     4     9     7    1
     5    11    10    1
     6    14    12    1
     7     7     6    2
     8    10    12    1
     9    10     8    2
    10     6     8    1
    11     6     5    1
    12     3     2    1
    13     5     1    1
    14     2     1    1
    15     2     4    2
