MODEL 1
REMARK VINA RESULT:      -7.6      0.000      0.000
REMARK SMILES CC(=O)CCc1ccc2c(c1)OCO2
REMARK SMILES IDX 4 1 2 2 1 3 3 4 5 5 6 6 7 7 11 8 8 9 10 10 9 11 12 12 14 13
REMARK SMILES IDX 13 14
REMARK H PARENT
REMARK Flexibility Score: inf
ROOT
ATOM      1  C   UNL     1       5.591   1.859   1.315  1.00  0.00     0.080 C 
ENDROOT
BRANCH   1   2
ATOM      2  C   UNL     1       5.141   0.641   2.046  1.00  0.00     0.130 C 
ATOM      3  C   UNL     1       6.029  -0.539   2.219  1.00  0.00     0.087 C 
ATOM      4  O   UNL     1       4.021   0.578   2.527  1.00  0.00    -0.300 OA
ENDBRANCH   1   2
BRANCH   1   5
ATOM      5  C   UNL     1       5.439   1.689  -0.183  1.00  0.00     0.043 C 
BRANCH   5   6
ATOM      6  C   UNL     1       6.597   0.996  -0.776  1.00  0.00    -0.044 A 
ATOM      7  C   UNL     1       7.905   1.450  -0.573  1.00  0.00     0.008 A 
ATOM      8  C   UNL     1       6.399  -0.126  -1.547  1.00  0.00     0.054 A 
ATOM      9  C   UNL     1       8.953   0.759  -1.153  1.00  0.00     0.051 A 
ATOM     10  C   UNL     1       7.462  -0.822  -2.132  1.00  0.00     0.166 A 
ATOM     11  C   UNL     1       8.749  -0.375  -1.933  1.00  0.00     0.165 A 
ATOM     12  O   UNL     1       7.525  -1.945  -2.928  1.00  0.00    -0.454 OA
ATOM     13  O   UNL     1       9.585  -1.243  -2.618  1.00  0.00    -0.454 OA
ATOM     14  C   UNL     1       8.857  -2.305  -3.188  1.00  0.00     0.468 C 
ENDBRANCH   5   6
ENDBRANCH   1   5
TORSDOF 3
ENDMDL
MODEL 2
REMARK VINA RESULT:      -7.4      1.905      2.352
REMARK SMILES CC(=O)CCc1ccc2c(c1)OCO2
REMARK SMILES IDX 4 1 2 2 1 3 3 4 5 5 6 6 7 7 11 8 8 9 10 10 9 11 12 12 14 13
REMARK SMILES IDX 13 14
REMARK H PARENT
REMARK Flexibility Score: inf
ROOT
ATOM      1  C   UNL     1       5.704   1.299  -0.250  1.00  0.00     0.080 C 
ENDROOT
BRANCH   1   2
ATOM      2  C   UNL     1       5.115   1.247   1.117  1.00  0.00     0.130 C 
ATOM      3  C   UNL     1       5.425   0.139   2.060  1.00  0.00     0.087 C 
ATOM      4  O   UNL     1       4.354   2.119   1.505  1.00  0.00    -0.300 OA
ENDBRANCH   1   2
BRANCH   1   5
ATOM      5  C   UNL     1       7.205   1.087  -0.211  1.00  0.00     0.043 C 
BRANCH   5   6
ATOM      6  C   UNL     1       7.593  -0.192  -0.832  1.00  0.00    -0.044 A 
ATOM      7  C   UNL     1       7.696  -0.330  -2.221  1.00  0.00     0.008 A 
ATOM      8  C   UNL     1       7.865  -1.282  -0.037  1.00  0.00     0.054 A 
ATOM      9  C   UNL     1       8.065  -1.555  -2.748  1.00  0.00     0.051 A 
ATOM     10  C   UNL     1       8.238  -2.517  -0.574  1.00  0.00     0.166 A 
ATOM     11  C   UNL     1       8.339  -2.655  -1.941  1.00  0.00     0.165 A 
ATOM     12  O   UNL     1       8.555  -3.732  -0.005  1.00  0.00    -0.454 OA
ATOM     13  O   UNL     1       8.720  -3.965  -2.185  1.00  0.00    -0.454 OA
ATOM     14  C   UNL     1       8.957  -4.658  -0.982  1.00  0.00     0.468 C 
ENDBRANCH   5   6
ENDBRANCH   1   5
TORSDOF 3
ENDMDL
MODEL 3
REMARK VINA RESULT:      -7.2      2.037      2.602
REMARK SMILES CC(=O)CCc1ccc2c(c1)OCO2
REMARK SMILES IDX 4 1 2 2 1 3 3 4 5 5 6 6 7 7 11 8 8 9 10 10 9 11 12 12 14 13
REMARK SMILES IDX 13 14
REMARK H PARENT
REMARK Flexibility Score: inf
ROOT
ATOM      1  C   UNL     1       5.435  -0.049   2.006  1.00  0.00     0.080 C 
ENDROOT
BRANCH   1   2
ATOM      2  C   UNL     1       4.583   1.148   1.761  1.00  0.00     0.130 C 
ATOM      3  C   UNL     1       4.905   2.129   0.690  1.00  0.00     0.087 C 
ATOM      4  O   UNL     1       3.589   1.359   2.437  1.00  0.00    -0.300 OA
ENDBRANCH   1   2
BRANCH   1   5
ATOM      5  C   UNL     1       6.868   0.200   1.581  1.00  0.00     0.043 C 
BRANCH   5   6
ATOM      6  C   UNL     1       7.290  -0.726   0.514  1.00  0.00    -0.044 A 
ATOM      7  C   UNL     1       7.160  -0.393  -0.839  1.00  0.00     0.008 A 
ATOM      8  C   UNL     1       7.828  -1.948   0.845  1.00  0.00     0.054 A 
ATOM      9  C   UNL     1       7.573  -1.301  -1.796  1.00  0.00     0.051 A 
ATOM     10  C   UNL     1       8.246  -2.863  -0.126  1.00  0.00     0.166 A 
ATOM     11  C   UNL     1       8.117  -2.537  -1.458  1.00  0.00     0.165 A 
ATOM     12  O   UNL     1       8.803  -4.122  -0.054  1.00  0.00    -0.454 OA
ATOM     13  O   UNL     1       8.603  -3.613  -2.183  1.00  0.00    -0.454 OA
ATOM     14  C   UNL     1       9.132  -4.602  -1.332  1.00  0.00     0.468 C 
ENDBRANCH   5   6
ENDBRANCH   1   5
TORSDOF 3
ENDMDL
MODEL 4
REMARK VINA RESULT:      -7.1      1.229      1.423
REMARK SMILES CC(=O)CCc1ccc2c(c1)OCO2
REMARK SMILES IDX 4 1 2 2 1 3 3 4 5 5 6 6 7 7 11 8 8 9 10 10 9 11 12 12 14 13
REMARK SMILES IDX 13 14
REMARK H PARENT
REMARK Flexibility Score: inf
ROOT
ATOM      1  C   UNL     1       6.373   1.229   0.918  1.00  0.00     0.080 C 
ENDROOT
BRANCH   1   2
ATOM      2  C   UNL     1       5.666   0.400   1.933  1.00  0.00     0.130 C 
ATOM      3  C   UNL     1       6.289  -0.815   2.521  1.00  0.00     0.087 C 
ATOM      4  O   UNL     1       4.545   0.698   2.314  1.00  0.00    -0.300 OA
ENDBRANCH   1   2
BRANCH   1   5
ATOM      5  C   UNL     1       5.865   0.939  -0.481  1.00  0.00     0.043 C 
BRANCH   5   6
ATOM      6  C   UNL     1       6.815   0.112  -1.247  1.00  0.00    -0.044 A 
ATOM      7  C   UNL     1       7.506   0.623  -2.352  1.00  0.00     0.008 A 
ATOM      8  C   UNL     1       7.038  -1.193  -0.874  1.00  0.00     0.054 A 
ATOM      9  C   UNL     1       8.385  -0.199  -3.032  1.00  0.00     0.051 A 
ATOM     10  C   UNL     1       7.929  -2.020  -1.564  1.00  0.00     0.166 A 
ATOM     11  C   UNL     1       8.608  -1.519  -2.652  1.00  0.00     0.165 A 
ATOM     12  O   UNL     1       8.318  -3.332  -1.394  1.00  0.00    -0.454 OA
ATOM     13  O   UNL     1       9.409  -2.544  -3.132  1.00  0.00    -0.454 OA
ATOM     14  C   UNL     1       9.324  -3.683  -2.309  1.00  0.00     0.468 C 
ENDBRANCH   5   6
ENDBRANCH   1   5
TORSDOF 3
ENDMDL
MODEL 5
REMARK VINA RESULT:      -6.8      1.177      5.181
REMARK SMILES CC(=O)CCc1ccc2c(c1)OCO2
REMARK SMILES IDX 4 1 2 2 1 3 3 4 5 5 6 6 7 7 11 8 8 9 10 10 9 11 12 12 14 13
REMARK SMILES IDX 13 14
REMARK H PARENT
REMARK Flexibility Score: inf
ROOT
ATOM      1  C   UNL     1       8.341   0.244  -2.584  1.00  0.00     0.080 C 
ENDROOT
BRANCH   1   2
ATOM      2  C   UNL     1       8.011  -1.203  -2.705  1.00  0.00     0.130 C 
ATOM      3  C   UNL     1       9.055  -2.219  -3.011  1.00  0.00     0.087 C 
ATOM      4  O   UNL     1       6.867  -1.600  -2.557  1.00  0.00    -0.300 OA
ENDBRANCH   1   2
BRANCH   1   5
ATOM      5  C   UNL     1       8.853   0.578  -1.197  1.00  0.00     0.043 C 
BRANCH   5   6
ATOM      6  C   UNL     1       7.798   0.441  -0.177  1.00  0.00    -0.044 A 
ATOM      7  C   UNL     1       7.878  -0.522   0.835  1.00  0.00     0.008 A 
ATOM      8  C   UNL     1       6.705   1.277  -0.210  1.00  0.00     0.054 A 
ATOM      9  C   UNL     1       6.858  -0.604   1.765  1.00  0.00     0.051 A 
ATOM     10  C   UNL     1       5.677   1.191   0.734  1.00  0.00     0.166 A 
ATOM     11  C   UNL     1       5.754   0.242   1.729  1.00  0.00     0.165 A 
ATOM     12  O   UNL     1       4.505   1.894   0.913  1.00  0.00    -0.454 OA
ATOM     13  O   UNL     1       4.616   0.385   2.507  1.00  0.00    -0.454 OA
ATOM     14  C   UNL     1       3.841   1.480   2.079  1.00  0.00     0.468 C 
ENDBRANCH   5   6
ENDBRANCH   1   5
TORSDOF 3
ENDMDL
