@<TRIPOS>MOLECULE
/home/cewinharhar/GITHUB/reincatalyze/data/processed/docking_pred/2023-May-30-2130_sub9_nm5_bs15_s42_ex16_mel10_mts10000_k50_ec05_g099_lra3e-4_lrc3e-3/2037f81c995398ea407fbfc0a5ecaefc5001139a_ligand_9.pdbqt
 14 15 0 0 0
SMALL
GASTEIGER

@<TRIPOS>ATOM
      1  C          5.7040    1.2990   -0.2500 C.3     1  UNL1        0.0800
      2  C          5.1150    1.2470    1.1170 C.2     1  UNL1        0.1300
      3  C          5.4250    0.1390    2.0600 C.3     1  UNL1        0.0870
      4  O          4.3540    2.1190    1.5050 O.2     1  UNL1       -0.3000
      5  C          7.2050    1.0870   -0.2110 C.3     1  UNL1        0.0430
      6  C          7.5930   -0.1920   -0.8320 C.2     1  UNL1       -0.0440
      7  C          7.6960   -0.3300   -2.2210 C.2     1  UNL1        0.0080
      8  C          7.8650   -1.2820   -0.0370 C.2     1  UNL1        0.0540
      9  C          8.0650   -1.5550   -2.7480 C.2     1  UNL1        0.0510
     10  C          8.2380   -2.5170   -0.5740 C.2     1  UNL1        0.1660
     11  C          8.3390   -2.6550   -1.9410 C.2     1  UNL1        0.1650
     12  O          8.5550   -3.7320   -0.0050 O.2     1  UNL1       -0.4540
     13  O          8.7200   -3.9650   -2.1850 O.2     1  UNL1       -0.4540
     14  C          8.9570   -4.6580   -0.9820 C.3     1  UNL1        0.4680
@<TRIPOS>BOND
     1     9     7    1
     2     9    11    2
     3     7     6    2
     4    13    11    1
     5    13    14    1
     6    11    10    1
     7    14    12    1
     8     6     5    1
     9     6     8    1
    10    10     8    2
    11    10    12    1
    12     1     5    1
    13     1     2    1
    14     2     4    2
    15     2     3    1
