@<TRIPOS>MOLECULE
/home/cewinharhar/GITHUB/reincatalyze/data/processed/docking_pred/2023-May-30-2130_sub9_nm5_bs15_s42_ex16_mel10_mts10000_k50_ec05_g099_lra3e-4_lrc3e-3/2037f81c995398ea407fbfc0a5ecaefc5001139a_ligand_9.pdbqt
 14 15 0 0 0
SMALL
GASTEIGER

@<TRIPOS>ATOM
      1  C          5.5910    1.8590    1.3150 C.3     1  UNL1        0.0800
      2  C          5.1410    0.6410    2.0460 C.2     1  UNL1        0.1300
      3  C          6.0290   -0.5390    2.2190 C.3     1  UNL1        0.0870
      4  O          4.0210    0.5780    2.5270 O.2     1  UNL1       -0.3000
      5  C          5.4390    1.6890   -0.1830 C.3     1  UNL1        0.0430
      6  C          6.5970    0.9960   -0.7760 C.2     1  UNL1       -0.0440
      7  C          7.9050    1.4500   -0.5730 C.2     1  UNL1        0.0080
      8  C          6.3990   -0.1260   -1.5470 C.2     1  UNL1        0.0540
      9  C          8.9530    0.7590   -1.1530 C.2     1  UNL1        0.0510
     10  C          7.4620   -0.8220   -2.1320 C.2     1  UNL1        0.1660
     11  C          8.7490   -0.3750   -1.9330 C.2     1  UNL1        0.1650
     12  O          7.5250   -1.9450   -2.9280 O.2     1  UNL1       -0.4540
     13  O          9.5850   -1.2430   -2.6180 O.2     1  UNL1       -0.4540
     14  C          8.8570   -2.3050   -3.1880 C.3     1  UNL1        0.4680
@<TRIPOS>BOND
     1    14    12    1
     2    14    13    1
     3    12    10    1
     4    13    11    1
     5    10    11    2
     6    10     8    1
     7    11     9    1
     8     8     6    2
     9     9     7    2
    10     6     7    1
    11     6     5    1
    12     5     1    1
    13     1     2    1
    14     2     3    1
    15     2     4    2
