@<TRIPOS>MOLECULE
/home/cewinharhar/GITHUB/reincatalyze/data/processed/docking_pred/2023-May-30-2130_sub9_nm5_bs15_s42_ex16_mel10_mts10000_k50_ec05_g099_lra3e-4_lrc3e-3/225d7738cc918e3754e3779366d54ccb252183f1_ligand_9.pdbqt
 14 15 0 0 0
SMALL
GASTEIGER

@<TRIPOS>ATOM
      1  C          5.5120    1.9140    1.2690 C.3     1  UNL1        0.0800
      2  C          5.0640    0.6990    2.0050 C.2     1  UNL1        0.1300
      3  C          5.9440   -0.4890    2.1600 C.3     1  UNL1        0.0870
      4  O          3.9520    0.6450    2.5050 O.2     1  UNL1       -0.3000
      5  C          5.3860    1.7280   -0.2300 C.3     1  UNL1        0.0430
      6  C          6.5550    1.0290   -0.7940 C.2     1  UNL1       -0.0440
      7  C          7.8610    1.4680   -0.5480 C.2     1  UNL1        0.0080
      8  C          6.3690   -0.0860   -1.5800 C.2     1  UNL1        0.0540
      9  C          8.9190    0.7720   -1.1030 C.2     1  UNL1        0.0510
     10  C          7.4430   -0.7870   -2.1380 C.2     1  UNL1        0.1660
     11  C          8.7280   -0.3540   -1.8980 C.2     1  UNL1        0.1650
     12  O          7.5190   -1.9040   -2.9420 O.2     1  UNL1       -0.4540
     13  O          9.5750   -1.2250   -2.5650 O.2     1  UNL1       -0.4540
     14  C          8.8550   -2.2750   -3.1650 C.3     1  UNL1        0.4680
@<TRIPOS>BOND
     1    14    12    1
     2    14    13    1
     3    12    10    1
     4    13    11    1
     5    10    11    2
     6    10     8    1
     7    11     9    1
     8     8     6    2
     9     9     7    2
    10     6     7    1
    11     6     5    1
    12     5     1    1
    13     1     2    1
    14     2     3    1
    15     2     4    2
