MODEL 1
REMARK VINA RESULT:      -7.7      0.000      0.000
REMARK SMILES CC(=O)CCc1ccc2c(c1)OCO2
REMARK SMILES IDX 4 1 2 2 1 3 3 4 5 5 6 6 7 7 11 8 8 9 10 10 9 11 12 12 14 13
REMARK SMILES IDX 13 14
REMARK H PARENT
REMARK Flexibility Score: inf
ROOT
ATOM      1  C   UNL     1       5.490   1.932   1.256  1.00  0.00     0.080 C 
ENDROOT
BRANCH   1   2
ATOM      2  C   UNL     1       5.046   0.717   1.995  1.00  0.00     0.130 C 
ATOM      3  C   UNL     1       5.923  -0.476   2.133  1.00  0.00     0.087 C 
ATOM      4  O   UNL     1       3.942   0.666   2.511  1.00  0.00    -0.300 OA
ENDBRANCH   1   2
BRANCH   1   5
ATOM      5  C   UNL     1       5.373   1.739  -0.243  1.00  0.00     0.043 C 
BRANCH   5   6
ATOM      6  C   UNL     1       6.547   1.041  -0.797  1.00  0.00    -0.044 A 
ATOM      7  C   UNL     1       7.851   1.474  -0.531  1.00  0.00     0.008 A 
ATOM      8  C   UNL     1       6.368  -0.067  -1.594  1.00  0.00     0.054 A 
ATOM      9  C   UNL     1       8.914   0.778  -1.077  1.00  0.00     0.051 A 
ATOM     10  C   UNL     1       7.446  -0.767  -2.144  1.00  0.00     0.166 A 
ATOM     11  C   UNL     1       8.729  -0.341  -1.884  1.00  0.00     0.165 A 
ATOM     12  O   UNL     1       7.529  -1.878  -2.956  1.00  0.00    -0.454 OA
ATOM     13  O   UNL     1       9.582  -1.209  -2.547  1.00  0.00    -0.454 OA
ATOM     14  C   UNL     1       8.866  -2.252  -3.165  1.00  0.00     0.468 C 
ENDBRANCH   5   6
ENDBRANCH   1   5
TORSDOF 3
ENDMDL
MODEL 2
REMARK VINA RESULT:      -7.4      1.896      2.345
REMARK SMILES CC(=O)CCc1ccc2c(c1)OCO2
REMARK SMILES IDX 4 1 2 2 1 3 3 4 5 5 6 6 7 7 11 8 8 9 10 10 9 11 12 12 14 13
REMARK SMILES IDX 13 14
REMARK H PARENT
REMARK Flexibility Score: inf
ROOT
ATOM      1  C   UNL     1       5.748   1.413  -0.287  1.00  0.00     0.080 C 
ENDROOT
BRANCH   1   2
ATOM      2  C   UNL     1       5.150   1.273   1.070  1.00  0.00     0.130 C 
ATOM      3  C   UNL     1       5.408   0.079   1.918  1.00  0.00     0.087 C 
ATOM      4  O   UNL     1       4.426   2.142   1.528  1.00  0.00    -0.300 OA
ENDBRANCH   1   2
BRANCH   1   5
ATOM      5  C   UNL     1       7.247   1.192  -0.253  1.00  0.00     0.043 C 
BRANCH   5   6
ATOM      6  C   UNL     1       7.625  -0.094  -0.865  1.00  0.00    -0.044 A 
ATOM      7  C   UNL     1       7.664  -0.262  -2.254  1.00  0.00     0.008 A 
ATOM      8  C   UNL     1       7.950  -1.163  -0.061  1.00  0.00     0.054 A 
ATOM      9  C   UNL     1       8.026  -1.492  -2.772  1.00  0.00     0.051 A 
ATOM     10  C   UNL     1       8.316  -2.405  -0.589  1.00  0.00     0.166 A 
ATOM     11  C   UNL     1       8.354  -2.571  -1.955  1.00  0.00     0.165 A 
ATOM     12  O   UNL     1       8.677  -3.602  -0.010  1.00  0.00    -0.454 OA
ATOM     13  O   UNL     1       8.743  -3.880  -2.189  1.00  0.00    -0.454 OA
ATOM     14  C   UNL     1       9.046  -4.543  -0.985  1.00  0.00     0.468 C 
ENDBRANCH   5   6
ENDBRANCH   1   5
TORSDOF 3
ENDMDL
MODEL 3
REMARK VINA RESULT:      -7.2      2.055      2.643
REMARK SMILES CC(=O)CCc1ccc2c(c1)OCO2
REMARK SMILES IDX 4 1 2 2 1 3 3 4 5 5 6 6 7 7 11 8 8 9 10 10 9 11 12 12 14 13
REMARK SMILES IDX 13 14
REMARK H PARENT
REMARK Flexibility Score: inf
ROOT
ATOM      1  C   UNL     1       5.368  -0.098   2.020  1.00  0.00     0.080 C 
ENDROOT
BRANCH   1   2
ATOM      2  C   UNL     1       4.536   1.112   1.775  1.00  0.00     0.130 C 
ATOM      3  C   UNL     1       4.899   2.112   0.735  1.00  0.00     0.087 C 
ATOM      4  O   UNL     1       3.525   1.320   2.426  1.00  0.00    -0.300 OA
ENDBRANCH   1   2
BRANCH   1   5
ATOM      5  C   UNL     1       6.815   0.141   1.636  1.00  0.00     0.043 C 
BRANCH   5   6
ATOM      6  C   UNL     1       7.253  -0.767   0.561  1.00  0.00    -0.044 A 
ATOM      7  C   UNL     1       7.124  -0.420  -0.789  1.00  0.00     0.008 A 
ATOM      8  C   UNL     1       7.805  -1.986   0.881  1.00  0.00     0.054 A 
ATOM      9  C   UNL     1       7.554  -1.312  -1.754  1.00  0.00     0.051 A 
ATOM     10  C   UNL     1       8.238  -2.885  -0.099  1.00  0.00     0.166 A 
ATOM     11  C   UNL     1       8.111  -2.545  -1.428  1.00  0.00     0.165 A 
ATOM     12  O   UNL     1       8.810  -4.138  -0.039  1.00  0.00    -0.454 OA
ATOM     13  O   UNL     1       8.613  -3.607  -2.163  1.00  0.00    -0.454 OA
ATOM     14  C   UNL     1       9.150  -4.599  -1.321  1.00  0.00     0.468 C 
ENDBRANCH   5   6
ENDBRANCH   1   5
TORSDOF 3
ENDMDL
MODEL 4
REMARK VINA RESULT:      -7.1      1.262      1.481
REMARK SMILES CC(=O)CCc1ccc2c(c1)OCO2
REMARK SMILES IDX 4 1 2 2 1 3 3 4 5 5 6 6 7 7 11 8 8 9 10 10 9 11 12 12 14 13
REMARK SMILES IDX 13 14
REMARK H PARENT
REMARK Flexibility Score: inf
ROOT
ATOM      1  C   UNL     1       6.377   1.237   0.903  1.00  0.00     0.080 C 
ENDROOT
BRANCH   1   2
ATOM      2  C   UNL     1       5.667   0.410   1.919  1.00  0.00     0.130 C 
ATOM      3  C   UNL     1       6.290  -0.802   2.513  1.00  0.00     0.087 C 
ATOM      4  O   UNL     1       4.544   0.707   2.294  1.00  0.00    -0.300 OA
ENDBRANCH   1   2
BRANCH   1   5
ATOM      5  C   UNL     1       5.874   0.943  -0.496  1.00  0.00     0.043 C 
BRANCH   5   6
ATOM      6  C   UNL     1       6.826   0.113  -1.256  1.00  0.00    -0.044 A 
ATOM      7  C   UNL     1       7.530   0.622  -2.353  1.00  0.00     0.008 A 
ATOM      8  C   UNL     1       7.037  -1.196  -0.884  1.00  0.00     0.054 A 
ATOM      9  C   UNL     1       8.410  -0.204  -3.027  1.00  0.00     0.051 A 
ATOM     10  C   UNL     1       7.929  -2.027  -1.569  1.00  0.00     0.166 A 
ATOM     11  C   UNL     1       8.621  -1.527  -2.650  1.00  0.00     0.165 A 
ATOM     12  O   UNL     1       8.307  -3.341  -1.399  1.00  0.00    -0.454 OA
ATOM     13  O   UNL     1       9.419  -2.555  -3.125  1.00  0.00    -0.454 OA
ATOM     14  C   UNL     1       9.319  -3.696  -2.307  1.00  0.00     0.468 C 
ENDBRANCH   5   6
ENDBRANCH   1   5
TORSDOF 3
ENDMDL
MODEL 5
REMARK VINA RESULT:      -7.1      1.992      2.522
REMARK SMILES CC(=O)CCc1ccc2c(c1)OCO2
REMARK SMILES IDX 4 1 2 2 1 3 3 4 5 5 6 6 7 7 11 8 8 9 10 10 9 11 12 12 14 13
REMARK SMILES IDX 13 14
REMARK H PARENT
REMARK Flexibility Score: inf
ROOT
ATOM      1  C   UNL     1       6.736   0.766   1.502  1.00  0.00     0.080 C 
ENDROOT
BRANCH   1   2
ATOM      2  C   UNL     1       5.299   1.157   1.504  1.00  0.00     0.130 C 
ATOM      3  C   UNL     1       4.758   2.147   0.535  1.00  0.00     0.087 C 
ATOM      4  O   UNL     1       4.519   0.673   2.309  1.00  0.00    -0.300 OA
ENDBRANCH   1   2
BRANCH   1   5
ATOM      5  C   UNL     1       7.375   1.025   0.152  1.00  0.00     0.043 C 
BRANCH   5   6
ATOM      6  C   UNL     1       7.693  -0.231  -0.552  1.00  0.00    -0.044 A 
ATOM      7  C   UNL     1       7.683  -0.310  -1.949  1.00  0.00     0.008 A 
ATOM      8  C   UNL     1       8.012  -1.357   0.172  1.00  0.00     0.054 A 
ATOM      9  C   UNL     1       7.991  -1.515  -2.555  1.00  0.00     0.051 A 
ATOM     10  C   UNL     1       8.323  -2.572  -0.445  1.00  0.00     0.166 A 
ATOM     11  C   UNL     1       8.312  -2.652  -1.820  1.00  0.00     0.165 A 
ATOM     12  O   UNL     1       8.666  -3.814   0.045  1.00  0.00    -0.454 OA
ATOM     13  O   UNL     1       8.654  -3.954  -2.149  1.00  0.00    -0.454 OA
ATOM     14  C   UNL     1       8.975  -4.701  -0.999  1.00  0.00     0.468 C 
ENDBRANCH   5   6
ENDBRANCH   1   5
TORSDOF 3
ENDMDL
