@<TRIPOS>MOLECULE
/home/cewinharhar/GITHUB/reincatalyze/data/processed/docking_pred/2023-May-30-2130_sub9_nm5_bs15_s42_ex16_mel10_mts10000_k50_ec05_g099_lra3e-4_lrc3e-3/2368d29bb7bbfa5e31d33bb3936e2ea89938fe66_ligand_9.pdbqt
 14 15 0 0 0
SMALL
GASTEIGER

@<TRIPOS>ATOM
      1  C          6.7360    0.7660    1.5020 C.3     1  UNL1        0.0800
      2  C          5.2990    1.1570    1.5040 C.2     1  UNL1        0.1300
      3  C          4.7580    2.1470    0.5350 C.3     1  UNL1        0.0870
      4  O          4.5190    0.6730    2.3090 O.2     1  UNL1       -0.3000
      5  C          7.3750    1.0250    0.1520 C.3     1  UNL1        0.0430
      6  C          7.6930   -0.2310   -0.5520 C.2     1  UNL1       -0.0440
      7  C          7.6830   -0.3100   -1.9490 C.2     1  UNL1        0.0080
      8  C          8.0120   -1.3570    0.1720 C.2     1  UNL1        0.0540
      9  C          7.9910   -1.5150   -2.5550 C.2     1  UNL1        0.0510
     10  C          8.3230   -2.5720   -0.4450 C.2     1  UNL1        0.1660
     11  C          8.3120   -2.6520   -1.8200 C.2     1  UNL1        0.1650
     12  O          8.6660   -3.8140    0.0450 O.2     1  UNL1       -0.4540
     13  O          8.6540   -3.9540   -2.1490 O.2     1  UNL1       -0.4540
     14  C          8.9750   -4.7010   -0.9990 C.3     1  UNL1        0.4680
@<TRIPOS>BOND
     1     9     7    1
     2     9    11    2
     3    13    11    1
     4    13    14    1
     5     7     6    2
     6    11    10    1
     7    14    12    1
     8     6     5    1
     9     6     8    1
    10    10    12    1
    11    10     8    2
    12     5     1    1
    13     3     2    1
    14     1     2    1
    15     2     4    2
