@<TRIPOS>MOLECULE
/home/cewinharhar/GITHUB/reincatalyze/data/processed/docking_pred/2023-May-30-2130_sub9_nm5_bs15_s42_ex16_mel10_mts10000_k50_ec05_g099_lra3e-4_lrc3e-3/2368d29bb7bbfa5e31d33bb3936e2ea89938fe66_ligand_9.pdbqt
 14 15 0 0 0
SMALL
GASTEIGER

@<TRIPOS>ATOM
      1  C          5.4900    1.9320    1.2560 C.3     1  UNL1        0.0800
      2  C          5.0460    0.7170    1.9950 C.2     1  UNL1        0.1300
      3  C          5.9230   -0.4760    2.1330 C.3     1  UNL1        0.0870
      4  O          3.9420    0.6660    2.5110 O.2     1  UNL1       -0.3000
      5  C          5.3730    1.7390   -0.2430 C.3     1  UNL1        0.0430
      6  C          6.5470    1.0410   -0.7970 C.2     1  UNL1       -0.0440
      7  C          7.8510    1.4740   -0.5310 C.2     1  UNL1        0.0080
      8  C          6.3680   -0.0670   -1.5940 C.2     1  UNL1        0.0540
      9  C          8.9140    0.7780   -1.0770 C.2     1  UNL1        0.0510
     10  C          7.4460   -0.7670   -2.1440 C.2     1  UNL1        0.1660
     11  C          8.7290   -0.3410   -1.8840 C.2     1  UNL1        0.1650
     12  O          7.5290   -1.8780   -2.9560 O.2     1  UNL1       -0.4540
     13  O          9.5820   -1.2090   -2.5470 O.2     1  UNL1       -0.4540
     14  C          8.8660   -2.2520   -3.1650 C.3     1  UNL1        0.4680
@<TRIPOS>BOND
     1    14    12    1
     2    14    13    1
     3    12    10    1
     4    13    11    1
     5    10    11    2
     6    10     8    1
     7    11     9    1
     8     8     6    2
     9     9     7    2
    10     6     7    1
    11     6     5    1
    12     5     1    1
    13     1     2    1
    14     2     3    1
    15     2     4    2
