@<TRIPOS>MOLECULE
/home/cewinharhar/GITHUB/reincatalyze/data/processed/docking_pred/2023-May-30-2130_sub9_nm5_bs15_s42_ex16_mel10_mts10000_k50_ec05_g099_lra3e-4_lrc3e-3/2368d29bb7bbfa5e31d33bb3936e2ea89938fe66_ligand_9.pdbqt
 14 15 0 0 0
SMALL
GASTEIGER

@<TRIPOS>ATOM
      1  C          5.3680   -0.0980    2.0200 C.3     1  UNL1        0.0800
      2  C          4.5360    1.1120    1.7750 C.2     1  UNL1        0.1300
      3  C          4.8990    2.1120    0.7350 C.3     1  UNL1        0.0870
      4  O          3.5250    1.3200    2.4260 O.2     1  UNL1       -0.3000
      5  C          6.8150    0.1410    1.6360 C.3     1  UNL1        0.0430
      6  C          7.2530   -0.7670    0.5610 C.2     1  UNL1       -0.0440
      7  C          7.1240   -0.4200   -0.7890 C.2     1  UNL1        0.0080
      8  C          7.8050   -1.9860    0.8810 C.2     1  UNL1        0.0540
      9  C          7.5540   -1.3120   -1.7540 C.2     1  UNL1        0.0510
     10  C          8.2380   -2.8850   -0.0990 C.2     1  UNL1        0.1660
     11  C          8.1110   -2.5450   -1.4280 C.2     1  UNL1        0.1650
     12  O          8.8100   -4.1380   -0.0390 O.2     1  UNL1       -0.4540
     13  O          8.6130   -3.6070   -2.1630 O.2     1  UNL1       -0.4540
     14  C          9.1500   -4.5990   -1.3210 C.3     1  UNL1        0.4680
@<TRIPOS>BOND
     1    13    11    1
     2    13    14    1
     3     9    11    2
     4     9     7    1
     5    11    10    1
     6    14    12    1
     7     7     6    2
     8    10    12    1
     9    10     8    2
    10     6     8    1
    11     6     5    1
    12     3     2    1
    13     5     1    1
    14     2     1    1
    15     2     4    2
