@<TRIPOS>MOLECULE
/home/cewinharhar/GITHUB/reincatalyze/data/processed/docking_pred/2023-May-30-2130_sub9_nm5_bs15_s42_ex16_mel10_mts10000_k50_ec05_g099_lra3e-4_lrc3e-3/2368d29bb7bbfa5e31d33bb3936e2ea89938fe66_ligand_9.pdbqt
 14 15 0 0 0
SMALL
GASTEIGER

@<TRIPOS>ATOM
      1  C          6.3770    1.2370    0.9030 C.3     1  UNL1        0.0800
      2  C          5.6670    0.4100    1.9190 C.2     1  UNL1        0.1300
      3  C          6.2900   -0.8020    2.5130 C.3     1  UNL1        0.0870
      4  O          4.5440    0.7070    2.2940 O.2     1  UNL1       -0.3000
      5  C          5.8740    0.9430   -0.4960 C.3     1  UNL1        0.0430
      6  C          6.8260    0.1130   -1.2560 C.2     1  UNL1       -0.0440
      7  C          7.5300    0.6220   -2.3530 C.2     1  UNL1        0.0080
      8  C          7.0370   -1.1960   -0.8840 C.2     1  UNL1        0.0540
      9  C          8.4100   -0.2040   -3.0270 C.2     1  UNL1        0.0510
     10  C          7.9290   -2.0270   -1.5690 C.2     1  UNL1        0.1660
     11  C          8.6210   -1.5270   -2.6500 C.2     1  UNL1        0.1650
     12  O          8.3070   -3.3410   -1.3990 O.2     1  UNL1       -0.4540
     13  O          9.4190   -2.5550   -3.1250 O.2     1  UNL1       -0.4540
     14  C          9.3190   -3.6960   -2.3070 C.3     1  UNL1        0.4680
@<TRIPOS>BOND
     1    13    11    1
     2    13    14    1
     3     9    11    2
     4     9     7    1
     5    11    10    1
     6     7     6    2
     7    14    12    1
     8    10    12    1
     9    10     8    2
    10     6     8    1
    11     6     5    1
    12     5     1    1
    13     1     2    1
    14     2     4    2
    15     2     3    1
