MODEL 1
REMARK VINA RESULT:      -7.6      0.000      0.000
REMARK SMILES CC(=O)CCc1ccc2c(c1)OCO2
REMARK SMILES IDX 4 1 2 2 1 3 3 4 5 5 6 6 7 7 11 8 8 9 10 10 9 11 12 12 14 13
REMARK SMILES IDX 13 14
REMARK H PARENT
REMARK Flexibility Score: inf
ROOT
ATOM      1  C   UNL     1       5.544   1.900   1.286  1.00  0.00     0.080 C 
ENDROOT
BRANCH   1   2
ATOM      2  C   UNL     1       5.118   0.679   2.025  1.00  0.00     0.130 C 
ATOM      3  C   UNL     1       6.025  -0.488   2.193  1.00  0.00     0.087 C 
ATOM      4  O   UNL     1       4.004   0.600   2.517  1.00  0.00    -0.300 OA
ENDBRANCH   1   2
BRANCH   1   5
ATOM      5  C   UNL     1       5.408   1.712  -0.212  1.00  0.00     0.043 C 
BRANCH   5   6
ATOM      6  C   UNL     1       6.573   1.015  -0.783  1.00  0.00    -0.044 A 
ATOM      7  C   UNL     1       7.881   1.450  -0.538  1.00  0.00     0.008 A 
ATOM      8  C   UNL     1       6.384  -0.094  -1.577  1.00  0.00     0.054 A 
ATOM      9  C   UNL     1       8.936   0.756  -1.100  1.00  0.00     0.051 A 
ATOM     10  C   UNL     1       7.454  -0.793  -2.143  1.00  0.00     0.166 A 
ATOM     11  C   UNL     1       8.741  -0.364  -1.903  1.00  0.00     0.165 A 
ATOM     12  O   UNL     1       7.526  -1.905  -2.954  1.00  0.00    -0.454 OA
ATOM     13  O   UNL     1       9.585  -1.232  -2.578  1.00  0.00    -0.454 OA
ATOM     14  C   UNL     1       8.861  -2.277  -3.183  1.00  0.00     0.468 C 
ENDBRANCH   5   6
ENDBRANCH   1   5
TORSDOF 3
ENDMDL
MODEL 2
REMARK VINA RESULT:      -7.4      1.926      2.377
REMARK SMILES CC(=O)CCc1ccc2c(c1)OCO2
REMARK SMILES IDX 4 1 2 2 1 3 3 4 5 5 6 6 7 7 11 8 8 9 10 10 9 11 12 12 14 13
REMARK SMILES IDX 13 14
REMARK H PARENT
REMARK Flexibility Score: inf
ROOT
ATOM      1  C   UNL     1       5.703   1.286  -0.295  1.00  0.00     0.080 C 
ENDROOT
BRANCH   1   2
ATOM      2  C   UNL     1       5.142   1.220   1.084  1.00  0.00     0.130 C 
ATOM      3  C   UNL     1       5.345   0.029   1.952  1.00  0.00     0.087 C 
ATOM      4  O   UNL     1       4.495   2.147   1.543  1.00  0.00    -0.300 OA
ENDBRANCH   1   2
BRANCH   1   5
ATOM      5  C   UNL     1       7.207   1.103  -0.286  1.00  0.00     0.043 C 
BRANCH   5   6
ATOM      6  C   UNL     1       7.605  -0.184  -0.883  1.00  0.00    -0.044 A 
ATOM      7  C   UNL     1       7.733  -0.342  -2.268  1.00  0.00     0.008 A 
ATOM      8  C   UNL     1       7.860  -1.264  -0.068  1.00  0.00     0.054 A 
ATOM      9  C   UNL     1       8.110  -1.574  -2.771  1.00  0.00     0.051 A 
ATOM     10  C   UNL     1       8.241  -2.507  -0.582  1.00  0.00     0.166 A 
ATOM     11  C   UNL     1       8.367  -2.663  -1.944  1.00  0.00     0.165 A 
ATOM     12  O   UNL     1       8.545  -3.715   0.010  1.00  0.00    -0.454 OA
ATOM     13  O   UNL     1       8.750  -3.977  -2.163  1.00  0.00    -0.454 OA
ATOM     14  C   UNL     1       8.963  -4.654  -0.948  1.00  0.00     0.468 C 
ENDBRANCH   5   6
ENDBRANCH   1   5
TORSDOF 3
ENDMDL
MODEL 3
REMARK VINA RESULT:      -7.2      2.076      2.615
REMARK SMILES CC(=O)CCc1ccc2c(c1)OCO2
REMARK SMILES IDX 4 1 2 2 1 3 3 4 5 5 6 6 7 7 11 8 8 9 10 10 9 11 12 12 14 13
REMARK SMILES IDX 13 14
REMARK H PARENT
REMARK Flexibility Score: inf
ROOT
ATOM      1  C   UNL     1       5.543   0.020   1.971  1.00  0.00     0.080 C 
ENDROOT
BRANCH   1   2
ATOM      2  C   UNL     1       4.652   1.170   1.652  1.00  0.00     0.130 C 
ATOM      3  C   UNL     1       4.961   2.114   0.545  1.00  0.00     0.087 C 
ATOM      4  O   UNL     1       3.634   1.372   2.295  1.00  0.00    -0.300 OA
ENDBRANCH   1   2
BRANCH   1   5
ATOM      5  C   UNL     1       6.959   0.272   1.493  1.00  0.00     0.043 C 
BRANCH   5   6
ATOM      6  C   UNL     1       7.362  -0.687   0.450  1.00  0.00    -0.044 A 
ATOM      7  C   UNL     1       7.247  -0.382  -0.911  1.00  0.00     0.008 A 
ATOM      8  C   UNL     1       7.869  -1.915   0.811  1.00  0.00     0.054 A 
ATOM      9  C   UNL     1       7.642  -1.322  -1.846  1.00  0.00     0.051 A 
ATOM     10  C   UNL     1       8.267  -2.862  -0.138  1.00  0.00     0.166 A 
ATOM     11  C   UNL     1       8.153  -2.562  -1.477  1.00  0.00     0.165 A 
ATOM     12  O   UNL     1       8.792  -4.132  -0.034  1.00  0.00    -0.454 OA
ATOM     13  O   UNL     1       8.615  -3.667  -2.176  1.00  0.00    -0.454 OA
ATOM     14  C   UNL     1       9.115  -4.649  -1.300  1.00  0.00     0.468 C 
ENDBRANCH   5   6
ENDBRANCH   1   5
TORSDOF 3
ENDMDL
MODEL 4
REMARK VINA RESULT:      -7.1      1.236      1.435
REMARK SMILES CC(=O)CCc1ccc2c(c1)OCO2
REMARK SMILES IDX 4 1 2 2 1 3 3 4 5 5 6 6 7 7 11 8 8 9 10 10 9 11 12 12 14 13
REMARK SMILES IDX 13 14
REMARK H PARENT
REMARK Flexibility Score: inf
ROOT
ATOM      1  C   UNL     1       6.342   1.242   0.897  1.00  0.00     0.080 C 
ENDROOT
BRANCH   1   2
ATOM      2  C   UNL     1       5.653   0.410   1.923  1.00  0.00     0.130 C 
ATOM      3  C   UNL     1       6.280  -0.817   2.483  1.00  0.00     0.087 C 
ATOM      4  O   UNL     1       4.545   0.714   2.335  1.00  0.00    -0.300 OA
ENDBRANCH   1   2
BRANCH   1   5
ATOM      5  C   UNL     1       5.833   0.931  -0.496  1.00  0.00     0.043 C 
BRANCH   5   6
ATOM      6  C   UNL     1       6.795   0.116  -1.260  1.00  0.00    -0.044 A 
ATOM      7  C   UNL     1       7.498   0.641  -2.350  1.00  0.00     0.008 A 
ATOM      8  C   UNL     1       7.016  -1.194  -0.899  1.00  0.00     0.054 A 
ATOM      9  C   UNL     1       8.388  -0.171  -3.029  1.00  0.00     0.051 A 
ATOM     10  C   UNL     1       7.918  -2.011  -1.588  1.00  0.00     0.166 A 
ATOM     11  C   UNL     1       8.609  -1.495  -2.662  1.00  0.00     0.165 A 
ATOM     12  O   UNL     1       8.308  -3.324  -1.429  1.00  0.00    -0.454 OA
ATOM     13  O   UNL     1       9.418  -2.513  -3.144  1.00  0.00    -0.454 OA
ATOM     14  C   UNL     1       9.326  -3.661  -2.336  1.00  0.00     0.468 C 
ENDBRANCH   5   6
ENDBRANCH   1   5
TORSDOF 3
ENDMDL
MODEL 5
REMARK VINA RESULT:      -6.7      2.006      2.667
REMARK SMILES CC(=O)CCc1ccc2c(c1)OCO2
REMARK SMILES IDX 4 1 2 2 1 3 3 4 5 5 6 6 7 7 11 8 8 9 10 10 9 11 12 12 14 13
REMARK SMILES IDX 13 14
REMARK H PARENT
REMARK Flexibility Score: inf
ROOT
ATOM      1  C   UNL     1       6.780   0.478   0.974  1.00  0.00     0.080 C 
ENDROOT
BRANCH   1   2
ATOM      2  C   UNL     1       5.444   0.974   1.406  1.00  0.00     0.130 C 
ATOM      3  C   UNL     1       4.801   2.150   0.760  1.00  0.00     0.087 C 
ATOM      4  O   UNL     1       4.834   0.426   2.310  1.00  0.00    -0.300 OA
ENDBRANCH   1   2
BRANCH   1   5
ATOM      5  C   UNL     1       6.935   0.554  -0.532  1.00  0.00     0.043 C 
BRANCH   5   6
ATOM      6  C   UNL     1       7.541  -0.671  -1.082  1.00  0.00    -0.044 A 
ATOM      7  C   UNL     1       7.897  -0.771  -2.432  1.00  0.00     0.008 A 
ATOM      8  C   UNL     1       7.770  -1.749  -0.256  1.00  0.00     0.054 A 
ATOM      9  C   UNL     1       8.463  -1.947  -2.891  1.00  0.00     0.051 A 
ATOM     10  C   UNL     1       8.344  -2.934  -0.725  1.00  0.00     0.166 A 
ATOM     11  C   UNL     1       8.693  -3.034  -2.054  1.00  0.00     0.165 A 
ATOM     12  O   UNL     1       8.668  -4.127  -0.115  1.00  0.00    -0.454 OA
ATOM     13  O   UNL     1       9.230  -4.299  -2.233  1.00  0.00    -0.454 OA
ATOM     14  C   UNL     1       9.317  -4.993  -1.011  1.00  0.00     0.468 C 
ENDBRANCH   5   6
ENDBRANCH   1   5
TORSDOF 3
ENDMDL
