@<TRIPOS>MOLECULE
/home/cewinharhar/GITHUB/reincatalyze/data/processed/docking_pred/2023-May-30-2130_sub9_nm5_bs15_s42_ex16_mel10_mts10000_k50_ec05_g099_lra3e-4_lrc3e-3/256f3744e8749e754cc005b5ddd24f9a686f82e7_ligand_9.pdbqt
 14 15 0 0 0
SMALL
GASTEIGER

@<TRIPOS>ATOM
      1  C          6.0040    1.6360    1.1380 C.3     1  UNL1        0.0800
      2  C          5.4360    0.5390    1.9710 C.2     1  UNL1        0.1300
      3  C          6.2210   -0.6830    2.2930 C.3     1  UNL1        0.0870
      4  O          4.3020    0.6130    2.4150 O.2     1  UNL1       -0.3000
      5  C          5.7300    1.4070   -0.3350 C.3     1  UNL1        0.0430
      6  C          6.8050    0.6280   -0.9760 C.2     1  UNL1       -0.0440
      7  C          8.1490    1.0010   -0.8610 C.2     1  UNL1        0.0080
      8  C          6.4910   -0.4960   -1.7060 C.2     1  UNL1        0.0540
      9  C          9.1140    0.2310   -1.4830 C.2     1  UNL1        0.0510
     10  C          7.4710   -1.2710   -2.3330 C.2     1  UNL1        0.1660
     11  C          8.7930   -0.9050   -2.2210 C.2     1  UNL1        0.1650
     12  O          7.4150   -2.4130   -3.1030 O.2     1  UNL1       -0.4540
     13  O          9.5300   -1.8400   -2.9310 O.2     1  UNL1       -0.4540
     14  C          8.7040   -2.8650   -3.4300 C.3     1  UNL1        0.4680
@<TRIPOS>BOND
     1    14    12    1
     2    14    13    1
     3    12    10    1
     4    13    11    1
     5    10    11    2
     6    10     8    1
     7    11     9    1
     8     8     6    2
     9     9     7    2
    10     6     7    1
    11     6     5    1
    12     5     1    1
    13     1     2    1
    14     2     3    1
    15     2     4    2
