@<TRIPOS>MOLECULE
/home/cewinharhar/GITHUB/reincatalyze/data/processed/docking_pred/2023-May-30-2130_sub9_nm5_bs15_s42_ex16_mel10_mts10000_k50_ec05_g099_lra3e-4_lrc3e-3/256f3744e8749e754cc005b5ddd24f9a686f82e7_ligand_9.pdbqt
 14 15 0 0 0
SMALL
GASTEIGER

@<TRIPOS>ATOM
      1  C          6.0060   -0.4500    1.6260 C.3     1  UNL1        0.0800
      2  C          5.0390    0.6790    1.7120 C.2     1  UNL1        0.1300
      3  C          5.1190    1.8480    0.7960 C.3     1  UNL1        0.0870
      4  O          4.1460    0.6770    2.5440 O.2     1  UNL1       -0.3000
      5  C          7.3850    0.0360    1.2220 C.3     1  UNL1        0.0430
      6  C          7.7270   -0.3720   -0.1520 C.2     1  UNL1       -0.0440
      7  C          7.9720    0.5710   -1.1570 C.2     1  UNL1        0.0080
      8  C          7.8130   -1.7090   -0.4660 C.2     1  UNL1        0.0540
      9  C          8.2890    0.1300   -2.4280 C.2     1  UNL1        0.0510
     10  C          8.1350   -2.1500   -1.7530 C.2     1  UNL1        0.1660
     11  C          8.3750   -1.2230   -2.7420 C.2     1  UNL1        0.1650
     12  O          8.2790   -3.4040   -2.3070 O.2     1  UNL1       -0.4540
     13  O          8.6660   -1.9340   -3.8960 O.2     1  UNL1       -0.4540
     14  C          8.7050   -3.3180   -3.6430 C.3     1  UNL1        0.4680
@<TRIPOS>BOND
     1    13    14    1
     2    13    11    1
     3    14    12    1
     4    11     9    2
     5    11    10    1
     6     9     7    1
     7    12    10    1
     8    10     8    2
     9     7     6    2
    10     8     6    1
    11     6     5    1
    12     3     2    1
    13     5     1    1
    14     1     2    1
    15     2     4    2
