@<TRIPOS>MOLECULE
/home/cewinharhar/GITHUB/reincatalyze/data/processed/docking_pred/2023-May-30-2130_sub9_nm5_bs15_s42_ex16_mel10_mts10000_k50_ec05_g099_lra3e-4_lrc3e-3/256f3744e8749e754cc005b5ddd24f9a686f82e7_ligand_9.pdbqt
 14 15 0 0 0
SMALL
GASTEIGER

@<TRIPOS>ATOM
      1  C          5.7490    0.7970    0.4100 C.3     1  UNL1        0.0800
      2  C          5.4160    0.2920    1.7710 C.2     1  UNL1        0.1300
      3  C          6.2540   -0.7330    2.4510 C.3     1  UNL1        0.0870
      4  O          4.4390    0.7070    2.3720 O.2     1  UNL1       -0.3000
      5  C          7.2480    0.8370    0.1890 C.3     1  UNL1        0.0430
      6  C          7.6560   -0.0130   -0.9440 C.2     1  UNL1       -0.0440
      7  C          7.8670    0.5200   -2.2210 C.2     1  UNL1        0.0080
      8  C          7.8390   -1.3630   -0.7520 C.2     1  UNL1        0.0540
      9  C          8.2500   -0.3260   -3.2460 C.2     1  UNL1        0.0510
     10  C          8.2270   -2.2140   -1.7920 C.2     1  UNL1        0.1660
     11  C          8.4340   -1.6910   -3.0490 C.2     1  UNL1        0.1650
     12  O          8.4700   -3.5700   -1.8550 O.2     1  UNL1       -0.4540
     13  O          8.8050   -2.7470   -3.8660 O.2     1  UNL1       -0.4540
     14  C          8.9280   -3.9410   -3.1300 C.3     1  UNL1        0.4680
@<TRIPOS>BOND
     1    13    14    1
     2    13    11    1
     3     9    11    2
     4     9     7    1
     5    14    12    1
     6    11    10    1
     7     7     6    2
     8    12    10    1
     9    10     8    2
    10     6     8    1
    11     6     5    1
    12     5     1    1
    13     1     2    1
    14     2     4    2
    15     2     3    1
