@<TRIPOS>MOLECULE
/home/cewinharhar/GITHUB/reincatalyze/data/processed/docking_pred/2023-May-30-2130_sub9_nm5_bs15_s42_ex16_mel10_mts10000_k50_ec05_g099_lra3e-4_lrc3e-3/256f3744e8749e754cc005b5ddd24f9a686f82e7_ligand_9.pdbqt
 14 15 0 0 0
SMALL
GASTEIGER

@<TRIPOS>ATOM
      1  C          8.1290   -2.4960   -3.6080 C.3     1  UNL1        0.0800
      2  C          9.2370   -3.4780   -3.4450 C.2     1  UNL1        0.1300
      3  C          8.9830   -4.9430   -3.4010 C.3     1  UNL1        0.0870
      4  O         10.3940   -3.1040   -3.3400 O.2     1  UNL1       -0.3000
      5  C          8.5320   -1.1220   -3.1110 C.3     1  UNL1        0.0430
      6  C          7.7490   -0.7170   -1.9300 C.2     1  UNL1       -0.0440
      7  C          6.8660    0.3680   -1.9730 C.2     1  UNL1        0.0080
      8  C          7.8800   -1.4160   -0.7520 C.2     1  UNL1        0.0540
      9  C          6.1570    0.7010   -0.8340 C.2     1  UNL1        0.0510
     10  C          7.1610   -1.0750    0.3970 C.2     1  UNL1        0.1660
     11  C          6.2920   -0.0070    0.3560 C.2     1  UNL1        0.1650
     12  O          7.1160   -1.6040    1.6700 O.2     1  UNL1       -0.4540
     13  O          5.7250    0.0970    1.6170 O.2     1  UNL1       -0.4540
     14  C          6.1520   -0.9510    2.4540 C.3     1  UNL1        0.4680
@<TRIPOS>BOND
     1     1     2    1
     2     1     5    1
     3     2     3    1
     4     2     4    2
     5     5     6    1
     6     7     6    2
     7     7     9    1
     8     6     8    1
     9     9    11    2
    10     8    10    2
    11    11    10    1
    12    11    13    1
    13    10    12    1
    14    13    14    1
    15    12    14    1
