MODEL 1
REMARK VINA RESULT:      -8.1      0.000      0.000
REMARK SMILES CC(=O)CCc1ccc2c(c1)OCO2
REMARK SMILES IDX 4 1 2 2 1 3 3 4 5 5 6 6 7 7 11 8 8 9 10 10 9 11 12 12 14 13
REMARK SMILES IDX 13 14
REMARK H PARENT
REMARK Flexibility Score: inf
ROOT
ATOM      1  C   UNL     1       6.004   1.636   1.138  1.00  0.00     0.080 C 
ENDROOT
BRANCH   1   2
ATOM      2  C   UNL     1       5.436   0.539   1.971  1.00  0.00     0.130 C 
ATOM      3  C   UNL     1       6.221  -0.683   2.293  1.00  0.00     0.087 C 
ATOM      4  O   UNL     1       4.302   0.613   2.415  1.00  0.00    -0.300 OA
ENDBRANCH   1   2
BRANCH   1   5
ATOM      5  C   UNL     1       5.730   1.407  -0.335  1.00  0.00     0.043 C 
BRANCH   5   6
ATOM      6  C   UNL     1       6.805   0.628  -0.976  1.00  0.00    -0.044 A 
ATOM      7  C   UNL     1       8.149   1.001  -0.861  1.00  0.00     0.008 A 
ATOM      8  C   UNL     1       6.491  -0.496  -1.706  1.00  0.00     0.054 A 
ATOM      9  C   UNL     1       9.114   0.231  -1.483  1.00  0.00     0.051 A 
ATOM     10  C   UNL     1       7.471  -1.271  -2.333  1.00  0.00     0.166 A 
ATOM     11  C   UNL     1       8.793  -0.905  -2.221  1.00  0.00     0.165 A 
ATOM     12  O   UNL     1       7.415  -2.413  -3.103  1.00  0.00    -0.454 OA
ATOM     13  O   UNL     1       9.530  -1.840  -2.931  1.00  0.00    -0.454 OA
ATOM     14  C   UNL     1       8.704  -2.865  -3.430  1.00  0.00     0.468 C 
ENDBRANCH   5   6
ENDBRANCH   1   5
TORSDOF 3
ENDMDL
MODEL 2
REMARK VINA RESULT:      -7.3      1.171      1.633
REMARK SMILES CC(=O)CCc1ccc2c(c1)OCO2
REMARK SMILES IDX 4 1 2 2 1 3 3 4 5 5 6 6 7 7 11 8 8 9 10 10 9 11 12 12 14 13
REMARK SMILES IDX 13 14
REMARK H PARENT
REMARK Flexibility Score: inf
ROOT
ATOM      1  C   UNL     1       6.006  -0.450   1.626  1.00  0.00     0.080 C 
ENDROOT
BRANCH   1   2
ATOM      2  C   UNL     1       5.039   0.679   1.712  1.00  0.00     0.130 C 
ATOM      3  C   UNL     1       5.119   1.848   0.796  1.00  0.00     0.087 C 
ATOM      4  O   UNL     1       4.146   0.677   2.544  1.00  0.00    -0.300 OA
ENDBRANCH   1   2
BRANCH   1   5
ATOM      5  C   UNL     1       7.385   0.036   1.222  1.00  0.00     0.043 C 
BRANCH   5   6
ATOM      6  C   UNL     1       7.727  -0.372  -0.152  1.00  0.00    -0.044 A 
ATOM      7  C   UNL     1       7.972   0.571  -1.157  1.00  0.00     0.008 A 
ATOM      8  C   UNL     1       7.813  -1.709  -0.466  1.00  0.00     0.054 A 
ATOM      9  C   UNL     1       8.289   0.130  -2.428  1.00  0.00     0.051 A 
ATOM     10  C   UNL     1       8.135  -2.150  -1.753  1.00  0.00     0.166 A 
ATOM     11  C   UNL     1       8.375  -1.223  -2.742  1.00  0.00     0.165 A 
ATOM     12  O   UNL     1       8.279  -3.404  -2.307  1.00  0.00    -0.454 OA
ATOM     13  O   UNL     1       8.666  -1.934  -3.896  1.00  0.00    -0.454 OA
ATOM     14  C   UNL     1       8.705  -3.318  -3.643  1.00  0.00     0.468 C 
ENDBRANCH   5   6
ENDBRANCH   1   5
TORSDOF 3
ENDMDL
MODEL 3
REMARK VINA RESULT:      -7.2      1.585      5.561
REMARK SMILES CC(=O)CCc1ccc2c(c1)OCO2
REMARK SMILES IDX 4 1 2 2 1 3 3 4 5 5 6 6 7 7 11 8 8 9 10 10 9 11 12 12 14 13
REMARK SMILES IDX 13 14
REMARK H PARENT
REMARK Flexibility Score: inf
ROOT
ATOM      1  C   UNL     1       8.097  -2.564  -3.585  1.00  0.00     0.080 C 
ENDROOT
BRANCH   1   2
ATOM      2  C   UNL     1       9.229  -3.510  -3.383  1.00  0.00     0.130 C 
ATOM      3  C   UNL     1       9.007  -4.973  -3.232  1.00  0.00     0.087 C 
ATOM      4  O   UNL     1      10.381  -3.108  -3.334  1.00  0.00    -0.300 OA
ENDBRANCH   1   2
BRANCH   1   5
ATOM      5  C   UNL     1       8.444  -1.175  -3.086  1.00  0.00     0.043 C 
BRANCH   5   6
ATOM      6  C   UNL     1       7.701  -0.834  -1.860  1.00  0.00    -0.044 A 
ATOM      7  C   UNL     1       7.776  -1.630  -0.712  1.00  0.00     0.008 A 
ATOM      8  C   UNL     1       6.914   0.295  -1.831  1.00  0.00     0.054 A 
ATOM      9  C   UNL     1       7.058  -1.260   0.410  1.00  0.00     0.051 A 
ATOM     10  C   UNL     1       6.190   0.666  -0.694  1.00  0.00     0.166 A 
ATOM     11  C   UNL     1       6.262  -0.118   0.436  1.00  0.00     0.165 A 
ATOM     12  O   UNL     1       5.349   1.723  -0.419  1.00  0.00    -0.454 OA
ATOM     13  O   UNL     1       5.457   0.481   1.392  1.00  0.00    -0.454 OA
ATOM     14  C   UNL     1       4.931   1.699   0.922  1.00  0.00     0.468 C 
ENDBRANCH   5   6
ENDBRANCH   1   5
TORSDOF 3
ENDMDL
MODEL 4
REMARK VINA RESULT:      -7.2      1.225      1.363
REMARK SMILES CC(=O)CCc1ccc2c(c1)OCO2
REMARK SMILES IDX 4 1 2 2 1 3 3 4 5 5 6 6 7 7 11 8 8 9 10 10 9 11 12 12 14 13
REMARK SMILES IDX 13 14
REMARK H PARENT
REMARK Flexibility Score: inf
ROOT
ATOM      1  C   UNL     1       5.749   0.797   0.410  1.00  0.00     0.080 C 
ENDROOT
BRANCH   1   2
ATOM      2  C   UNL     1       5.416   0.292   1.771  1.00  0.00     0.130 C 
ATOM      3  C   UNL     1       6.254  -0.733   2.451  1.00  0.00     0.087 C 
ATOM      4  O   UNL     1       4.439   0.707   2.372  1.00  0.00    -0.300 OA
ENDBRANCH   1   2
BRANCH   1   5
ATOM      5  C   UNL     1       7.248   0.837   0.189  1.00  0.00     0.043 C 
BRANCH   5   6
ATOM      6  C   UNL     1       7.656  -0.013  -0.944  1.00  0.00    -0.044 A 
ATOM      7  C   UNL     1       7.867   0.520  -2.221  1.00  0.00     0.008 A 
ATOM      8  C   UNL     1       7.839  -1.363  -0.752  1.00  0.00     0.054 A 
ATOM      9  C   UNL     1       8.250  -0.326  -3.246  1.00  0.00     0.051 A 
ATOM     10  C   UNL     1       8.227  -2.214  -1.792  1.00  0.00     0.166 A 
ATOM     11  C   UNL     1       8.434  -1.691  -3.049  1.00  0.00     0.165 A 
ATOM     12  O   UNL     1       8.470  -3.570  -1.855  1.00  0.00    -0.454 OA
ATOM     13  O   UNL     1       8.805  -2.747  -3.866  1.00  0.00    -0.454 OA
ATOM     14  C   UNL     1       8.928  -3.941  -3.130  1.00  0.00     0.468 C 
ENDBRANCH   5   6
ENDBRANCH   1   5
TORSDOF 3
ENDMDL
MODEL 5
REMARK VINA RESULT:      -7.1      1.628      5.456
REMARK SMILES CC(=O)CCc1ccc2c(c1)OCO2
REMARK SMILES IDX 4 1 2 2 1 3 3 4 5 5 6 6 7 7 11 8 8 9 10 10 9 11 12 12 14 13
REMARK SMILES IDX 13 14
REMARK H PARENT
REMARK Flexibility Score: inf
ROOT
ATOM      1  C   UNL     1       8.129  -2.496  -3.608  1.00  0.00     0.080 C 
ENDROOT
BRANCH   1   2
ATOM      2  C   UNL     1       9.237  -3.478  -3.445  1.00  0.00     0.130 C 
ATOM      3  C   UNL     1       8.983  -4.943  -3.401  1.00  0.00     0.087 C 
ATOM      4  O   UNL     1      10.394  -3.104  -3.340  1.00  0.00    -0.300 OA
ENDBRANCH   1   2
BRANCH   1   5
ATOM      5  C   UNL     1       8.532  -1.122  -3.111  1.00  0.00     0.043 C 
BRANCH   5   6
ATOM      6  C   UNL     1       7.749  -0.717  -1.930  1.00  0.00    -0.044 A 
ATOM      7  C   UNL     1       6.866   0.368  -1.973  1.00  0.00     0.008 A 
ATOM      8  C   UNL     1       7.880  -1.416  -0.752  1.00  0.00     0.054 A 
ATOM      9  C   UNL     1       6.157   0.701  -0.834  1.00  0.00     0.051 A 
ATOM     10  C   UNL     1       7.161  -1.075   0.397  1.00  0.00     0.166 A 
ATOM     11  C   UNL     1       6.292  -0.007   0.356  1.00  0.00     0.165 A 
ATOM     12  O   UNL     1       7.116  -1.604   1.670  1.00  0.00    -0.454 OA
ATOM     13  O   UNL     1       5.725   0.097   1.617  1.00  0.00    -0.454 OA
ATOM     14  C   UNL     1       6.152  -0.951   2.454  1.00  0.00     0.468 C 
ENDBRANCH   5   6
ENDBRANCH   1   5
TORSDOF 3
ENDMDL
