@<TRIPOS>MOLECULE
/home/cewinharhar/GITHUB/reincatalyze/data/processed/docking_pred/2023-May-30-2130_sub9_nm5_bs15_s42_ex16_mel10_mts10000_k50_ec05_g099_lra3e-4_lrc3e-3/256f3744e8749e754cc005b5ddd24f9a686f82e7_ligand_9.pdbqt
 14 15 0 0 0
SMALL
GASTEIGER

@<TRIPOS>ATOM
      1  C          8.0970   -2.5640   -3.5850 C.3     1  UNL1        0.0800
      2  C          9.2290   -3.5100   -3.3830 C.2     1  UNL1        0.1300
      3  C          9.0070   -4.9730   -3.2320 C.3     1  UNL1        0.0870
      4  O         10.3810   -3.1080   -3.3340 O.2     1  UNL1       -0.3000
      5  C          8.4440   -1.1750   -3.0860 C.3     1  UNL1        0.0430
      6  C          7.7010   -0.8340   -1.8600 C.2     1  UNL1       -0.0440
      7  C          7.7760   -1.6300   -0.7120 C.2     1  UNL1        0.0080
      8  C          6.9140    0.2950   -1.8310 C.2     1  UNL1        0.0540
      9  C          7.0580   -1.2600    0.4100 C.2     1  UNL1        0.0510
     10  C          6.1900    0.6660   -0.6940 C.2     1  UNL1        0.1660
     11  C          6.2620   -0.1180    0.4360 C.2     1  UNL1        0.1650
     12  O          5.3490    1.7230   -0.4190 O.2     1  UNL1       -0.4540
     13  O          5.4570    0.4810    1.3920 O.2     1  UNL1       -0.4540
     14  C          4.9310    1.6990    0.9220 C.3     1  UNL1        0.4680
@<TRIPOS>BOND
     1     1     2    1
     2     1     5    1
     3     2     4    2
     4     2     3    1
     5     5     6    1
     6     6     8    2
     7     6     7    1
     8     8    10    1
     9     7     9    2
    10    10    12    1
    11    10    11    2
    12    12    14    1
    13     9    11    1
    14    11    13    1
    15    14    13    1
