@<TRIPOS>MOLECULE
/home/cewinharhar/GITHUB/reincatalyze/data/processed/docking_pred/2023-May-30-2130_sub9_nm5_bs15_s42_ex16_mel10_mts10000_k50_ec05_g099_lra3e-4_lrc3e-3/25fd2f55844bdf9fb92a90adf0bdb598f7a2ad59_ligand_9.pdbqt
 14 15 0 0 0
SMALL
GASTEIGER

@<TRIPOS>ATOM
      1  C          5.5220    1.9370    1.2640 C.3     1  UNL1        0.0800
      2  C          5.0890    0.7210    2.0070 C.2     1  UNL1        0.1300
      3  C          5.9900   -0.4490    2.1820 C.3     1  UNL1        0.0870
      4  O          3.9730    0.6490    2.4960 O.2     1  UNL1       -0.3000
      5  C          5.3950    1.7420   -0.2340 C.3     1  UNL1        0.0430
      6  C          6.5630    1.0390   -0.7940 C.2     1  UNL1       -0.0440
      7  C          7.8690    1.4710   -0.5400 C.2     1  UNL1        0.0080
      8  C          6.3750   -0.0720   -1.5850 C.2     1  UNL1        0.0540
      9  C          8.9270    0.7700   -1.0920 C.2     1  UNL1        0.0510
     10  C          7.4470   -0.7770   -2.1410 C.2     1  UNL1        0.1660
     11  C          8.7340   -0.3520   -1.8920 C.2     1  UNL1        0.1650
     12  O          7.5220   -1.8920   -2.9480 O.2     1  UNL1       -0.4540
     13  O          9.5800   -1.2250   -2.5580 O.2     1  UNL1       -0.4540
     14  C          8.8570   -2.2690   -3.1650 C.3     1  UNL1        0.4680
@<TRIPOS>BOND
     1    14    12    1
     2    14    13    1
     3    12    10    1
     4    13    11    1
     5    10    11    2
     6    10     8    1
     7    11     9    1
     8     8     6    2
     9     9     7    2
    10     6     7    1
    11     6     5    1
    12     5     1    1
    13     1     2    1
    14     2     3    1
    15     2     4    2
