@<TRIPOS>MOLECULE
/home/cewinharhar/GITHUB/reincatalyze/data/processed/docking_pred/2023-May-30-2130_sub9_nm5_bs15_s42_ex16_mel10_mts10000_k50_ec05_g099_lra3e-4_lrc3e-3/2769ace7ab15be22ffee3dc1b6b5ad7143a6aff5_ligand_9.pdbqt
 14 15 0 0 0
SMALL
GASTEIGER

@<TRIPOS>ATOM
      1  C          5.8240    1.0550   -0.2860 C.3     1  UNL1        0.0800
      2  C          5.7330    1.2580    1.1870 C.2     1  UNL1        0.1300
      3  C          4.8800    0.3920    2.0440 C.3     1  UNL1        0.0870
      4  O          6.3620    2.1480    1.7370 O.2     1  UNL1       -0.3000
      5  C          7.2590    0.8430   -0.7250 C.3     1  UNL1        0.0430
      6  C          7.7210   -0.5280   -0.4410 C.2     1  UNL1       -0.0440
      7  C          7.9650   -0.9630    0.8670 C.2     1  UNL1        0.0080
      8  C          7.9180   -1.4100   -1.4780 C.2     1  UNL1        0.0540
      9  C          8.3960   -2.2600    1.0730 C.2     1  UNL1        0.0510
     10  C          8.3540   -2.7210   -1.2650 C.2     1  UNL1        0.1660
     11  C          8.5950   -3.1500    0.0220 C.2     1  UNL1        0.1650
     12  O          8.6210   -3.7730   -2.1150 O.2     1  UNL1       -0.4540
     13  O          9.0080   -4.4700   -0.0660 O.2     1  UNL1       -0.4540
     14  C          8.9520   -4.9330   -1.3940 C.3     1  UNL1        0.4680
@<TRIPOS>BOND
     1    12    14    1
     2    12    10    1
     3     8    10    1
     4     8     6    2
     5    14    13    1
     6    10    11    2
     7     5     6    1
     8     5     1    1
     9     6     7    1
    10     1     2    1
    11    13    11    1
    12    11     9    1
    13     7     9    2
    14     2     4    2
    15     2     3    1
