@<TRIPOS>MOLECULE
/home/cewinharhar/GITHUB/reincatalyze/data/processed/docking_pred/2023-May-30-2130_sub9_nm5_bs15_s42_ex16_mel10_mts10000_k50_ec05_g099_lra3e-4_lrc3e-3/2769ace7ab15be22ffee3dc1b6b5ad7143a6aff5_ligand_9.pdbqt
 14 15 0 0 0
SMALL
GASTEIGER

@<TRIPOS>ATOM
      1  C          5.8640    1.6250    1.3480 C.3     1  UNL1        0.0800
      2  C          5.3250    0.4360    2.0640 C.2     1  UNL1        0.1300
      3  C          6.1450   -0.7880    2.2710 C.3     1  UNL1        0.0870
      4  O          4.1870    0.4320    2.5040 O.2     1  UNL1       -0.3000
      5  C          5.6610    1.5050   -0.1500 C.3     1  UNL1        0.0430
      6  C          6.7840    0.8060   -0.7990 C.2     1  UNL1       -0.0440
      7  C          8.0840    1.3240   -0.7730 C.2     1  UNL1        0.0080
      8  C          6.5610   -0.3880   -1.4470 C.2     1  UNL1        0.0540
      9  C          9.0990    0.6230   -1.3990 C.2     1  UNL1        0.0510
     10  C          7.5910   -1.0930   -2.0780 C.2     1  UNL1        0.1660
     11  C          8.8700   -0.5830   -2.0540 C.2     1  UNL1        0.1650
     12  O          7.6250   -2.2810   -2.7780 O.2     1  UNL1       -0.4540
     13  O          9.6710   -1.4780   -2.7460 O.2     1  UNL1       -0.4540
     14  C          8.9390   -2.6130   -3.1440 C.3     1  UNL1        0.4680
@<TRIPOS>BOND
     1    14    12    1
     2    14    13    1
     3    12    10    1
     4    13    11    1
     5    10    11    2
     6    10     8    1
     7    11     9    1
     8     8     6    2
     9     9     7    2
    10     6     7    1
    11     6     5    1
    12     5     1    1
    13     1     2    1
    14     2     3    1
    15     2     4    2
