@<TRIPOS>MOLECULE
/home/cewinharhar/GITHUB/reincatalyze/data/processed/docking_pred/2023-May-30-2130_sub9_nm5_bs15_s42_ex16_mel10_mts10000_k50_ec05_g099_lra3e-4_lrc3e-3/2769ace7ab15be22ffee3dc1b6b5ad7143a6aff5_ligand_9.pdbqt
 14 15 0 0 0
SMALL
GASTEIGER

@<TRIPOS>ATOM
      1  C          5.9530    1.1740   -0.1790 C.3     1  UNL1        0.0800
      2  C          5.9090    1.1640    1.3100 C.2     1  UNL1        0.1300
      3  C          5.3430    0.0160    2.0670 C.3     1  UNL1        0.0870
      4  O          6.3380    2.1060    1.9560 O.2     1  UNL1       -0.3000
      5  C          7.3800    1.1050   -0.6870 C.3     1  UNL1        0.0430
      6  C          7.7210   -0.2430   -1.1760 C.2     1  UNL1       -0.0440
      7  C          7.8160   -0.5240   -2.5440 C.2     1  UNL1        0.0080
      8  C          7.9580   -1.2560   -0.2750 C.2     1  UNL1        0.0540
      9  C          8.1410   -1.8070   -2.9440 C.2     1  UNL1        0.0510
     10  C          8.2870   -2.5510   -0.6840 C.2     1  UNL1        0.1660
     11  C          8.3790   -2.8290   -2.0300 C.2     1  UNL1        0.1650
     12  O          8.5630   -3.7130    0.0050 O.2     1  UNL1       -0.4540
     13  O          8.7140   -4.1700   -2.1400 O.2     1  UNL1       -0.4540
     14  C          8.9290   -4.7460   -0.8740 C.3     1  UNL1        0.4680
@<TRIPOS>BOND
     1     9     7    1
     2     9    11    2
     3     7     6    2
     4    13    11    1
     5    13    14    1
     6    11    10    1
     7     6     5    1
     8     6     8    1
     9    14    12    1
    10     5     1    1
    11    10     8    2
    12    10    12    1
    13     1     2    1
    14     2     4    2
    15     2     3    1
