MODEL 1
REMARK VINA RESULT:      -7.3      0.000      0.000
REMARK SMILES CC(=O)CCc1ccc2c(c1)OCO2
REMARK SMILES IDX 4 1 2 2 1 3 3 4 5 5 6 6 7 7 11 8 8 9 10 10 9 11 12 12 14 13
REMARK SMILES IDX 13 14
REMARK H PARENT
REMARK Flexibility Score: inf
ROOT
ATOM      1  C   UNL     1       5.864   1.625   1.348  1.00  0.00     0.080 C 
ENDROOT
BRANCH   1   2
ATOM      2  C   UNL     1       5.325   0.436   2.064  1.00  0.00     0.130 C 
ATOM      3  C   UNL     1       6.145  -0.788   2.271  1.00  0.00     0.087 C 
ATOM      4  O   UNL     1       4.187   0.432   2.504  1.00  0.00    -0.300 OA
ENDBRANCH   1   2
BRANCH   1   5
ATOM      5  C   UNL     1       5.661   1.505  -0.150  1.00  0.00     0.043 C 
BRANCH   5   6
ATOM      6  C   UNL     1       6.784   0.806  -0.799  1.00  0.00    -0.044 A 
ATOM      7  C   UNL     1       8.084   1.324  -0.773  1.00  0.00     0.008 A 
ATOM      8  C   UNL     1       6.561  -0.388  -1.447  1.00  0.00     0.054 A 
ATOM      9  C   UNL     1       9.099   0.623  -1.399  1.00  0.00     0.051 A 
ATOM     10  C   UNL     1       7.591  -1.093  -2.078  1.00  0.00     0.166 A 
ATOM     11  C   UNL     1       8.870  -0.583  -2.054  1.00  0.00     0.165 A 
ATOM     12  O   UNL     1       7.625  -2.281  -2.778  1.00  0.00    -0.454 OA
ATOM     13  O   UNL     1       9.671  -1.478  -2.746  1.00  0.00    -0.454 OA
ATOM     14  C   UNL     1       8.939  -2.613  -3.144  1.00  0.00     0.468 C 
ENDBRANCH   5   6
ENDBRANCH   1   5
TORSDOF 3
ENDMDL
MODEL 2
REMARK VINA RESULT:      -7.2      1.136      1.182
REMARK SMILES CC(=O)CCc1ccc2c(c1)OCO2
REMARK SMILES IDX 4 1 2 2 1 3 3 4 5 5 6 6 7 7 11 8 8 9 10 10 9 11 12 12 14 13
REMARK SMILES IDX 13 14
REMARK H PARENT
REMARK Flexibility Score: inf
ROOT
ATOM      1  C   UNL     1       6.369   1.219   0.918  1.00  0.00     0.080 C 
ENDROOT
BRANCH   1   2
ATOM      2  C   UNL     1       5.658   0.389   1.930  1.00  0.00     0.130 C 
ATOM      3  C   UNL     1       6.275  -0.835   2.509  1.00  0.00     0.087 C 
ATOM      4  O   UNL     1       4.540   0.691   2.314  1.00  0.00    -0.300 OA
ENDBRANCH   1   2
BRANCH   1   5
ATOM      5  C   UNL     1       5.857   0.941  -0.481  1.00  0.00     0.043 C 
BRANCH   5   6
ATOM      6  C   UNL     1       6.806   0.122  -1.257  1.00  0.00    -0.044 A 
ATOM      7  C   UNL     1       7.493   0.644  -2.359  1.00  0.00     0.008 A 
ATOM      8  C   UNL     1       7.031  -1.187  -0.897  1.00  0.00     0.054 A 
ATOM      9  C   UNL     1       8.372  -0.171  -3.049  1.00  0.00     0.051 A 
ATOM     10  C   UNL     1       7.921  -2.007  -1.597  1.00  0.00     0.166 A 
ATOM     11  C   UNL     1       8.597  -1.494  -2.683  1.00  0.00     0.165 A 
ATOM     12  O   UNL     1       8.311  -3.320  -1.441  1.00  0.00    -0.454 OA
ATOM     13  O   UNL     1       9.397  -2.514  -3.174  1.00  0.00    -0.454 OA
ATOM     14  C   UNL     1       9.315  -3.661  -2.362  1.00  0.00     0.468 C 
ENDBRANCH   5   6
ENDBRANCH   1   5
TORSDOF 3
ENDMDL
MODEL 3
REMARK VINA RESULT:      -7.0      1.837      2.349
REMARK SMILES CC(=O)CCc1ccc2c(c1)OCO2
REMARK SMILES IDX 4 1 2 2 1 3 3 4 5 5 6 6 7 7 11 8 8 9 10 10 9 11 12 12 14 13
REMARK SMILES IDX 13 14
REMARK H PARENT
REMARK Flexibility Score: inf
ROOT
ATOM      1  C   UNL     1       5.953   1.174  -0.179  1.00  0.00     0.080 C 
ENDROOT
BRANCH   1   2
ATOM      2  C   UNL     1       5.909   1.164   1.310  1.00  0.00     0.130 C 
ATOM      3  C   UNL     1       5.343   0.016   2.067  1.00  0.00     0.087 C 
ATOM      4  O   UNL     1       6.338   2.106   1.956  1.00  0.00    -0.300 OA
ENDBRANCH   1   2
BRANCH   1   5
ATOM      5  C   UNL     1       7.380   1.105  -0.687  1.00  0.00     0.043 C 
BRANCH   5   6
ATOM      6  C   UNL     1       7.721  -0.243  -1.176  1.00  0.00    -0.044 A 
ATOM      7  C   UNL     1       7.816  -0.524  -2.544  1.00  0.00     0.008 A 
ATOM      8  C   UNL     1       7.958  -1.256  -0.275  1.00  0.00     0.054 A 
ATOM      9  C   UNL     1       8.141  -1.807  -2.944  1.00  0.00     0.051 A 
ATOM     10  C   UNL     1       8.287  -2.551  -0.684  1.00  0.00     0.166 A 
ATOM     11  C   UNL     1       8.379  -2.829  -2.030  1.00  0.00     0.165 A 
ATOM     12  O   UNL     1       8.563  -3.713   0.005  1.00  0.00    -0.454 OA
ATOM     13  O   UNL     1       8.714  -4.170  -2.140  1.00  0.00    -0.454 OA
ATOM     14  C   UNL     1       8.929  -4.746  -0.874  1.00  0.00     0.468 C 
ENDBRANCH   5   6
ENDBRANCH   1   5
TORSDOF 3
ENDMDL
MODEL 4
REMARK VINA RESULT:      -6.6      2.076      2.631
REMARK SMILES CC(=O)CCc1ccc2c(c1)OCO2
REMARK SMILES IDX 4 1 2 2 1 3 3 4 5 5 6 6 7 7 11 8 8 9 10 10 9 11 12 12 14 13
REMARK SMILES IDX 13 14
REMARK H PARENT
REMARK Flexibility Score: inf
ROOT
ATOM      1  C   UNL     1       6.192  -0.378   2.333  1.00  0.00     0.080 C 
ENDROOT
BRANCH   1   2
ATOM      2  C   UNL     1       5.134   0.564   1.871  1.00  0.00     0.130 C 
ATOM      3  C   UNL     1       5.303   1.387   0.644  1.00  0.00     0.087 C 
ATOM      4  O   UNL     1       4.091   0.688   2.493  1.00  0.00    -0.300 OA
ENDBRANCH   1   2
BRANCH   1   5
ATOM      5  C   UNL     1       7.520  -0.085   1.664  1.00  0.00     0.043 C 
BRANCH   5   6
ATOM      6  C   UNL     1       7.802  -1.031   0.570  1.00  0.00    -0.044 A 
ATOM      7  C   UNL     1       7.667  -0.661  -0.773  1.00  0.00     0.008 A 
ATOM      8  C   UNL     1       8.211  -2.312   0.864  1.00  0.00     0.054 A 
ATOM      9  C   UNL     1       7.947  -1.591  -1.757  1.00  0.00     0.051 A 
ATOM     10  C   UNL     1       8.493  -3.249  -0.134  1.00  0.00     0.166 A 
ATOM     11  C   UNL     1       8.359  -2.886  -1.456  1.00  0.00     0.165 A 
ATOM     12  O   UNL     1       8.908  -4.563  -0.100  1.00  0.00    -0.454 OA
ATOM     13  O   UNL     1       8.699  -3.996  -2.213  1.00  0.00    -0.454 OA
ATOM     14  C   UNL     1       9.141  -5.053  -1.395  1.00  0.00     0.468 C 
ENDBRANCH   5   6
ENDBRANCH   1   5
TORSDOF 3
ENDMDL
MODEL 5
REMARK VINA RESULT:      -6.4      2.167      2.554
REMARK SMILES CC(=O)CCc1ccc2c(c1)OCO2
REMARK SMILES IDX 4 1 2 2 1 3 3 4 5 5 6 6 7 7 11 8 8 9 10 10 9 11 12 12 14 13
REMARK SMILES IDX 13 14
REMARK H PARENT
REMARK Flexibility Score: inf
ROOT
ATOM      1  C   UNL     1       5.824   1.055  -0.286  1.00  0.00     0.080 C 
ENDROOT
BRANCH   1   2
ATOM      2  C   UNL     1       5.733   1.258   1.187  1.00  0.00     0.130 C 
ATOM      3  C   UNL     1       4.880   0.392   2.044  1.00  0.00     0.087 C 
ATOM      4  O   UNL     1       6.362   2.148   1.737  1.00  0.00    -0.300 OA
ENDBRANCH   1   2
BRANCH   1   5
ATOM      5  C   UNL     1       7.259   0.843  -0.725  1.00  0.00     0.043 C 
BRANCH   5   6
ATOM      6  C   UNL     1       7.721  -0.528  -0.441  1.00  0.00    -0.044 A 
ATOM      7  C   UNL     1       7.965  -0.963   0.867  1.00  0.00     0.008 A 
ATOM      8  C   UNL     1       7.918  -1.410  -1.478  1.00  0.00     0.054 A 
ATOM      9  C   UNL     1       8.396  -2.260   1.073  1.00  0.00     0.051 A 
ATOM     10  C   UNL     1       8.354  -2.721  -1.265  1.00  0.00     0.166 A 
ATOM     11  C   UNL     1       8.595  -3.150   0.022  1.00  0.00     0.165 A 
ATOM     12  O   UNL     1       8.621  -3.773  -2.115  1.00  0.00    -0.454 OA
ATOM     13  O   UNL     1       9.008  -4.470  -0.066  1.00  0.00    -0.454 OA
ATOM     14  C   UNL     1       8.952  -4.933  -1.394  1.00  0.00     0.468 C 
ENDBRANCH   5   6
ENDBRANCH   1   5
TORSDOF 3
ENDMDL
