@<TRIPOS>MOLECULE
/home/cewinharhar/GITHUB/reincatalyze/data/processed/docking_pred/2023-May-30-2130_sub9_nm5_bs15_s42_ex16_mel10_mts10000_k50_ec05_g099_lra3e-4_lrc3e-3/2769ace7ab15be22ffee3dc1b6b5ad7143a6aff5_ligand_9.pdbqt
 14 15 0 0 0
SMALL
GASTEIGER

@<TRIPOS>ATOM
      1  C          6.1920   -0.3780    2.3330 C.3     1  UNL1        0.0800
      2  C          5.1340    0.5640    1.8710 C.2     1  UNL1        0.1300
      3  C          5.3030    1.3870    0.6440 C.3     1  UNL1        0.0870
      4  O          4.0910    0.6880    2.4930 O.2     1  UNL1       -0.3000
      5  C          7.5200   -0.0850    1.6640 C.3     1  UNL1        0.0430
      6  C          7.8020   -1.0310    0.5700 C.2     1  UNL1       -0.0440
      7  C          7.6670   -0.6610   -0.7730 C.2     1  UNL1        0.0080
      8  C          8.2110   -2.3120    0.8640 C.2     1  UNL1        0.0540
      9  C          7.9470   -1.5910   -1.7570 C.2     1  UNL1        0.0510
     10  C          8.4930   -3.2490   -0.1340 C.2     1  UNL1        0.1660
     11  C          8.3590   -2.8860   -1.4560 C.2     1  UNL1        0.1650
     12  O          8.9080   -4.5630   -0.1000 O.2     1  UNL1       -0.4540
     13  O          8.6990   -3.9960   -2.2130 O.2     1  UNL1       -0.4540
     14  C          9.1410   -5.0530   -1.3950 C.3     1  UNL1        0.4680
@<TRIPOS>BOND
     1    13    11    1
     2    13    14    1
     3     9    11    2
     4     9     7    1
     5    11    10    1
     6    14    12    1
     7     7     6    2
     8    10    12    1
     9    10     8    2
    10     6     8    1
    11     6     5    1
    12     3     2    1
    13     5     1    1
    14     2     1    1
    15     2     4    2
