@<TRIPOS>MOLECULE
/home/cewinharhar/GITHUB/reincatalyze/data/processed/docking_pred/2023-May-30-2130_sub9_nm5_bs15_s42_ex16_mel10_mts10000_k50_ec05_g099_lra3e-4_lrc3e-3/2769ace7ab15be22ffee3dc1b6b5ad7143a6aff5_ligand_9.pdbqt
 14 15 0 0 0
SMALL
GASTEIGER

@<TRIPOS>ATOM
      1  C          6.3690    1.2190    0.9180 C.3     1  UNL1        0.0800
      2  C          5.6580    0.3890    1.9300 C.2     1  UNL1        0.1300
      3  C          6.2750   -0.8350    2.5090 C.3     1  UNL1        0.0870
      4  O          4.5400    0.6910    2.3140 O.2     1  UNL1       -0.3000
      5  C          5.8570    0.9410   -0.4810 C.3     1  UNL1        0.0430
      6  C          6.8060    0.1220   -1.2570 C.2     1  UNL1       -0.0440
      7  C          7.4930    0.6440   -2.3590 C.2     1  UNL1        0.0080
      8  C          7.0310   -1.1870   -0.8970 C.2     1  UNL1        0.0540
      9  C          8.3720   -0.1710   -3.0490 C.2     1  UNL1        0.0510
     10  C          7.9210   -2.0070   -1.5970 C.2     1  UNL1        0.1660
     11  C          8.5970   -1.4940   -2.6830 C.2     1  UNL1        0.1650
     12  O          8.3110   -3.3200   -1.4410 O.2     1  UNL1       -0.4540
     13  O          9.3970   -2.5140   -3.1740 O.2     1  UNL1       -0.4540
     14  C          9.3150   -3.6610   -2.3620 C.3     1  UNL1        0.4680
@<TRIPOS>BOND
     1    13    11    1
     2    13    14    1
     3     9    11    2
     4     9     7    1
     5    11    10    1
     6    14    12    1
     7     7     6    2
     8    10    12    1
     9    10     8    2
    10     6     8    1
    11     6     5    1
    12     5     1    1
    13     1     2    1
    14     2     4    2
    15     2     3    1
