MODEL 1
REMARK VINA RESULT:      -7.8      0.000      0.000
REMARK SMILES CC(=O)CCc1ccc2c(c1)OCO2
REMARK SMILES IDX 4 1 2 2 1 3 3 4 5 5 6 6 7 7 11 8 8 9 10 10 9 11 12 12 14 13
REMARK SMILES IDX 13 14
REMARK H PARENT
REMARK Flexibility Score: inf
ROOT
ATOM      1  C   UNL     1       5.495   1.902   1.265  1.00  0.00     0.080 C 
ENDROOT
BRANCH   1   2
ATOM      2  C   UNL     1       5.012   0.695   1.993  1.00  0.00     0.130 C 
ATOM      3  C   UNL     1       5.838  -0.538   2.094  1.00  0.00     0.087 C 
ATOM      4  O   UNL     1       3.916   0.684   2.529  1.00  0.00    -0.300 OA
ENDBRANCH   1   2
BRANCH   1   5
ATOM      5  C   UNL     1       5.379   1.723  -0.235  1.00  0.00     0.043 C 
BRANCH   5   6
ATOM      6  C   UNL     1       6.552   1.029  -0.795  1.00  0.00    -0.044 A 
ATOM      7  C   UNL     1       7.856   1.468  -0.538  1.00  0.00     0.008 A 
ATOM      8  C   UNL     1       6.373  -0.081  -1.590  1.00  0.00     0.054 A 
ATOM      9  C   UNL     1       8.918   0.775  -1.090  1.00  0.00     0.051 A 
ATOM     10  C   UNL     1       7.450  -0.778  -2.145  1.00  0.00     0.166 A 
ATOM     11  C   UNL     1       8.733  -0.346  -1.894  1.00  0.00     0.165 A 
ATOM     12  O   UNL     1       7.532  -1.891  -2.955  1.00  0.00    -0.454 OA
ATOM     13  O   UNL     1       9.586  -1.212  -2.560  1.00  0.00    -0.454 OA
ATOM     14  C   UNL     1       8.870  -2.259  -3.171  1.00  0.00     0.468 C 
ENDBRANCH   5   6
ENDBRANCH   1   5
TORSDOF 3
ENDMDL
MODEL 2
REMARK VINA RESULT:      -7.5      1.969      2.434
REMARK SMILES CC(=O)CCc1ccc2c(c1)OCO2
REMARK SMILES IDX 4 1 2 2 1 3 3 4 5 5 6 6 7 7 11 8 8 9 10 10 9 11 12 12 14 13
REMARK SMILES IDX 13 14
REMARK H PARENT
REMARK Flexibility Score: inf
ROOT
ATOM      1  C   UNL     1       5.738   1.275  -0.271  1.00  0.00     0.080 C 
ENDROOT
BRANCH   1   2
ATOM      2  C   UNL     1       5.180   1.239   1.110  1.00  0.00     0.130 C 
ATOM      3  C   UNL     1       5.446   0.102   2.031  1.00  0.00     0.087 C 
ATOM      4  O   UNL     1       4.483   2.150   1.528  1.00  0.00    -0.300 OA
ENDBRANCH   1   2
BRANCH   1   5
ATOM      5  C   UNL     1       7.240   1.068  -0.263  1.00  0.00     0.043 C 
BRANCH   5   6
ATOM      6  C   UNL     1       7.615  -0.231  -0.849  1.00  0.00    -0.044 A 
ATOM      7  C   UNL     1       7.678  -0.420  -2.235  1.00  0.00     0.008 A 
ATOM      8  C   UNL     1       7.916  -1.291  -0.024  1.00  0.00     0.054 A 
ATOM      9  C   UNL     1       8.037  -1.661  -2.728  1.00  0.00     0.051 A 
ATOM     10  C   UNL     1       8.279  -2.544  -0.527  1.00  0.00     0.166 A 
ATOM     11  C   UNL     1       8.340  -2.730  -1.890  1.00  0.00     0.165 A 
ATOM     12  O   UNL     1       8.619  -3.736   0.076  1.00  0.00    -0.454 OA
ATOM     13  O   UNL     1       8.720  -4.047  -2.098  1.00  0.00    -0.454 OA
ATOM     14  C   UNL     1       8.996  -4.695  -0.879  1.00  0.00     0.468 C 
ENDBRANCH   5   6
ENDBRANCH   1   5
TORSDOF 3
ENDMDL
MODEL 3
REMARK VINA RESULT:      -7.3      2.060      2.628
REMARK SMILES CC(=O)CCc1ccc2c(c1)OCO2
REMARK SMILES IDX 4 1 2 2 1 3 3 4 5 5 6 6 7 7 11 8 8 9 10 10 9 11 12 12 14 13
REMARK SMILES IDX 13 14
REMARK H PARENT
REMARK Flexibility Score: inf
ROOT
ATOM      1  C   UNL     1       5.405  -0.065   1.996  1.00  0.00     0.080 C 
ENDROOT
BRANCH   1   2
ATOM      2  C   UNL     1       4.576   1.150   1.760  1.00  0.00     0.130 C 
ATOM      3  C   UNL     1       4.918   2.134   0.699  1.00  0.00     0.087 C 
ATOM      4  O   UNL     1       3.585   1.373   2.436  1.00  0.00    -0.300 OA
ENDBRANCH   1   2
BRANCH   1   5
ATOM      5  C   UNL     1       6.850   0.170   1.601  1.00  0.00     0.043 C 
BRANCH   5   6
ATOM      6  C   UNL     1       7.280  -0.748   0.531  1.00  0.00    -0.044 A 
ATOM      7  C   UNL     1       7.155  -0.408  -0.821  1.00  0.00     0.008 A 
ATOM      8  C   UNL     1       7.820  -1.971   0.858  1.00  0.00     0.054 A 
ATOM      9  C   UNL     1       7.576  -1.310  -1.781  1.00  0.00     0.051 A 
ATOM     10  C   UNL     1       8.246  -2.879  -0.117  1.00  0.00     0.166 A 
ATOM     11  C   UNL     1       8.122  -2.546  -1.447  1.00  0.00     0.165 A 
ATOM     12  O   UNL     1       8.806  -4.137  -0.049  1.00  0.00    -0.454 OA
ATOM     13  O   UNL     1       8.615  -3.617  -2.176  1.00  0.00    -0.454 OA
ATOM     14  C   UNL     1       9.143  -4.609  -1.328  1.00  0.00     0.468 C 
ENDBRANCH   5   6
ENDBRANCH   1   5
TORSDOF 3
ENDMDL
MODEL 4
REMARK VINA RESULT:      -7.2      1.270      1.486
REMARK SMILES CC(=O)CCc1ccc2c(c1)OCO2
REMARK SMILES IDX 4 1 2 2 1 3 3 4 5 5 6 6 7 7 11 8 8 9 10 10 9 11 12 12 14 13
REMARK SMILES IDX 13 14
REMARK H PARENT
REMARK Flexibility Score: inf
ROOT
ATOM      1  C   UNL     1       6.390   1.215   0.922  1.00  0.00     0.080 C 
ENDROOT
BRANCH   1   2
ATOM      2  C   UNL     1       5.662   0.394   1.930  1.00  0.00     0.130 C 
ATOM      3  C   UNL     1       6.266  -0.828   2.524  1.00  0.00     0.087 C 
ATOM      4  O   UNL     1       4.541   0.704   2.298  1.00  0.00    -0.300 OA
ENDBRANCH   1   2
BRANCH   1   5
ATOM      5  C   UNL     1       5.888   0.937  -0.481  1.00  0.00     0.043 C 
BRANCH   5   6
ATOM      6  C   UNL     1       6.833   0.104  -1.245  1.00  0.00    -0.044 A 
ATOM      7  C   UNL     1       7.526   0.608  -2.352  1.00  0.00     0.008 A 
ATOM      8  C   UNL     1       7.050  -1.202  -0.868  1.00  0.00     0.054 A 
ATOM      9  C   UNL     1       8.401  -0.221  -3.030  1.00  0.00     0.051 A 
ATOM     10  C   UNL     1       7.937  -2.036  -1.556  1.00  0.00     0.166 A 
ATOM     11  C   UNL     1       8.618  -1.541  -2.646  1.00  0.00     0.165 A 
ATOM     12  O   UNL     1       8.319  -3.349  -1.382  1.00  0.00    -0.454 OA
ATOM     13  O   UNL     1       9.413  -2.571  -3.123  1.00  0.00    -0.454 OA
ATOM     14  C   UNL     1       9.323  -3.707  -2.297  1.00  0.00     0.468 C 
ENDBRANCH   5   6
ENDBRANCH   1   5
TORSDOF 3
ENDMDL
MODEL 5
REMARK VINA RESULT:      -7.1      1.959      2.498
REMARK SMILES CC(=O)CCc1ccc2c(c1)OCO2
REMARK SMILES IDX 4 1 2 2 1 3 3 4 5 5 6 6 7 7 11 8 8 9 10 10 9 11 12 12 14 13
REMARK SMILES IDX 13 14
REMARK H PARENT
REMARK Flexibility Score: inf
ROOT
ATOM      1  C   UNL     1       6.681   0.713   1.378  1.00  0.00     0.080 C 
ENDROOT
BRANCH   1   2
ATOM      2  C   UNL     1       5.256   1.142   1.451  1.00  0.00     0.130 C 
ATOM      3  C   UNL     1       4.694   2.147   0.508  1.00  0.00     0.087 C 
ATOM      4  O   UNL     1       4.505   0.679   2.293  1.00  0.00    -0.300 OA
ENDBRANCH   1   2
BRANCH   1   5
ATOM      5  C   UNL     1       7.269   0.986   0.007  1.00  0.00     0.043 C 
BRANCH   5   6
ATOM      6  C   UNL     1       7.645  -0.259  -0.684  1.00  0.00    -0.044 A 
ATOM      7  C   UNL     1       7.666  -0.345  -2.081  1.00  0.00     0.008 A 
ATOM      8  C   UNL     1       7.989  -1.371   0.051  1.00  0.00     0.054 A 
ATOM      9  C   UNL     1       8.029  -1.540  -2.675  1.00  0.00     0.051 A 
ATOM     10  C   UNL     1       8.355  -2.577  -0.554  1.00  0.00     0.166 A 
ATOM     11  C   UNL     1       8.375  -2.662  -1.928  1.00  0.00     0.165 A 
ATOM     12  O   UNL     1       8.732  -3.804  -0.051  1.00  0.00    -0.454 OA
ATOM     13  O   UNL     1       8.769  -3.953  -2.244  1.00  0.00    -0.454 OA
ATOM     14  C   UNL     1       9.093  -4.683  -1.085  1.00  0.00     0.468 C 
ENDBRANCH   5   6
ENDBRANCH   1   5
TORSDOF 3
ENDMDL
