@<TRIPOS>MOLECULE
/home/cewinharhar/GITHUB/reincatalyze/data/processed/docking_pred/2023-May-30-2130_sub9_nm5_bs15_s42_ex16_mel10_mts10000_k50_ec05_g099_lra3e-4_lrc3e-3/287d700aa29cdd08db1558ad291e1b5912b75232_ligand_9.pdbqt
 14 15 0 0 0
SMALL
GASTEIGER

@<TRIPOS>ATOM
      1  C          5.4950    1.9020    1.2650 C.3     1  UNL1        0.0800
      2  C          5.0120    0.6950    1.9930 C.2     1  UNL1        0.1300
      3  C          5.8380   -0.5380    2.0940 C.3     1  UNL1        0.0870
      4  O          3.9160    0.6840    2.5290 O.2     1  UNL1       -0.3000
      5  C          5.3790    1.7230   -0.2350 C.3     1  UNL1        0.0430
      6  C          6.5520    1.0290   -0.7950 C.2     1  UNL1       -0.0440
      7  C          7.8560    1.4680   -0.5380 C.2     1  UNL1        0.0080
      8  C          6.3730   -0.0810   -1.5900 C.2     1  UNL1        0.0540
      9  C          8.9180    0.7750   -1.0900 C.2     1  UNL1        0.0510
     10  C          7.4500   -0.7780   -2.1450 C.2     1  UNL1        0.1660
     11  C          8.7330   -0.3460   -1.8940 C.2     1  UNL1        0.1650
     12  O          7.5320   -1.8910   -2.9550 O.2     1  UNL1       -0.4540
     13  O          9.5860   -1.2120   -2.5600 O.2     1  UNL1       -0.4540
     14  C          8.8700   -2.2590   -3.1710 C.3     1  UNL1        0.4680
@<TRIPOS>BOND
     1    14    12    1
     2    14    13    1
     3    12    10    1
     4    13    11    1
     5    10    11    2
     6    10     8    1
     7    11     9    1
     8     8     6    2
     9     9     7    2
    10     6     7    1
    11     6     5    1
    12     5     1    1
    13     1     2    1
    14     2     3    1
    15     2     4    2
