@<TRIPOS>MOLECULE
/home/cewinharhar/GITHUB/reincatalyze/data/processed/docking_pred/2023-May-30-2130_sub9_nm5_bs15_s42_ex16_mel10_mts10000_k50_ec05_g099_lra3e-4_lrc3e-3/287d700aa29cdd08db1558ad291e1b5912b75232_ligand_9.pdbqt
 14 15 0 0 0
SMALL
GASTEIGER

@<TRIPOS>ATOM
      1  C          6.6810    0.7130    1.3780 C.3     1  UNL1        0.0800
      2  C          5.2560    1.1420    1.4510 C.2     1  UNL1        0.1300
      3  C          4.6940    2.1470    0.5080 C.3     1  UNL1        0.0870
      4  O          4.5050    0.6790    2.2930 O.2     1  UNL1       -0.3000
      5  C          7.2690    0.9860    0.0070 C.3     1  UNL1        0.0430
      6  C          7.6450   -0.2590   -0.6840 C.2     1  UNL1       -0.0440
      7  C          7.6660   -0.3450   -2.0810 C.2     1  UNL1        0.0080
      8  C          7.9890   -1.3710    0.0510 C.2     1  UNL1        0.0540
      9  C          8.0290   -1.5400   -2.6750 C.2     1  UNL1        0.0510
     10  C          8.3550   -2.5770   -0.5540 C.2     1  UNL1        0.1660
     11  C          8.3750   -2.6620   -1.9280 C.2     1  UNL1        0.1650
     12  O          8.7320   -3.8040   -0.0510 O.2     1  UNL1       -0.4540
     13  O          8.7690   -3.9530   -2.2440 O.2     1  UNL1       -0.4540
     14  C          9.0930   -4.6830   -1.0850 C.3     1  UNL1        0.4680
@<TRIPOS>BOND
     1     9     7    1
     2     9    11    2
     3    13    11    1
     4    13    14    1
     5     7     6    2
     6    11    10    1
     7    14    12    1
     8     6     5    1
     9     6     8    1
    10    10    12    1
    11    10     8    2
    12     5     1    1
    13     3     2    1
    14     1     2    1
    15     2     4    2
