MODEL 1
REMARK VINA RESULT:      -7.7      0.000      0.000
REMARK SMILES CC(=O)CCc1ccc2c(c1)OCO2
REMARK SMILES IDX 4 1 2 2 1 3 3 4 5 5 6 6 7 7 11 8 8 9 10 10 9 11 12 12 14 13
REMARK SMILES IDX 13 14
REMARK H PARENT
REMARK Flexibility Score: inf
ROOT
ATOM      1  C   UNL     1       5.501   1.929   1.248  1.00  0.00     0.080 C 
ENDROOT
BRANCH   1   2
ATOM      2  C   UNL     1       5.018   0.728   1.985  1.00  0.00     0.130 C 
ATOM      3  C   UNL     1       5.850  -0.499   2.109  1.00  0.00     0.087 C 
ATOM      4  O   UNL     1       3.918   0.717   2.512  1.00  0.00    -0.300 OA
ENDBRANCH   1   2
BRANCH   1   5
ATOM      5  C   UNL     1       5.386   1.738  -0.251  1.00  0.00     0.043 C 
BRANCH   5   6
ATOM      6  C   UNL     1       6.558   1.036  -0.804  1.00  0.00    -0.044 A 
ATOM      7  C   UNL     1       7.863   1.466  -0.538  1.00  0.00     0.008 A 
ATOM      8  C   UNL     1       6.377  -0.072  -1.601  1.00  0.00     0.054 A 
ATOM      9  C   UNL     1       8.924   0.767  -1.083  1.00  0.00     0.051 A 
ATOM     10  C   UNL     1       7.454  -0.775  -2.149  1.00  0.00     0.166 A 
ATOM     11  C   UNL     1       8.738  -0.352  -1.889  1.00  0.00     0.165 A 
ATOM     12  O   UNL     1       7.534  -1.888  -2.960  1.00  0.00    -0.454 OA
ATOM     13  O   UNL     1       9.589  -1.223  -2.550  1.00  0.00    -0.454 OA
ATOM     14  C   UNL     1       8.871  -2.265  -3.167  1.00  0.00     0.468 C 
ENDBRANCH   5   6
ENDBRANCH   1   5
TORSDOF 3
ENDMDL
MODEL 2
REMARK VINA RESULT:      -7.5      1.910      2.354
REMARK SMILES CC(=O)CCc1ccc2c(c1)OCO2
REMARK SMILES IDX 4 1 2 2 1 3 3 4 5 5 6 6 7 7 11 8 8 9 10 10 9 11 12 12 14 13
REMARK SMILES IDX 13 14
REMARK H PARENT
REMARK Flexibility Score: inf
ROOT
ATOM      1  C   UNL     1       5.720   1.368  -0.260  1.00  0.00     0.080 C 
ENDROOT
BRANCH   1   2
ATOM      2  C   UNL     1       5.105   1.266   1.093  1.00  0.00     0.130 C 
ATOM      3  C   UNL     1       5.451   0.161   2.026  1.00  0.00     0.087 C 
ATOM      4  O   UNL     1       4.293   2.093   1.476  1.00  0.00    -0.300 OA
ENDBRANCH   1   2
BRANCH   1   5
ATOM      5  C   UNL     1       7.216   1.132  -0.204  1.00  0.00     0.043 C 
BRANCH   5   6
ATOM      6  C   UNL     1       7.591  -0.151  -0.826  1.00  0.00    -0.044 A 
ATOM      7  C   UNL     1       7.660  -0.298  -2.216  1.00  0.00     0.008 A 
ATOM      8  C   UNL     1       7.884  -1.235  -0.031  1.00  0.00     0.054 A 
ATOM      9  C   UNL     1       8.018  -1.526  -2.744  1.00  0.00     0.051 A 
ATOM     10  C   UNL     1       8.246  -2.474  -0.569  1.00  0.00     0.166 A 
ATOM     11  C   UNL     1       8.313  -2.620  -1.936  1.00  0.00     0.165 A 
ATOM     12  O   UNL     1       8.578  -3.685   0.001  1.00  0.00    -0.454 OA
ATOM     13  O   UNL     1       8.690  -3.931  -2.181  1.00  0.00    -0.454 OA
ATOM     14  C   UNL     1       8.957  -4.616  -0.980  1.00  0.00     0.468 C 
ENDBRANCH   5   6
ENDBRANCH   1   5
TORSDOF 3
ENDMDL
MODEL 3
REMARK VINA RESULT:      -7.3      2.066      2.618
REMARK SMILES CC(=O)CCc1ccc2c(c1)OCO2
REMARK SMILES IDX 4 1 2 2 1 3 3 4 5 5 6 6 7 7 11 8 8 9 10 10 9 11 12 12 14 13
REMARK SMILES IDX 13 14
REMARK H PARENT
REMARK Flexibility Score: inf
ROOT
ATOM      1  C   UNL     1       5.478  -0.005   2.032  1.00  0.00     0.080 C 
ENDROOT
BRANCH   1   2
ATOM      2  C   UNL     1       4.580   1.149   1.749  1.00  0.00     0.130 C 
ATOM      3  C   UNL     1       4.870   2.113   0.654  1.00  0.00     0.087 C 
ATOM      4  O   UNL     1       3.574   1.338   2.413  1.00  0.00    -0.300 OA
ENDBRANCH   1   2
BRANCH   1   5
ATOM      5  C   UNL     1       6.890   0.266   1.553  1.00  0.00     0.043 C 
BRANCH   5   6
ATOM      6  C   UNL     1       7.302  -0.682   0.503  1.00  0.00    -0.044 A 
ATOM      7  C   UNL     1       7.156  -0.380  -0.856  1.00  0.00     0.008 A 
ATOM      8  C   UNL     1       7.848  -1.896   0.855  1.00  0.00     0.054 A 
ATOM      9  C   UNL     1       7.561  -1.308  -1.798  1.00  0.00     0.051 A 
ATOM     10  C   UNL     1       8.257  -2.831  -0.101  1.00  0.00     0.166 A 
ATOM     11  C   UNL     1       8.112  -2.534  -1.438  1.00  0.00     0.165 A 
ATOM     12  O   UNL     1       8.818  -4.087  -0.007  1.00  0.00    -0.454 OA
ATOM     13  O   UNL     1       8.593  -3.625  -2.145  1.00  0.00    -0.454 OA
ATOM     14  C   UNL     1       9.134  -4.594  -1.278  1.00  0.00     0.468 C 
ENDBRANCH   5   6
ENDBRANCH   1   5
TORSDOF 3
ENDMDL
MODEL 4
REMARK VINA RESULT:      -7.1      1.277      1.493
REMARK SMILES CC(=O)CCc1ccc2c(c1)OCO2
REMARK SMILES IDX 4 1 2 2 1 3 3 4 5 5 6 6 7 7 11 8 8 9 10 10 9 11 12 12 14 13
REMARK SMILES IDX 13 14
REMARK H PARENT
REMARK Flexibility Score: inf
ROOT
ATOM      1  C   UNL     1       6.388   1.181   0.961  1.00  0.00     0.080 C 
ENDROOT
BRANCH   1   2
ATOM      2  C   UNL     1       5.644   0.354   1.952  1.00  0.00     0.130 C 
ATOM      3  C   UNL     1       6.237  -0.874   2.546  1.00  0.00     0.087 C 
ATOM      4  O   UNL     1       4.518   0.663   2.307  1.00  0.00    -0.300 OA
ENDBRANCH   1   2
BRANCH   1   5
ATOM      5  C   UNL     1       5.886   0.935  -0.448  1.00  0.00     0.043 C 
BRANCH   5   6
ATOM      6  C   UNL     1       6.823   0.103  -1.224  1.00  0.00    -0.044 A 
ATOM      7  C   UNL     1       7.489   0.603  -2.349  1.00  0.00     0.008 A 
ATOM      8  C   UNL     1       7.059  -1.198  -0.840  1.00  0.00     0.054 A 
ATOM      9  C   UNL     1       8.357  -0.224  -3.037  1.00  0.00     0.051 A 
ATOM     10  C   UNL     1       7.939  -2.030  -1.539  1.00  0.00     0.166 A 
ATOM     11  C   UNL     1       8.593  -1.539  -2.647  1.00  0.00     0.165 A 
ATOM     12  O   UNL     1       8.337  -3.338  -1.362  1.00  0.00    -0.454 OA
ATOM     13  O   UNL     1       9.388  -2.566  -3.131  1.00  0.00    -0.454 OA
ATOM     14  C   UNL     1       9.325  -3.696  -2.294  1.00  0.00     0.468 C 
ENDBRANCH   5   6
ENDBRANCH   1   5
TORSDOF 3
ENDMDL
MODEL 5
REMARK VINA RESULT:      -7.0      1.961      2.495
REMARK SMILES CC(=O)CCc1ccc2c(c1)OCO2
REMARK SMILES IDX 4 1 2 2 1 3 3 4 5 5 6 6 7 7 11 8 8 9 10 10 9 11 12 12 14 13
REMARK SMILES IDX 13 14
REMARK H PARENT
REMARK Flexibility Score: inf
ROOT
ATOM      1  C   UNL     1       6.893   0.955   1.272  1.00  0.00     0.080 C 
ENDROOT
BRANCH   1   2
ATOM      2  C   UNL     1       5.425   1.138   1.445  1.00  0.00     0.130 C 
ATOM      3  C   UNL     1       4.667   2.149   0.661  1.00  0.00     0.087 C 
ATOM      4  O   UNL     1       4.799   0.459   2.243  1.00  0.00    -0.300 OA
ENDBRANCH   1   2
BRANCH   1   5
ATOM      5  C   UNL     1       7.302   1.120  -0.178  1.00  0.00     0.043 C 
BRANCH   5   6
ATOM      6  C   UNL     1       7.656  -0.170  -0.796  1.00  0.00    -0.044 A 
ATOM      7  C   UNL     1       7.732  -0.321  -2.186  1.00  0.00     0.008 A 
ATOM      8  C   UNL     1       7.922  -1.259   0.003  1.00  0.00     0.054 A 
ATOM      9  C   UNL     1       8.070  -1.556  -2.709  1.00  0.00     0.051 A 
ATOM     10  C   UNL     1       8.264  -2.505  -0.531  1.00  0.00     0.166 A 
ATOM     11  C   UNL     1       8.339  -2.655  -1.898  1.00  0.00     0.165 A 
ATOM     12  O   UNL     1       8.569  -3.721   0.042  1.00  0.00    -0.454 OA
ATOM     13  O   UNL     1       8.692  -3.973  -2.139  1.00  0.00    -0.454 OA
ATOM     14  C   UNL     1       8.937  -4.661  -0.935  1.00  0.00     0.468 C 
ENDBRANCH   5   6
ENDBRANCH   1   5
TORSDOF 3
ENDMDL
