@<TRIPOS>MOLECULE
/home/cewinharhar/GITHUB/reincatalyze/data/processed/docking_pred/2023-May-30-2130_sub9_nm5_bs15_s42_ex16_mel10_mts10000_k50_ec05_g099_lra3e-4_lrc3e-3/2a0aad93ad29a782c4c2e70d3ae8f055e170dbd2_ligand_9.pdbqt
 14 15 0 0 0
SMALL
GASTEIGER

@<TRIPOS>ATOM
      1  C          5.4780   -0.0050    2.0320 C.3     1  UNL1        0.0800
      2  C          4.5800    1.1490    1.7490 C.2     1  UNL1        0.1300
      3  C          4.8700    2.1130    0.6540 C.3     1  UNL1        0.0870
      4  O          3.5740    1.3380    2.4130 O.2     1  UNL1       -0.3000
      5  C          6.8900    0.2660    1.5530 C.3     1  UNL1        0.0430
      6  C          7.3020   -0.6820    0.5030 C.2     1  UNL1       -0.0440
      7  C          7.1560   -0.3800   -0.8560 C.2     1  UNL1        0.0080
      8  C          7.8480   -1.8960    0.8550 C.2     1  UNL1        0.0540
      9  C          7.5610   -1.3080   -1.7980 C.2     1  UNL1        0.0510
     10  C          8.2570   -2.8310   -0.1010 C.2     1  UNL1        0.1660
     11  C          8.1120   -2.5340   -1.4380 C.2     1  UNL1        0.1650
     12  O          8.8180   -4.0870   -0.0070 O.2     1  UNL1       -0.4540
     13  O          8.5930   -3.6250   -2.1450 O.2     1  UNL1       -0.4540
     14  C          9.1340   -4.5940   -1.2780 C.3     1  UNL1        0.4680
@<TRIPOS>BOND
     1    13    11    1
     2    13    14    1
     3     9    11    2
     4     9     7    1
     5    11    10    1
     6    14    12    1
     7     7     6    2
     8    10    12    1
     9    10     8    2
    10     6     8    1
    11     6     5    1
    12     3     2    1
    13     5     1    1
    14     2     1    1
    15     2     4    2
