@<TRIPOS>MOLECULE
/home/cewinharhar/GITHUB/reincatalyze/data/processed/docking_pred/2023-May-30-2130_sub9_nm5_bs15_s42_ex16_mel10_mts10000_k50_ec05_g099_lra3e-4_lrc3e-3/2a0aad93ad29a782c4c2e70d3ae8f055e170dbd2_ligand_9.pdbqt
 14 15 0 0 0
SMALL
GASTEIGER

@<TRIPOS>ATOM
      1  C          6.3880    1.1810    0.9610 C.3     1  UNL1        0.0800
      2  C          5.6440    0.3540    1.9520 C.2     1  UNL1        0.1300
      3  C          6.2370   -0.8740    2.5460 C.3     1  UNL1        0.0870
      4  O          4.5180    0.6630    2.3070 O.2     1  UNL1       -0.3000
      5  C          5.8860    0.9350   -0.4480 C.3     1  UNL1        0.0430
      6  C          6.8230    0.1030   -1.2240 C.2     1  UNL1       -0.0440
      7  C          7.4890    0.6030   -2.3490 C.2     1  UNL1        0.0080
      8  C          7.0590   -1.1980   -0.8400 C.2     1  UNL1        0.0540
      9  C          8.3570   -0.2240   -3.0370 C.2     1  UNL1        0.0510
     10  C          7.9390   -2.0300   -1.5390 C.2     1  UNL1        0.1660
     11  C          8.5930   -1.5390   -2.6470 C.2     1  UNL1        0.1650
     12  O          8.3370   -3.3380   -1.3620 O.2     1  UNL1       -0.4540
     13  O          9.3880   -2.5660   -3.1310 O.2     1  UNL1       -0.4540
     14  C          9.3250   -3.6960   -2.2940 C.3     1  UNL1        0.4680
@<TRIPOS>BOND
     1    13    11    1
     2    13    14    1
     3     9    11    2
     4     9     7    1
     5    11    10    1
     6     7     6    2
     7    14    12    1
     8    10    12    1
     9    10     8    2
    10     6     8    1
    11     6     5    1
    12     5     1    1
    13     1     2    1
    14     2     4    2
    15     2     3    1
