@<TRIPOS>MOLECULE
/home/cewinharhar/GITHUB/reincatalyze/data/processed/docking_pred/2023-May-30-2130_sub9_nm5_bs15_s42_ex16_mel10_mts10000_k50_ec05_g099_lra3e-4_lrc3e-3/2a0aad93ad29a782c4c2e70d3ae8f055e170dbd2_ligand_9.pdbqt
 14 15 0 0 0
SMALL
GASTEIGER

@<TRIPOS>ATOM
      1  C          5.7200    1.3680   -0.2600 C.3     1  UNL1        0.0800
      2  C          5.1050    1.2660    1.0930 C.2     1  UNL1        0.1300
      3  C          5.4510    0.1610    2.0260 C.3     1  UNL1        0.0870
      4  O          4.2930    2.0930    1.4760 O.2     1  UNL1       -0.3000
      5  C          7.2160    1.1320   -0.2040 C.3     1  UNL1        0.0430
      6  C          7.5910   -0.1510   -0.8260 C.2     1  UNL1       -0.0440
      7  C          7.6600   -0.2980   -2.2160 C.2     1  UNL1        0.0080
      8  C          7.8840   -1.2350   -0.0310 C.2     1  UNL1        0.0540
      9  C          8.0180   -1.5260   -2.7440 C.2     1  UNL1        0.0510
     10  C          8.2460   -2.4740   -0.5690 C.2     1  UNL1        0.1660
     11  C          8.3130   -2.6200   -1.9360 C.2     1  UNL1        0.1650
     12  O          8.5780   -3.6850    0.0010 O.2     1  UNL1       -0.4540
     13  O          8.6900   -3.9310   -2.1810 O.2     1  UNL1       -0.4540
     14  C          8.9570   -4.6160   -0.9800 C.3     1  UNL1        0.4680
@<TRIPOS>BOND
     1     9     7    1
     2     9    11    2
     3     7     6    2
     4    13    11    1
     5    13    14    1
     6    11    10    1
     7    14    12    1
     8     6     5    1
     9     6     8    1
    10    10     8    2
    11    10    12    1
    12     1     5    1
    13     1     2    1
    14     2     4    2
    15     2     3    1
