@<TRIPOS>MOLECULE
/home/cewinharhar/GITHUB/reincatalyze/data/processed/docking_pred/2023-May-30-2130_sub9_nm5_bs15_s42_ex16_mel10_mts10000_k50_ec05_g099_lra3e-4_lrc3e-3/2a0aad93ad29a782c4c2e70d3ae8f055e170dbd2_ligand_9.pdbqt
 14 15 0 0 0
SMALL
GASTEIGER

@<TRIPOS>ATOM
      1  C          5.5010    1.9290    1.2480 C.3     1  UNL1        0.0800
      2  C          5.0180    0.7280    1.9850 C.2     1  UNL1        0.1300
      3  C          5.8500   -0.4990    2.1090 C.3     1  UNL1        0.0870
      4  O          3.9180    0.7170    2.5120 O.2     1  UNL1       -0.3000
      5  C          5.3860    1.7380   -0.2510 C.3     1  UNL1        0.0430
      6  C          6.5580    1.0360   -0.8040 C.2     1  UNL1       -0.0440
      7  C          7.8630    1.4660   -0.5380 C.2     1  UNL1        0.0080
      8  C          6.3770   -0.0720   -1.6010 C.2     1  UNL1        0.0540
      9  C          8.9240    0.7670   -1.0830 C.2     1  UNL1        0.0510
     10  C          7.4540   -0.7750   -2.1490 C.2     1  UNL1        0.1660
     11  C          8.7380   -0.3520   -1.8890 C.2     1  UNL1        0.1650
     12  O          7.5340   -1.8880   -2.9600 O.2     1  UNL1       -0.4540
     13  O          9.5890   -1.2230   -2.5500 O.2     1  UNL1       -0.4540
     14  C          8.8710   -2.2650   -3.1670 C.3     1  UNL1        0.4680
@<TRIPOS>BOND
     1    14    12    1
     2    14    13    1
     3    12    10    1
     4    13    11    1
     5    10    11    2
     6    10     8    1
     7    11     9    1
     8     8     6    2
     9     9     7    2
    10     6     7    1
    11     6     5    1
    12     5     1    1
    13     1     2    1
    14     2     3    1
    15     2     4    2
