@<TRIPOS>MOLECULE
/home/cewinharhar/GITHUB/reincatalyze/data/processed/docking_pred/2023-May-30-2130_sub9_nm5_bs15_s42_ex16_mel10_mts10000_k50_ec05_g099_lra3e-4_lrc3e-3/2b606219d5526e18d91eeb9dfd7a568ae4147191_ligand_9.pdbqt
 14 15 0 0 0
SMALL
GASTEIGER

@<TRIPOS>ATOM
      1  C          6.4060    1.2010    0.9380 C.3     1  UNL1        0.0800
      2  C          5.6760    0.3620    1.9290 C.2     1  UNL1        0.1300
      3  C          6.2770   -0.8740    2.4980 C.3     1  UNL1        0.0870
      4  O          4.5560    0.6670    2.3040 O.2     1  UNL1       -0.3000
      5  C          5.9010    0.9540   -0.4700 C.3     1  UNL1        0.0430
      6  C          6.8340    0.1170   -1.2460 C.2     1  UNL1       -0.0440
      7  C          7.5140    0.6180   -2.3620 C.2     1  UNL1        0.0080
      8  C          7.0510   -1.1890   -0.8710 C.2     1  UNL1        0.0540
      9  C          8.3770   -0.2140   -3.0500 C.2     1  UNL1        0.0510
     10  C          7.9260   -2.0260   -1.5700 C.2     1  UNL1        0.1660
     11  C          8.5940   -1.5350   -2.6690 C.2     1  UNL1        0.1650
     12  O          8.3050   -3.3410   -1.4000 O.2     1  UNL1       -0.4540
     13  O          9.3790   -2.5680   -3.1560 O.2     1  UNL1       -0.4540
     14  C          9.2960   -3.7030   -2.3280 C.3     1  UNL1        0.4680
@<TRIPOS>BOND
     1    13    11    1
     2    13    14    1
     3     9    11    2
     4     9     7    1
     5    11    10    1
     6     7     6    2
     7    14    12    1
     8    10    12    1
     9    10     8    2
    10     6     8    1
    11     6     5    1
    12     5     1    1
    13     1     2    1
    14     2     4    2
    15     2     3    1
