@<TRIPOS>MOLECULE
/home/cewinharhar/GITHUB/reincatalyze/data/processed/docking_pred/2023-May-30-2130_sub9_nm5_bs15_s42_ex16_mel10_mts10000_k50_ec05_g099_lra3e-4_lrc3e-3/2b606219d5526e18d91eeb9dfd7a568ae4147191_ligand_9.pdbqt
 14 15 0 0 0
SMALL
GASTEIGER

@<TRIPOS>ATOM
      1  C          6.9650    0.9270    1.1660 C.3     1  UNL1        0.0800
      2  C          5.5160    1.2110    1.3640 C.2     1  UNL1        0.1300
      3  C          4.7760    2.1500    0.4790 C.3     1  UNL1        0.0870
      4  O          4.8900    0.6760    2.2650 O.2     1  UNL1       -0.3000
      5  C          7.3620    1.0790   -0.2890 C.3     1  UNL1        0.0430
      6  C          7.7210   -0.2150   -0.8960 C.2     1  UNL1       -0.0440
      7  C          7.8390   -0.3670   -2.2820 C.2     1  UNL1        0.0080
      8  C          7.9510   -1.3060   -0.0890 C.2     1  UNL1        0.0540
      9  C          8.1810   -1.6050   -2.7950 C.2     1  UNL1        0.0510
     10  C          8.2970   -2.5560   -0.6120 C.2     1  UNL1        0.1660
     11  C          8.4120   -2.7060   -1.9760 C.2     1  UNL1        0.1650
     12  O          8.5710   -3.7750   -0.0300 O.2     1  UNL1       -0.4540
     13  O          8.7590   -4.0280   -2.2060 O.2     1  UNL1       -0.4540
     14  C          8.9590   -4.7190   -0.9950 C.3     1  UNL1        0.4680
@<TRIPOS>BOND
     1     9     7    1
     2     9    11    2
     3     7     6    2
     4    13    11    1
     5    13    14    1
     6    11    10    1
     7    14    12    1
     8     6     5    1
     9     6     8    1
    10    10     8    2
    11    10    12    1
    12     5     1    1
    13     3     2    1
    14     1     2    1
    15     2     4    2
