@<TRIPOS>MOLECULE
/home/cewinharhar/GITHUB/reincatalyze/data/processed/docking_pred/2023-May-30-2130_sub9_nm5_bs15_s42_ex16_mel10_mts10000_k50_ec05_g099_lra3e-4_lrc3e-3/2b606219d5526e18d91eeb9dfd7a568ae4147191_ligand_9.pdbqt
 14 15 0 0 0
SMALL
GASTEIGER

@<TRIPOS>ATOM
      1  C          5.5420    0.0310    1.9510 C.3     1  UNL1        0.0800
      2  C          4.6610    1.1890    1.6300 C.2     1  UNL1        0.1300
      3  C          4.9710    2.1190    0.5120 C.3     1  UNL1        0.0870
      4  O          3.6530    1.4080    2.2820 O.2     1  UNL1       -0.3000
      5  C          6.9650    0.2770    1.4900 C.3     1  UNL1        0.0430
      6  C          7.3770   -0.6830    0.4510 C.2     1  UNL1       -0.0440
      7  C          7.2890   -0.3720   -0.9110 C.2     1  UNL1        0.0080
      8  C          7.8640   -1.9170    0.8170 C.2     1  UNL1        0.0540
      9  C          7.6920   -1.3130   -1.8410 C.2     1  UNL1        0.0510
     10  C          8.2700   -2.8650   -0.1270 C.2     1  UNL1        0.1660
     11  C          8.1830   -2.5600   -1.4670 C.2     1  UNL1        0.1650
     12  O          8.7800   -4.1410   -0.0180 O.2     1  UNL1       -0.4540
     13  O          8.6470   -3.6670   -2.1610 O.2     1  UNL1       -0.4540
     14  C          9.1200   -4.6570   -1.2800 C.3     1  UNL1        0.4680
@<TRIPOS>BOND
     1    13    11    1
     2    13    14    1
     3     9    11    2
     4     9     7    1
     5    11    10    1
     6    14    12    1
     7     7     6    2
     8    10    12    1
     9    10     8    2
    10     6     8    1
    11     6     5    1
    12     3     2    1
    13     5     1    1
    14     2     1    1
    15     2     4    2
