@<TRIPOS>MOLECULE
/home/cewinharhar/GITHUB/reincatalyze/data/processed/docking_pred/2023-May-30-2130_sub9_nm5_bs15_s42_ex16_mel10_mts10000_k50_ec05_g099_lra3e-4_lrc3e-3/2b606219d5526e18d91eeb9dfd7a568ae4147191_ligand_9.pdbqt
 14 15 0 0 0
SMALL
GASTEIGER

@<TRIPOS>ATOM
      1  C          5.6560    1.4650   -0.2430 C.3     1  UNL1        0.0800
      2  C          5.0660    1.3110    1.1160 C.2     1  UNL1        0.1300
      3  C          5.3950    0.1470    1.9820 C.3     1  UNL1        0.0870
      4  O          4.2900    2.1410    1.5600 O.2     1  UNL1       -0.3000
      5  C          7.1580    1.2650   -0.2180 C.3     1  UNL1        0.0430
      6  C          7.5480   -0.0190   -0.8280 C.2     1  UNL1       -0.0440
      7  C          7.6510   -0.1690   -2.2160 C.2     1  UNL1        0.0080
      8  C          7.8240   -1.1010   -0.0240 C.2     1  UNL1        0.0540
      9  C          8.0230   -1.3970   -2.7320 C.2     1  UNL1        0.0510
     10  C          8.2000   -2.3400   -0.5510 C.2     1  UNL1        0.1660
     11  C          8.3000   -2.4900   -1.9160 C.2     1  UNL1        0.1650
     12  O          8.5200   -3.5500    0.0290 O.2     1  UNL1       -0.4540
     13  O          8.6840   -3.8010   -2.1490 O.2     1  UNL1       -0.4540
     14  C          8.9230   -4.4830   -0.9400 C.3     1  UNL1        0.4680
@<TRIPOS>BOND
     1     9     7    1
     2     9    11    2
     3     7     6    2
     4    13    11    1
     5    13    14    1
     6    11    10    1
     7    14    12    1
     8     6     5    1
     9     6     8    1
    10    10     8    2
    11    10    12    1
    12     1     5    1
    13     1     2    1
    14     2     4    2
    15     2     3    1
