MODEL 1
REMARK VINA RESULT:      -7.7      0.000      0.000
REMARK SMILES CC(=O)CCc1ccc2c(c1)OCO2
REMARK SMILES IDX 4 1 2 2 1 3 3 4 5 5 6 6 7 7 11 8 8 9 10 10 9 11 12 12 14 13
REMARK SMILES IDX 13 14
REMARK H PARENT
REMARK Flexibility Score: inf
ROOT
ATOM      1  C   UNL     1       5.497   1.917   1.249  1.00  0.00     0.080 C 
ENDROOT
BRANCH   1   2
ATOM      2  C   UNL     1       5.041   0.710   1.993  1.00  0.00     0.130 C 
ATOM      3  C   UNL     1       5.898  -0.499   2.122  1.00  0.00     0.087 C 
ATOM      4  O   UNL     1       3.941   0.678   2.522  1.00  0.00    -0.300 OA
ENDBRANCH   1   2
BRANCH   1   5
ATOM      5  C   UNL     1       5.378   1.718  -0.249  1.00  0.00     0.043 C 
BRANCH   5   6
ATOM      6  C   UNL     1       6.553   1.024  -0.804  1.00  0.00    -0.044 A 
ATOM      7  C   UNL     1       7.856   1.463  -0.541  1.00  0.00     0.008 A 
ATOM      8  C   UNL     1       6.377  -0.086  -1.598  1.00  0.00     0.054 A 
ATOM      9  C   UNL     1       8.921   0.771  -1.088  1.00  0.00     0.051 A 
ATOM     10  C   UNL     1       7.457  -0.783  -2.148  1.00  0.00     0.166 A 
ATOM     11  C   UNL     1       8.739  -0.351  -1.892  1.00  0.00     0.165 A 
ATOM     12  O   UNL     1       7.543  -1.897  -2.957  1.00  0.00    -0.454 OA
ATOM     13  O   UNL     1       9.595  -1.217  -2.554  1.00  0.00    -0.454 OA
ATOM     14  C   UNL     1       8.882  -2.265  -3.168  1.00  0.00     0.468 C 
ENDBRANCH   5   6
ENDBRANCH   1   5
TORSDOF 3
ENDMDL
MODEL 2
REMARK VINA RESULT:      -7.4      1.924      2.381
REMARK SMILES CC(=O)CCc1ccc2c(c1)OCO2
REMARK SMILES IDX 4 1 2 2 1 3 3 4 5 5 6 6 7 7 11 8 8 9 10 10 9 11 12 12 14 13
REMARK SMILES IDX 13 14
REMARK H PARENT
REMARK Flexibility Score: inf
ROOT
ATOM      1  C   UNL     1       5.808   1.402  -0.253  1.00  0.00     0.080 C 
ENDROOT
BRANCH   1   2
ATOM      2  C   UNL     1       5.154   1.271   1.079  1.00  0.00     0.130 C 
ATOM      3  C   UNL     1       5.361   0.072   1.935  1.00  0.00     0.087 C 
ATOM      4  O   UNL     1       4.425   2.150   1.509  1.00  0.00    -0.300 OA
ENDBRANCH   1   2
BRANCH   1   5
ATOM      5  C   UNL     1       7.294   1.114  -0.168  1.00  0.00     0.043 C 
BRANCH   5   6
ATOM      6  C   UNL     1       7.638  -0.171  -0.802  1.00  0.00    -0.044 A 
ATOM      7  C   UNL     1       7.664  -0.319  -2.193  1.00  0.00     0.008 A 
ATOM      8  C   UNL     1       7.945  -1.258  -0.015  1.00  0.00     0.054 A 
ATOM      9  C   UNL     1       7.995  -1.549  -2.731  1.00  0.00     0.051 A 
ATOM     10  C   UNL     1       8.280  -2.500  -0.564  1.00  0.00     0.166 A 
ATOM     11  C   UNL     1       8.305  -2.646  -1.934  1.00  0.00     0.165 A 
ATOM     12  O   UNL     1       8.619  -3.714  -0.006  1.00  0.00    -0.454 OA
ATOM     13  O   UNL     1       8.663  -3.961  -2.190  1.00  0.00    -0.454 OA
ATOM     14  C   UNL     1       8.960  -4.648  -0.997  1.00  0.00     0.468 C 
ENDBRANCH   5   6
ENDBRANCH   1   5
TORSDOF 3
ENDMDL
MODEL 3
REMARK VINA RESULT:      -7.2      2.093      2.636
REMARK SMILES CC(=O)CCc1ccc2c(c1)OCO2
REMARK SMILES IDX 4 1 2 2 1 3 3 4 5 5 6 6 7 7 11 8 8 9 10 10 9 11 12 12 14 13
REMARK SMILES IDX 13 14
REMARK H PARENT
REMARK Flexibility Score: inf
ROOT
ATOM      1  C   UNL     1       5.548  -0.029   1.941  1.00  0.00     0.080 C 
ENDROOT
BRANCH   1   2
ATOM      2  C   UNL     1       4.686   1.144   1.629  1.00  0.00     0.130 C 
ATOM      3  C   UNL     1       5.030   2.099   0.542  1.00  0.00     0.087 C 
ATOM      4  O   UNL     1       3.664   1.357   2.262  1.00  0.00    -0.300 OA
ENDBRANCH   1   2
BRANCH   1   5
ATOM      5  C   UNL     1       6.979   0.206   1.498  1.00  0.00     0.043 C 
BRANCH   5   6
ATOM      6  C   UNL     1       7.388  -0.744   0.448  1.00  0.00    -0.044 A 
ATOM      7  C   UNL     1       7.297  -0.418  -0.910  1.00  0.00     0.008 A 
ATOM      8  C   UNL     1       7.876  -1.982   0.800  1.00  0.00     0.054 A 
ATOM      9  C   UNL     1       7.698  -1.349  -1.852  1.00  0.00     0.051 A 
ATOM     10  C   UNL     1       8.279  -2.919  -0.155  1.00  0.00     0.166 A 
ATOM     11  C   UNL     1       8.189  -2.601  -1.492  1.00  0.00     0.165 A 
ATOM     12  O   UNL     1       8.789  -4.197  -0.061  1.00  0.00    -0.454 OA
ATOM     13  O   UNL     1       8.651  -3.700  -2.198  1.00  0.00    -0.454 OA
ATOM     14  C   UNL     1       9.126  -4.700  -1.329  1.00  0.00     0.468 C 
ENDBRANCH   5   6
ENDBRANCH   1   5
TORSDOF 3
ENDMDL
MODEL 4
REMARK VINA RESULT:      -7.1      1.250      1.451
REMARK SMILES CC(=O)CCc1ccc2c(c1)OCO2
REMARK SMILES IDX 4 1 2 2 1 3 3 4 5 5 6 6 7 7 11 8 8 9 10 10 9 11 12 12 14 13
REMARK SMILES IDX 13 14
REMARK H PARENT
REMARK Flexibility Score: inf
ROOT
ATOM      1  C   UNL     1       6.341   1.233   0.920  1.00  0.00     0.080 C 
ENDROOT
BRANCH   1   2
ATOM      2  C   UNL     1       5.644   0.398   1.937  1.00  0.00     0.130 C 
ATOM      3  C   UNL     1       6.278  -0.816   2.518  1.00  0.00     0.087 C 
ATOM      4  O   UNL     1       4.524   0.687   2.326  1.00  0.00    -0.300 OA
ENDBRANCH   1   2
BRANCH   1   5
ATOM      5  C   UNL     1       5.831   0.939  -0.477  1.00  0.00     0.043 C 
BRANCH   5   6
ATOM      6  C   UNL     1       6.786   0.121  -1.246  1.00  0.00    -0.044 A 
ATOM      7  C   UNL     1       7.475   0.641  -2.348  1.00  0.00     0.008 A 
ATOM      8  C   UNL     1       7.015  -1.185  -0.879  1.00  0.00     0.054 A 
ATOM      9  C   UNL     1       8.360  -0.173  -3.031  1.00  0.00     0.051 A 
ATOM     10  C   UNL     1       7.911  -2.004  -1.573  1.00  0.00     0.166 A 
ATOM     11  C   UNL     1       8.589  -1.494  -2.658  1.00  0.00     0.165 A 
ATOM     12  O   UNL     1       8.307  -3.315  -1.409  1.00  0.00    -0.454 OA
ATOM     13  O   UNL     1       9.395  -2.512  -3.142  1.00  0.00    -0.454 OA
ATOM     14  C   UNL     1       9.315  -3.656  -2.325  1.00  0.00     0.468 C 
ENDBRANCH   5   6
ENDBRANCH   1   5
TORSDOF 3
ENDMDL
MODEL 5
REMARK VINA RESULT:      -6.8      1.251      1.744
REMARK SMILES CC(=O)CCc1ccc2c(c1)OCO2
REMARK SMILES IDX 4 1 2 2 1 3 3 4 5 5 6 6 7 7 11 8 8 9 10 10 9 11 12 12 14 13
REMARK SMILES IDX 13 14
REMARK H PARENT
REMARK Flexibility Score: inf
ROOT
ATOM      1  C   UNL     1       5.312  -0.084   1.937  1.00  0.00     0.080 C 
ENDROOT
BRANCH   1   2
ATOM      2  C   UNL     1       4.438   1.112   1.774  1.00  0.00     0.130 C 
ATOM      3  C   UNL     1       4.720   2.150   0.746  1.00  0.00     0.087 C 
ATOM      4  O   UNL     1       3.460   1.275   2.484  1.00  0.00    -0.300 OA
ENDBRANCH   1   2
BRANCH   1   5
ATOM      5  C   UNL     1       6.779   0.296   1.892  1.00  0.00     0.043 C 
BRANCH   5   6
ATOM      6  C   UNL     1       7.393  -0.051   0.598  1.00  0.00    -0.044 A 
ATOM      7  C   UNL     1       7.903   0.931  -0.258  1.00  0.00     0.008 A 
ATOM      8  C   UNL     1       7.475  -1.370   0.214  1.00  0.00     0.054 A 
ATOM      9  C   UNL     1       8.470   0.546  -1.460  1.00  0.00     0.051 A 
ATOM     10  C   UNL     1       8.049  -1.755  -1.001  1.00  0.00     0.166 A 
ATOM     11  C   UNL     1       8.550  -0.789  -1.845  1.00  0.00     0.165 A 
ATOM     12  O   UNL     1       8.246  -2.981  -1.601  1.00  0.00    -0.454 OA
ATOM     13  O   UNL     1       9.050  -1.448  -2.957  1.00  0.00    -0.454 OA
ATOM     14  C   UNL     1       8.960  -2.845  -2.803  1.00  0.00     0.468 C 
ENDBRANCH   5   6
ENDBRANCH   1   5
TORSDOF 3
ENDMDL
