@<TRIPOS>MOLECULE
/home/cewinharhar/GITHUB/reincatalyze/data/processed/docking_pred/2023-May-30-2130_sub9_nm5_bs15_s42_ex16_mel10_mts10000_k50_ec05_g099_lra3e-4_lrc3e-3/2b611616233e02901686b2fc0a6dd8ec9c570ff2_ligand_9.pdbqt
 14 15 0 0 0
SMALL
GASTEIGER

@<TRIPOS>ATOM
      1  C          6.3410    1.2330    0.9200 C.3     1  UNL1        0.0800
      2  C          5.6440    0.3980    1.9370 C.2     1  UNL1        0.1300
      3  C          6.2780   -0.8160    2.5180 C.3     1  UNL1        0.0870
      4  O          4.5240    0.6870    2.3260 O.2     1  UNL1       -0.3000
      5  C          5.8310    0.9390   -0.4770 C.3     1  UNL1        0.0430
      6  C          6.7860    0.1210   -1.2460 C.2     1  UNL1       -0.0440
      7  C          7.4750    0.6410   -2.3480 C.2     1  UNL1        0.0080
      8  C          7.0150   -1.1850   -0.8790 C.2     1  UNL1        0.0540
      9  C          8.3600   -0.1730   -3.0310 C.2     1  UNL1        0.0510
     10  C          7.9110   -2.0040   -1.5730 C.2     1  UNL1        0.1660
     11  C          8.5890   -1.4940   -2.6580 C.2     1  UNL1        0.1650
     12  O          8.3070   -3.3150   -1.4090 O.2     1  UNL1       -0.4540
     13  O          9.3950   -2.5120   -3.1420 O.2     1  UNL1       -0.4540
     14  C          9.3150   -3.6560   -2.3250 C.3     1  UNL1        0.4680
@<TRIPOS>BOND
     1    13    11    1
     2    13    14    1
     3     9    11    2
     4     9     7    1
     5    11    10    1
     6     7     6    2
     7    14    12    1
     8    10    12    1
     9    10     8    2
    10     6     8    1
    11     6     5    1
    12     5     1    1
    13     1     2    1
    14     2     4    2
    15     2     3    1
