@<TRIPOS>MOLECULE
/home/cewinharhar/GITHUB/reincatalyze/data/processed/docking_pred/2023-May-30-2130_sub9_nm5_bs15_s42_ex16_mel10_mts10000_k50_ec05_g099_lra3e-4_lrc3e-3/2bd7ebd6000506c3611824cd415c5dddcf27ad2f_ligand_9.pdbqt
 14 15 0 0 0
SMALL
GASTEIGER

@<TRIPOS>ATOM
      1  C          5.7450    0.7800    0.4480 C.3     1  UNL1        0.0800
      2  C          5.4060    0.2680    1.8050 C.2     1  UNL1        0.1300
      3  C          6.2570   -0.7380    2.4960 C.3     1  UNL1        0.0870
      4  O          4.4120    0.6620    2.3930 O.2     1  UNL1       -0.3000
      5  C          7.2450    0.8150    0.2320 C.3     1  UNL1        0.0430
      6  C          7.6530   -0.0190   -0.9120 C.2     1  UNL1       -0.0440
      7  C          7.8690    0.5330   -2.1810 C.2     1  UNL1        0.0080
      8  C          7.8310   -1.3730   -0.7410 C.2     1  UNL1        0.0540
      9  C          8.2510   -0.2990   -3.2180 C.2     1  UNL1        0.0510
     10  C          8.2180   -2.2090   -1.7920 C.2     1  UNL1        0.1660
     11  C          8.4300   -1.6680   -3.0410 C.2     1  UNL1        0.1650
     12  O          8.4570   -3.5640   -1.8760 O.2     1  UNL1       -0.4540
     13  O          8.7980   -2.7130   -3.8730 O.2     1  UNL1       -0.4540
     14  C          8.9160   -3.9180   -3.1550 C.3     1  UNL1        0.4680
@<TRIPOS>BOND
     1    13    14    1
     2    13    11    1
     3     9    11    2
     4     9     7    1
     5    14    12    1
     6    11    10    1
     7     7     6    2
     8    12    10    1
     9    10     8    2
    10     6     8    1
    11     6     5    1
    12     5     1    1
    13     1     2    1
    14     2     4    2
    15     2     3    1
