@<TRIPOS>MOLECULE
/home/cewinharhar/GITHUB/reincatalyze/data/processed/docking_pred/2023-May-30-2130_sub9_nm5_bs15_s42_ex16_mel10_mts10000_k50_ec05_g099_lra3e-4_lrc3e-3/2bd7ebd6000506c3611824cd415c5dddcf27ad2f_ligand_9.pdbqt
 14 15 0 0 0
SMALL
GASTEIGER

@<TRIPOS>ATOM
      1  C          6.0270    1.6420    1.1670 C.3     1  UNL1        0.0800
      2  C          5.4630    0.5350    1.9880 C.2     1  UNL1        0.1300
      3  C          6.2560   -0.6810    2.3100 C.3     1  UNL1        0.0870
      4  O          4.3240    0.5940    2.4220 O.2     1  UNL1       -0.3000
      5  C          5.7490    1.4300   -0.3080 C.3     1  UNL1        0.0430
      6  C          6.8160    0.6480   -0.9590 C.2     1  UNL1       -0.0440
      7  C          8.1620    1.0170   -0.8570 C.2     1  UNL1        0.0080
      8  C          6.4920   -0.4770   -1.6830 C.2     1  UNL1        0.0540
      9  C          9.1190    0.2440   -1.4880 C.2     1  UNL1        0.0510
     10  C          7.4630   -1.2550   -2.3190 C.2     1  UNL1        0.1660
     11  C          8.7880   -0.8920   -2.2210 C.2     1  UNL1        0.1650
     12  O          7.3970   -2.3990   -3.0870 O.2     1  UNL1       -0.4540
     13  O          9.5150   -1.8300   -2.9360 O.2     1  UNL1       -0.4540
     14  C          8.6820   -2.8530   -3.4260 C.3     1  UNL1        0.4680
@<TRIPOS>BOND
     1    14    12    1
     2    14    13    1
     3    12    10    1
     4    13    11    1
     5    10    11    2
     6    10     8    1
     7    11     9    1
     8     8     6    2
     9     9     7    2
    10     6     7    1
    11     6     5    1
    12     5     1    1
    13     1     2    1
    14     2     3    1
    15     2     4    2
