@<TRIPOS>MOLECULE
/home/cewinharhar/GITHUB/reincatalyze/data/processed/docking_pred/2023-May-30-2130_sub9_nm5_bs15_s42_ex16_mel10_mts10000_k50_ec05_g099_lra3e-4_lrc3e-3/2d2d9026ea33a6842fa37a74e1533968fe9c5ac5_ligand_9.pdbqt
 14 15 0 0 0
SMALL
GASTEIGER

@<TRIPOS>ATOM
      1  C          6.5940    1.5500    0.3630 C.3     1  UNL1        0.0800
      2  C          6.0240    0.9360    1.5950 C.2     1  UNL1        0.1300
      3  C          6.7920   -0.0470    2.4050 C.3     1  UNL1        0.0870
      4  O          4.9020    1.2250    1.9760 O.2     1  UNL1       -0.3000
      5  C          5.9980    0.9320   -0.8870 C.3     1  UNL1        0.0430
      6  C          6.9370    0.0020   -1.5380 C.2     1  UNL1       -0.0440
      7  C          7.6540    0.3670   -2.6840 C.2     1  UNL1        0.0080
      8  C          7.1240   -1.2570   -1.0150 C.2     1  UNL1        0.0540
      9  C          8.5220   -0.5480   -3.2510 C.2     1  UNL1        0.0510
     10  C          8.0030   -2.1780   -1.5920 C.2     1  UNL1        0.1660
     11  C          8.7080   -1.8200   -2.7200 C.2     1  UNL1        0.1650
     12  O          8.3580   -3.4700   -1.2680 O.2     1  UNL1       -0.4540
     13  O          9.4900   -2.9110   -3.0670 O.2     1  UNL1       -0.4540
     14  C          9.3660   -3.9460   -2.1210 C.3     1  UNL1        0.4680
@<TRIPOS>BOND
     1     9    11    2
     2     9     7    1
     3    13    11    1
     4    13    14    1
     5    11    10    1
     6     7     6    2
     7    14    12    1
     8    10    12    1
     9    10     8    2
    10     6     8    1
    11     6     5    1
    12     5     1    1
    13     1     2    1
    14     2     4    2
    15     2     3    1
