@<TRIPOS>MOLECULE
/home/cewinharhar/GITHUB/reincatalyze/data/processed/docking_pred/2023-May-30-2130_sub9_nm5_bs15_s42_ex16_mel10_mts10000_k50_ec05_g099_lra3e-4_lrc3e-3/2d2d9026ea33a6842fa37a74e1533968fe9c5ac5_ligand_9.pdbqt
 14 15 0 0 0
SMALL
GASTEIGER

@<TRIPOS>ATOM
      1  C          5.7610    2.1360    1.2210 C.3     1  UNL1        0.0800
      2  C          5.5280    0.9090    2.0320 C.2     1  UNL1        0.1300
      3  C          6.6330   -0.0310    2.3620 C.3     1  UNL1        0.0870
      4  O          4.4150    0.6370    2.4520 O.2     1  UNL1       -0.3000
      5  C          5.5570    1.8650   -0.2570 C.3     1  UNL1        0.0430
      6  C          6.6810    1.1060   -0.8340 C.2     1  UNL1       -0.0440
      7  C          8.0080    1.5130   -0.6580 C.2     1  UNL1        0.0080
      8  C          6.4310   -0.0350   -1.5620 C.2     1  UNL1        0.0540
      9  C          9.0220    0.7600   -1.2220 C.2     1  UNL1        0.0510
     10  C          7.4590   -0.7940   -2.1290 C.2     1  UNL1        0.1660
     11  C          8.7650   -0.3920   -1.9580 C.2     1  UNL1        0.1650
     12  O          7.4690   -1.9470   -2.8850 O.2     1  UNL1       -0.4540
     13  O          9.5590   -1.3180   -2.6180 O.2     1  UNL1       -0.4540
     14  C          8.7840   -2.3690   -3.1430 C.3     1  UNL1        0.4680
@<TRIPOS>BOND
     1    14    12    1
     2    14    13    1
     3    12    10    1
     4    13    11    1
     5    10    11    2
     6    10     8    1
     7    11     9    1
     8     8     6    2
     9     9     7    2
    10     6     7    1
    11     6     5    1
    12     5     1    1
    13     1     2    1
    14     2     3    1
    15     2     4    2
