@<TRIPOS>MOLECULE
/home/cewinharhar/GITHUB/reincatalyze/data/processed/docking_pred/2023-May-30-2130_sub9_nm5_bs15_s42_ex16_mel10_mts10000_k50_ec05_g099_lra3e-4_lrc3e-3/2d2d9026ea33a6842fa37a74e1533968fe9c5ac5_ligand_9.pdbqt
 14 15 0 0 0
SMALL
GASTEIGER

@<TRIPOS>ATOM
      1  C          5.7450    1.3990   -0.3200 C.3     1  UNL1        0.0800
      2  C          5.2860    1.4300    1.0970 C.2     1  UNL1        0.1300
      3  C          5.9360    0.6000    2.1460 C.3     1  UNL1        0.0870
      4  O          4.3570    2.1430    1.4390 O.2     1  UNL1       -0.3000
      5  C          7.2490    1.2320   -0.4080 C.3     1  UNL1        0.0430
      6  C          7.6220   -0.0840   -0.9570 C.2     1  UNL1       -0.0440
      7  C          7.7520   -0.2940   -2.3350 C.2     1  UNL1        0.0080
      8  C          7.8520   -1.1390   -0.1040 C.2     1  UNL1        0.0540
      9  C          8.1040   -1.5500   -2.7920 C.2     1  UNL1        0.0510
     10  C          8.2090   -2.4070   -0.5710 C.2     1  UNL1        0.1660
     11  C          8.3360   -2.6150   -1.9270 C.2     1  UNL1        0.1650
     12  O          8.4860   -3.5990    0.0640 O.2     1  UNL1       -0.4540
     13  O          8.6930   -3.9430   -2.0970 O.2     1  UNL1       -0.4540
     14  C          8.8880   -4.5800   -0.8570 C.3     1  UNL1        0.4680
@<TRIPOS>BOND
     1     9     7    1
     2     9    11    2
     3     7     6    2
     4    13    11    1
     5    13    14    1
     6    11    10    1
     7     6     5    1
     8     6     8    1
     9    14    12    1
    10    10     8    2
    11    10    12    1
    12     5     1    1
    13     1     2    1
    14     2     4    2
    15     2     3    1
