@<TRIPOS>MOLECULE
/home/cewinharhar/GITHUB/reincatalyze/data/processed/docking_pred/2023-May-30-2130_sub9_nm5_bs15_s42_ex16_mel10_mts10000_k50_ec05_g099_lra3e-4_lrc3e-3/2d2d9026ea33a6842fa37a74e1533968fe9c5ac5_ligand_9.pdbqt
 14 15 0 0 0
SMALL
GASTEIGER

@<TRIPOS>ATOM
      1  C          6.6070    0.4980    1.5560 C.3     1  UNL1        0.0800
      2  C          5.2760    1.1660    1.5020 C.2     1  UNL1        0.1300
      3  C          4.9390    2.1500    0.4390 C.3     1  UNL1        0.0870
      4  O          4.4190    0.9240    2.3370 O.2     1  UNL1       -0.3000
      5  C          7.4260    0.8050    0.3180 C.3     1  UNL1        0.0430
      6  C          7.7380   -0.4160   -0.4470 C.2     1  UNL1       -0.0440
      7  C          7.7360   -0.4240   -1.8460 C.2     1  UNL1        0.0080
      8  C          8.0410   -1.5810    0.2210 C.2     1  UNL1        0.0540
      9  C          8.0360   -1.5990   -2.5110 C.2     1  UNL1        0.0510
     10  C          8.3450   -2.7660   -0.4560 C.2     1  UNL1        0.1660
     11  C          8.3420   -2.7750   -1.8330 C.2     1  UNL1        0.1650
     12  O          8.6730   -4.0350   -0.0270 O.2     1  UNL1       -0.4540
     13  O          8.6740   -4.0630   -2.2250 O.2     1  UNL1       -0.4540
     14  C          8.9810   -4.8700   -1.1140 C.3     1  UNL1        0.4680
@<TRIPOS>BOND
     1     9     7    1
     2     9    11    2
     3    13    11    1
     4    13    14    1
     5     7     6    2
     6    11    10    1
     7    14    12    1
     8    10    12    1
     9    10     8    2
    10     6     8    1
    11     6     5    1
    12     5     1    1
    13     3     2    1
    14     2     1    1
    15     2     4    2
