@<TRIPOS>MOLECULE
/home/cewinharhar/GITHUB/reincatalyze/data/processed/docking_pred/2023-May-30-2130_sub9_nm5_bs15_s42_ex16_mel10_mts10000_k50_ec05_g099_lra3e-4_lrc3e-3/2d2d9026ea33a6842fa37a74e1533968fe9c5ac5_ligand_9.pdbqt
 14 15 0 0 0
SMALL
GASTEIGER

@<TRIPOS>ATOM
      1  C          7.1470    1.8140   -0.2930 C.3     1  UNL1        0.0800
      2  C          6.1220    2.0370    0.7640 C.2     1  UNL1        0.1300
      3  C          4.6740    2.1320    0.4400 C.3     1  UNL1        0.0870
      4  O          6.4440    2.1500    1.9360 O.2     1  UNL1       -0.3000
      5  C          6.7430    0.6870   -1.2230 C.3     1  UNL1        0.0430
      6  C          7.3130   -0.6040   -0.7970 C.2     1  UNL1       -0.0440
      7  C          7.4870   -0.9180    0.5560 C.2     1  UNL1        0.0080
      8  C          7.6860   -1.5310   -1.7440 C.2     1  UNL1        0.0540
      9  C          8.0270   -2.1450    0.8950 C.2     1  UNL1        0.0510
     10  C          8.2300   -2.7700   -1.3960 C.2     1  UNL1        0.1660
     11  C          8.4030   -3.0800   -0.0650 C.2     1  UNL1        0.1650
     12  O          8.6730   -3.8440   -2.1380 O.2     1  UNL1       -0.4540
     13  O          8.9520   -4.3510   -0.0170 O.2     1  UNL1       -0.4540
     14  C          9.0560   -4.9090   -1.3060 C.3     1  UNL1        0.4680
@<TRIPOS>BOND
     1    12    10    1
     2    12    14    1
     3     8    10    1
     4     8     6    2
     5    10    11    2
     6    14    13    1
     7     5     6    1
     8     5     1    1
     9     6     7    1
    10     1     2    1
    11    11    13    1
    12    11     9    1
    13     3     2    1
    14     7     9    2
    15     2     4    2
