MODEL 1
REMARK VINA RESULT:      -7.3      0.000      0.000
REMARK SMILES CC(=O)CCc1ccc2c(c1)OCO2
REMARK SMILES IDX 4 1 2 2 1 3 3 4 5 5 6 6 7 7 11 8 8 9 10 10 9 11 12 12 14 13
REMARK SMILES IDX 13 14
REMARK H PARENT
REMARK Flexibility Score: inf
ROOT
ATOM      1  C   UNL     1       5.745   1.399  -0.320  1.00  0.00     0.080 C 
ENDROOT
BRANCH   1   2
ATOM      2  C   UNL     1       5.286   1.430   1.097  1.00  0.00     0.130 C 
ATOM      3  C   UNL     1       5.936   0.600   2.146  1.00  0.00     0.087 C 
ATOM      4  O   UNL     1       4.357   2.143   1.439  1.00  0.00    -0.300 OA
ENDBRANCH   1   2
BRANCH   1   5
ATOM      5  C   UNL     1       7.249   1.232  -0.408  1.00  0.00     0.043 C 
BRANCH   5   6
ATOM      6  C   UNL     1       7.622  -0.084  -0.957  1.00  0.00    -0.044 A 
ATOM      7  C   UNL     1       7.752  -0.294  -2.335  1.00  0.00     0.008 A 
ATOM      8  C   UNL     1       7.852  -1.139  -0.104  1.00  0.00     0.054 A 
ATOM      9  C   UNL     1       8.104  -1.550  -2.792  1.00  0.00     0.051 A 
ATOM     10  C   UNL     1       8.209  -2.407  -0.571  1.00  0.00     0.166 A 
ATOM     11  C   UNL     1       8.336  -2.615  -1.927  1.00  0.00     0.165 A 
ATOM     12  O   UNL     1       8.486  -3.599   0.064  1.00  0.00    -0.454 OA
ATOM     13  O   UNL     1       8.693  -3.943  -2.097  1.00  0.00    -0.454 OA
ATOM     14  C   UNL     1       8.888  -4.580  -0.857  1.00  0.00     0.468 C 
ENDBRANCH   5   6
ENDBRANCH   1   5
TORSDOF 3
ENDMDL
MODEL 2
REMARK VINA RESULT:      -7.3      1.869      2.320
REMARK SMILES CC(=O)CCc1ccc2c(c1)OCO2
REMARK SMILES IDX 4 1 2 2 1 3 3 4 5 5 6 6 7 7 11 8 8 9 10 10 9 11 12 12 14 13
REMARK SMILES IDX 13 14
REMARK H PARENT
REMARK Flexibility Score: inf
ROOT
ATOM      1  C   UNL     1       5.761   2.136   1.221  1.00  0.00     0.080 C 
ENDROOT
BRANCH   1   2
ATOM      2  C   UNL     1       5.528   0.909   2.032  1.00  0.00     0.130 C 
ATOM      3  C   UNL     1       6.633  -0.031   2.362  1.00  0.00     0.087 C 
ATOM      4  O   UNL     1       4.415   0.637   2.452  1.00  0.00    -0.300 OA
ENDBRANCH   1   2
BRANCH   1   5
ATOM      5  C   UNL     1       5.557   1.865  -0.257  1.00  0.00     0.043 C 
BRANCH   5   6
ATOM      6  C   UNL     1       6.681   1.106  -0.834  1.00  0.00    -0.044 A 
ATOM      7  C   UNL     1       8.008   1.513  -0.658  1.00  0.00     0.008 A 
ATOM      8  C   UNL     1       6.431  -0.035  -1.562  1.00  0.00     0.054 A 
ATOM      9  C   UNL     1       9.022   0.760  -1.222  1.00  0.00     0.051 A 
ATOM     10  C   UNL     1       7.459  -0.794  -2.129  1.00  0.00     0.166 A 
ATOM     11  C   UNL     1       8.765  -0.392  -1.958  1.00  0.00     0.165 A 
ATOM     12  O   UNL     1       7.469  -1.947  -2.885  1.00  0.00    -0.454 OA
ATOM     13  O   UNL     1       9.559  -1.318  -2.618  1.00  0.00    -0.454 OA
ATOM     14  C   UNL     1       8.784  -2.369  -3.143  1.00  0.00     0.468 C 
ENDBRANCH   5   6
ENDBRANCH   1   5
TORSDOF 3
ENDMDL
MODEL 3
REMARK VINA RESULT:      -7.2      0.734      1.080
REMARK SMILES CC(=O)CCc1ccc2c(c1)OCO2
REMARK SMILES IDX 4 1 2 2 1 3 3 4 5 5 6 6 7 7 11 8 8 9 10 10 9 11 12 12 14 13
REMARK SMILES IDX 13 14
REMARK H PARENT
REMARK Flexibility Score: inf
ROOT
ATOM      1  C   UNL     1       6.607   0.498   1.556  1.00  0.00     0.080 C 
ENDROOT
BRANCH   1   2
ATOM      2  C   UNL     1       5.276   1.166   1.502  1.00  0.00     0.130 C 
ATOM      3  C   UNL     1       4.939   2.150   0.439  1.00  0.00     0.087 C 
ATOM      4  O   UNL     1       4.419   0.924   2.337  1.00  0.00    -0.300 OA
ENDBRANCH   1   2
BRANCH   1   5
ATOM      5  C   UNL     1       7.426   0.805   0.318  1.00  0.00     0.043 C 
BRANCH   5   6
ATOM      6  C   UNL     1       7.738  -0.416  -0.447  1.00  0.00    -0.044 A 
ATOM      7  C   UNL     1       7.736  -0.424  -1.846  1.00  0.00     0.008 A 
ATOM      8  C   UNL     1       8.041  -1.581   0.221  1.00  0.00     0.054 A 
ATOM      9  C   UNL     1       8.036  -1.599  -2.511  1.00  0.00     0.051 A 
ATOM     10  C   UNL     1       8.345  -2.766  -0.456  1.00  0.00     0.166 A 
ATOM     11  C   UNL     1       8.342  -2.775  -1.833  1.00  0.00     0.165 A 
ATOM     12  O   UNL     1       8.673  -4.035  -0.027  1.00  0.00    -0.454 OA
ATOM     13  O   UNL     1       8.674  -4.063  -2.225  1.00  0.00    -0.454 OA
ATOM     14  C   UNL     1       8.981  -4.870  -1.114  1.00  0.00     0.468 C 
ENDBRANCH   5   6
ENDBRANCH   1   5
TORSDOF 3
ENDMDL
MODEL 4
REMARK VINA RESULT:      -6.8      1.059      1.199
REMARK SMILES CC(=O)CCc1ccc2c(c1)OCO2
REMARK SMILES IDX 4 1 2 2 1 3 3 4 5 5 6 6 7 7 11 8 8 9 10 10 9 11 12 12 14 13
REMARK SMILES IDX 13 14
REMARK H PARENT
REMARK Flexibility Score: inf
ROOT
ATOM      1  C   UNL     1       6.594   1.550   0.363  1.00  0.00     0.080 C 
ENDROOT
BRANCH   1   2
ATOM      2  C   UNL     1       6.024   0.936   1.595  1.00  0.00     0.130 C 
ATOM      3  C   UNL     1       6.792  -0.047   2.405  1.00  0.00     0.087 C 
ATOM      4  O   UNL     1       4.902   1.225   1.976  1.00  0.00    -0.300 OA
ENDBRANCH   1   2
BRANCH   1   5
ATOM      5  C   UNL     1       5.998   0.932  -0.887  1.00  0.00     0.043 C 
BRANCH   5   6
ATOM      6  C   UNL     1       6.937   0.002  -1.538  1.00  0.00    -0.044 A 
ATOM      7  C   UNL     1       7.654   0.367  -2.684  1.00  0.00     0.008 A 
ATOM      8  C   UNL     1       7.124  -1.257  -1.015  1.00  0.00     0.054 A 
ATOM      9  C   UNL     1       8.522  -0.548  -3.251  1.00  0.00     0.051 A 
ATOM     10  C   UNL     1       8.003  -2.178  -1.592  1.00  0.00     0.166 A 
ATOM     11  C   UNL     1       8.708  -1.820  -2.720  1.00  0.00     0.165 A 
ATOM     12  O   UNL     1       8.358  -3.470  -1.268  1.00  0.00    -0.454 OA
ATOM     13  O   UNL     1       9.490  -2.911  -3.067  1.00  0.00    -0.454 OA
ATOM     14  C   UNL     1       9.366  -3.946  -2.121  1.00  0.00     0.468 C 
ENDBRANCH   5   6
ENDBRANCH   1   5
TORSDOF 3
ENDMDL
MODEL 5
REMARK VINA RESULT:      -6.7      1.142      2.007
REMARK SMILES CC(=O)CCc1ccc2c(c1)OCO2
REMARK SMILES IDX 4 1 2 2 1 3 3 4 5 5 6 6 7 7 11 8 8 9 10 10 9 11 12 12 14 13
REMARK SMILES IDX 13 14
REMARK H PARENT
REMARK Flexibility Score: inf
ROOT
ATOM      1  C   UNL     1       7.147   1.814  -0.293  1.00  0.00     0.080 C 
ENDROOT
BRANCH   1   2
ATOM      2  C   UNL     1       6.122   2.037   0.764  1.00  0.00     0.130 C 
ATOM      3  C   UNL     1       4.674   2.132   0.440  1.00  0.00     0.087 C 
ATOM      4  O   UNL     1       6.444   2.150   1.936  1.00  0.00    -0.300 OA
ENDBRANCH   1   2
BRANCH   1   5
ATOM      5  C   UNL     1       6.743   0.687  -1.223  1.00  0.00     0.043 C 
BRANCH   5   6
ATOM      6  C   UNL     1       7.313  -0.604  -0.797  1.00  0.00    -0.044 A 
ATOM      7  C   UNL     1       7.487  -0.918   0.556  1.00  0.00     0.008 A 
ATOM      8  C   UNL     1       7.686  -1.531  -1.744  1.00  0.00     0.054 A 
ATOM      9  C   UNL     1       8.027  -2.145   0.895  1.00  0.00     0.051 A 
ATOM     10  C   UNL     1       8.230  -2.770  -1.396  1.00  0.00     0.166 A 
ATOM     11  C   UNL     1       8.403  -3.080  -0.065  1.00  0.00     0.165 A 
ATOM     12  O   UNL     1       8.673  -3.844  -2.138  1.00  0.00    -0.454 OA
ATOM     13  O   UNL     1       8.952  -4.351  -0.017  1.00  0.00    -0.454 OA
ATOM     14  C   UNL     1       9.056  -4.909  -1.306  1.00  0.00     0.468 C 
ENDBRANCH   5   6
ENDBRANCH   1   5
TORSDOF 3
ENDMDL
