@<TRIPOS>MOLECULE
/home/cewinharhar/GITHUB/reincatalyze/data/processed/docking_pred/2023-May-30-2130_sub9_nm5_bs15_s42_ex16_mel10_mts10000_k50_ec05_g099_lra3e-4_lrc3e-3/2f41e52dfc6618f39d2325611a45b0a1c53476a0_ligand_9.pdbqt
 14 15 0 0 0
SMALL
GASTEIGER

@<TRIPOS>ATOM
      1  C          5.4980   -0.0340    1.9470 C.3     1  UNL1        0.0800
      2  C          4.6530    1.1550    1.6450 C.2     1  UNL1        0.1300
      3  C          4.9960    2.0980    0.5470 C.3     1  UNL1        0.0870
      4  O          3.6480    1.3910    2.2950 O.2     1  UNL1       -0.3000
      5  C          6.9370    0.1920    1.5240 C.3     1  UNL1        0.0430
      6  C          7.3520   -0.7550    0.4740 C.2     1  UNL1       -0.0440
      7  C          7.2370   -0.4400   -0.8850 C.2     1  UNL1        0.0080
      8  C          7.8690   -1.9810    0.8270 C.2     1  UNL1        0.0540
      9  C          7.6450   -1.3680   -1.8260 C.2     1  UNL1        0.0510
     10  C          8.2800   -2.9160   -0.1290 C.2     1  UNL1        0.1660
     11  C          8.1660   -2.6060   -1.4660 C.2     1  UNL1        0.1650
     12  O          8.8170   -4.1820   -0.0340 O.2     1  UNL1       -0.4540
     13  O          8.6420   -3.7000   -2.1720 O.2     1  UNL1       -0.4540
     14  C          9.1480   -4.6850   -1.3030 C.3     1  UNL1        0.4680
@<TRIPOS>BOND
     1    13    11    1
     2    13    14    1
     3     9    11    2
     4     9     7    1
     5    11    10    1
     6    14    12    1
     7     7     6    2
     8    10    12    1
     9    10     8    2
    10     6     8    1
    11     6     5    1
    12     3     2    1
    13     5     1    1
    14     2     1    1
    15     2     4    2
