@<TRIPOS>MOLECULE
/home/cewinharhar/GITHUB/reincatalyze/data/processed/docking_pred/2023-May-30-2130_sub9_nm5_bs15_s42_ex16_mel10_mts10000_k50_ec05_g099_lra3e-4_lrc3e-3/2f41e52dfc6618f39d2325611a45b0a1c53476a0_ligand_9.pdbqt
 14 15 0 0 0
SMALL
GASTEIGER

@<TRIPOS>ATOM
      1  C          5.5540    1.9080    1.2740 C.3     1  UNL1        0.0800
      2  C          5.1140    0.6930    2.0160 C.2     1  UNL1        0.1300
      3  C          6.0100   -0.4800    2.1940 C.3     1  UNL1        0.0870
      4  O          3.9970    0.6270    2.5020 O.2     1  UNL1       -0.3000
      5  C          5.4190    1.7170   -0.2240 C.3     1  UNL1        0.0430
      6  C          6.5840    1.0160   -0.7930 C.2     1  UNL1       -0.0440
      7  C          7.8920    1.4470   -0.5460 C.2     1  UNL1        0.0080
      8  C          6.3920   -0.0930   -1.5860 C.2     1  UNL1        0.0540
      9  C          8.9460    0.7490   -1.1060 C.2     1  UNL1        0.0510
     10  C          7.4620   -0.7960   -2.1490 C.2     1  UNL1        0.1660
     11  C          8.7490   -0.3710   -1.9080 C.2     1  UNL1        0.1650
     12  O          7.5310   -1.9090   -2.9600 O.2     1  UNL1       -0.4540
     13  O          9.5910   -1.2420   -2.5810 O.2     1  UNL1       -0.4540
     14  C          8.8660   -2.2850   -3.1860 C.3     1  UNL1        0.4680
@<TRIPOS>BOND
     1    14    12    1
     2    14    13    1
     3    12    10    1
     4    13    11    1
     5    10    11    2
     6    10     8    1
     7    11     9    1
     8     8     6    2
     9     9     7    2
    10     6     7    1
    11     6     5    1
    12     5     1    1
    13     1     2    1
    14     2     3    1
    15     2     4    2
