MODEL 1
REMARK VINA RESULT:      -7.6      0.000      0.000
REMARK SMILES CC(=O)CCc1ccc2c(c1)OCO2
REMARK SMILES IDX 4 1 2 2 1 3 3 4 5 5 6 6 7 7 11 8 8 9 10 10 9 11 12 12 14 13
REMARK SMILES IDX 13 14
REMARK H PARENT
REMARK Flexibility Score: inf
ROOT
ATOM      1  C   UNL     1       5.554   1.908   1.274  1.00  0.00     0.080 C 
ENDROOT
BRANCH   1   2
ATOM      2  C   UNL     1       5.114   0.693   2.016  1.00  0.00     0.130 C 
ATOM      3  C   UNL     1       6.010  -0.480   2.194  1.00  0.00     0.087 C 
ATOM      4  O   UNL     1       3.997   0.627   2.502  1.00  0.00    -0.300 OA
ENDBRANCH   1   2
BRANCH   1   5
ATOM      5  C   UNL     1       5.419   1.717  -0.224  1.00  0.00     0.043 C 
BRANCH   5   6
ATOM      6  C   UNL     1       6.584   1.016  -0.793  1.00  0.00    -0.044 A 
ATOM      7  C   UNL     1       7.892   1.447  -0.546  1.00  0.00     0.008 A 
ATOM      8  C   UNL     1       6.392  -0.093  -1.586  1.00  0.00     0.054 A 
ATOM      9  C   UNL     1       8.946   0.749  -1.106  1.00  0.00     0.051 A 
ATOM     10  C   UNL     1       7.462  -0.796  -2.149  1.00  0.00     0.166 A 
ATOM     11  C   UNL     1       8.749  -0.371  -1.908  1.00  0.00     0.165 A 
ATOM     12  O   UNL     1       7.531  -1.909  -2.960  1.00  0.00    -0.454 OA
ATOM     13  O   UNL     1       9.591  -1.242  -2.581  1.00  0.00    -0.454 OA
ATOM     14  C   UNL     1       8.866  -2.285  -3.186  1.00  0.00     0.468 C 
ENDBRANCH   5   6
ENDBRANCH   1   5
TORSDOF 3
ENDMDL
MODEL 2
REMARK VINA RESULT:      -7.4      1.933      2.355
REMARK SMILES CC(=O)CCc1ccc2c(c1)OCO2
REMARK SMILES IDX 4 1 2 2 1 3 3 4 5 5 6 6 7 7 11 8 8 9 10 10 9 11 12 12 14 13
REMARK SMILES IDX 13 14
REMARK H PARENT
REMARK Flexibility Score: inf
ROOT
ATOM      1  C   UNL     1       5.787   1.415  -0.172  1.00  0.00     0.080 C 
ENDROOT
BRANCH   1   2
ATOM      2  C   UNL     1       5.077   1.247   1.127  1.00  0.00     0.130 C 
ATOM      3  C   UNL     1       5.332   0.078   2.011  1.00  0.00     0.087 C 
ATOM      4  O   UNL     1       4.259   2.070   1.504  1.00  0.00    -0.300 OA
ENDBRANCH   1   2
BRANCH   1   5
ATOM      5  C   UNL     1       7.264   1.098  -0.037  1.00  0.00     0.043 C 
BRANCH   5   6
ATOM      6  C   UNL     1       7.613  -0.172  -0.697  1.00  0.00    -0.044 A 
ATOM      7  C   UNL     1       7.638  -0.290  -2.092  1.00  0.00     0.008 A 
ATOM      8  C   UNL     1       7.926  -1.274   0.065  1.00  0.00     0.054 A 
ATOM      9  C   UNL     1       7.974  -1.508  -2.656  1.00  0.00     0.051 A 
ATOM     10  C   UNL     1       8.265  -2.502  -0.510  1.00  0.00     0.166 A 
ATOM     11  C   UNL     1       8.289  -2.620  -1.882  1.00  0.00     0.165 A 
ATOM     12  O   UNL     1       8.610  -3.726   0.023  1.00  0.00    -0.454 OA
ATOM     13  O   UNL     1       8.653  -3.927  -2.166  1.00  0.00    -0.454 OA
ATOM     14  C   UNL     1       8.954  -4.638  -0.988  1.00  0.00     0.468 C 
ENDBRANCH   5   6
ENDBRANCH   1   5
TORSDOF 3
ENDMDL
MODEL 3
REMARK VINA RESULT:      -7.2      2.092      2.645
REMARK SMILES CC(=O)CCc1ccc2c(c1)OCO2
REMARK SMILES IDX 4 1 2 2 1 3 3 4 5 5 6 6 7 7 11 8 8 9 10 10 9 11 12 12 14 13
REMARK SMILES IDX 13 14
REMARK H PARENT
REMARK Flexibility Score: inf
ROOT
ATOM      1  C   UNL     1       5.498  -0.034   1.947  1.00  0.00     0.080 C 
ENDROOT
BRANCH   1   2
ATOM      2  C   UNL     1       4.653   1.155   1.645  1.00  0.00     0.130 C 
ATOM      3  C   UNL     1       4.996   2.098   0.547  1.00  0.00     0.087 C 
ATOM      4  O   UNL     1       3.648   1.391   2.295  1.00  0.00    -0.300 OA
ENDBRANCH   1   2
BRANCH   1   5
ATOM      5  C   UNL     1       6.937   0.192   1.524  1.00  0.00     0.043 C 
BRANCH   5   6
ATOM      6  C   UNL     1       7.352  -0.755   0.474  1.00  0.00    -0.044 A 
ATOM      7  C   UNL     1       7.237  -0.440  -0.885  1.00  0.00     0.008 A 
ATOM      8  C   UNL     1       7.869  -1.981   0.827  1.00  0.00     0.054 A 
ATOM      9  C   UNL     1       7.645  -1.368  -1.826  1.00  0.00     0.051 A 
ATOM     10  C   UNL     1       8.280  -2.916  -0.129  1.00  0.00     0.166 A 
ATOM     11  C   UNL     1       8.166  -2.606  -1.466  1.00  0.00     0.165 A 
ATOM     12  O   UNL     1       8.817  -4.182  -0.034  1.00  0.00    -0.454 OA
ATOM     13  O   UNL     1       8.642  -3.700  -2.172  1.00  0.00    -0.454 OA
ATOM     14  C   UNL     1       9.148  -4.685  -1.303  1.00  0.00     0.468 C 
ENDBRANCH   5   6
ENDBRANCH   1   5
TORSDOF 3
ENDMDL
MODEL 4
REMARK VINA RESULT:      -6.8      1.179      5.177
REMARK SMILES CC(=O)CCc1ccc2c(c1)OCO2
REMARK SMILES IDX 4 1 2 2 1 3 3 4 5 5 6 6 7 7 11 8 8 9 10 10 9 11 12 12 14 13
REMARK SMILES IDX 13 14
REMARK H PARENT
REMARK Flexibility Score: inf
ROOT
ATOM      1  C   UNL     1       8.317   0.227  -2.614  1.00  0.00     0.080 C 
ENDROOT
BRANCH   1   2
ATOM      2  C   UNL     1       8.041  -1.233  -2.707  1.00  0.00     0.130 C 
ATOM      3  C   UNL     1       9.121  -2.215  -2.992  1.00  0.00     0.087 C 
ATOM      4  O   UNL     1       6.912  -1.669  -2.551  1.00  0.00    -0.300 OA
ENDBRANCH   1   2
BRANCH   1   5
ATOM      5  C   UNL     1       8.833   0.604  -1.239  1.00  0.00     0.043 C 
BRANCH   5   6
ATOM      6  C   UNL     1       7.793   0.454  -0.206  1.00  0.00    -0.044 A 
ATOM      7  C   UNL     1       7.897  -0.509   0.805  1.00  0.00     0.008 A 
ATOM      8  C   UNL     1       6.689   1.276  -0.224  1.00  0.00     0.054 A 
ATOM      9  C   UNL     1       6.891  -0.603   1.749  1.00  0.00     0.051 A 
ATOM     10  C   UNL     1       5.674   1.177   0.733  1.00  0.00     0.166 A 
ATOM     11  C   UNL     1       5.776   0.229   1.727  1.00  0.00     0.165 A 
ATOM     12  O   UNL     1       4.496   1.866   0.927  1.00  0.00    -0.454 OA
ATOM     13  O   UNL     1       4.647   0.358   2.520  1.00  0.00    -0.454 OA
ATOM     14  C   UNL     1       3.853   1.443   2.102  1.00  0.00     0.468 C 
ENDBRANCH   5   6
ENDBRANCH   1   5
TORSDOF 3
ENDMDL
MODEL 5
REMARK VINA RESULT:      -6.7      1.296      1.771
REMARK SMILES CC(=O)CCc1ccc2c(c1)OCO2
REMARK SMILES IDX 4 1 2 2 1 3 3 4 5 5 6 6 7 7 11 8 8 9 10 10 9 11 12 12 14 13
REMARK SMILES IDX 13 14
REMARK H PARENT
REMARK Flexibility Score: inf
ROOT
ATOM      1  C   UNL     1       5.358  -0.046   1.988  1.00  0.00     0.080 C 
ENDROOT
BRANCH   1   2
ATOM      2  C   UNL     1       4.464   1.129   1.792  1.00  0.00     0.130 C 
ATOM      3  C   UNL     1       4.734   2.150   0.744  1.00  0.00     0.087 C 
ATOM      4  O   UNL     1       3.478   1.290   2.493  1.00  0.00    -0.300 OA
ENDBRANCH   1   2
BRANCH   1   5
ATOM      5  C   UNL     1       6.818   0.349   1.882  1.00  0.00     0.043 C 
BRANCH   5   6
ATOM      6  C   UNL     1       7.398  -0.043   0.585  1.00  0.00    -0.044 A 
ATOM      7  C   UNL     1       7.848   0.911  -0.335  1.00  0.00     0.008 A 
ATOM      8  C   UNL     1       7.507  -1.376   0.262  1.00  0.00     0.054 A 
ATOM      9  C   UNL     1       8.384   0.484  -1.536  1.00  0.00     0.051 A 
ATOM     10  C   UNL     1       8.050  -1.803  -0.954  1.00  0.00     0.166 A 
ATOM     11  C   UNL     1       8.492  -0.865  -1.860  1.00  0.00     0.165 A 
ATOM     12  O   UNL     1       8.263  -3.050  -1.501  1.00  0.00    -0.454 OA
ATOM     13  O   UNL     1       8.974  -1.563  -2.956  1.00  0.00    -0.454 OA
ATOM     14  C   UNL     1       8.931  -2.952  -2.733  1.00  0.00     0.468 C 
ENDBRANCH   5   6
ENDBRANCH   1   5
TORSDOF 3
ENDMDL
