@<TRIPOS>MOLECULE
/home/cewinharhar/GITHUB/reincatalyze/data/processed/docking_pred/2023-May-30-2130_sub9_nm5_bs15_s42_ex16_mel10_mts10000_k50_ec05_g099_lra3e-4_lrc3e-3/2f41e52dfc6618f39d2325611a45b0a1c53476a0_ligand_9.pdbqt
 14 15 0 0 0
SMALL
GASTEIGER

@<TRIPOS>ATOM
      1  C          5.3580   -0.0460    1.9880 C.3     1  UNL1        0.0800
      2  C          4.4640    1.1290    1.7920 C.2     1  UNL1        0.1300
      3  C          4.7340    2.1500    0.7440 C.3     1  UNL1        0.0870
      4  O          3.4780    1.2900    2.4930 O.2     1  UNL1       -0.3000
      5  C          6.8180    0.3490    1.8820 C.3     1  UNL1        0.0430
      6  C          7.3980   -0.0430    0.5850 C.2     1  UNL1       -0.0440
      7  C          7.8480    0.9110   -0.3350 C.2     1  UNL1        0.0080
      8  C          7.5070   -1.3760    0.2620 C.2     1  UNL1        0.0540
      9  C          8.3840    0.4840   -1.5360 C.2     1  UNL1        0.0510
     10  C          8.0500   -1.8030   -0.9540 C.2     1  UNL1        0.1660
     11  C          8.4920   -0.8650   -1.8600 C.2     1  UNL1        0.1650
     12  O          8.2630   -3.0500   -1.5010 O.2     1  UNL1       -0.4540
     13  O          8.9740   -1.5630   -2.9560 O.2     1  UNL1       -0.4540
     14  C          8.9310   -2.9520   -2.7330 C.3     1  UNL1        0.4680
@<TRIPOS>BOND
     1    13    14    1
     2    13    11    1
     3    14    12    1
     4    11     9    2
     5    11    10    1
     6     9     7    1
     7    12    10    1
     8    10     8    2
     9     7     6    2
    10     8     6    1
    11     6     5    1
    12     3     2    1
    13     2     1    1
    14     2     4    2
    15     5     1    1
