@<TRIPOS>MOLECULE
/home/cewinharhar/GITHUB/reincatalyze/data/processed/docking_pred/2023-May-30-2130_sub9_nm5_bs15_s42_ex16_mel10_mts10000_k50_ec05_g099_lra3e-4_lrc3e-3/2f41e52dfc6618f39d2325611a45b0a1c53476a0_ligand_9.pdbqt
 14 15 0 0 0
SMALL
GASTEIGER

@<TRIPOS>ATOM
      1  C          8.3170    0.2270   -2.6140 C.3     1  UNL1        0.0800
      2  C          8.0410   -1.2330   -2.7070 C.2     1  UNL1        0.1300
      3  C          9.1210   -2.2150   -2.9920 C.3     1  UNL1        0.0870
      4  O          6.9120   -1.6690   -2.5510 O.2     1  UNL1       -0.3000
      5  C          8.8330    0.6040   -1.2390 C.3     1  UNL1        0.0430
      6  C          7.7930    0.4540   -0.2060 C.2     1  UNL1       -0.0440
      7  C          7.8970   -0.5090    0.8050 C.2     1  UNL1        0.0080
      8  C          6.6890    1.2760   -0.2240 C.2     1  UNL1        0.0540
      9  C          6.8910   -0.6030    1.7490 C.2     1  UNL1        0.0510
     10  C          5.6740    1.1770    0.7330 C.2     1  UNL1        0.1660
     11  C          5.7760    0.2290    1.7270 C.2     1  UNL1        0.1650
     12  O          4.4960    1.8660    0.9270 O.2     1  UNL1       -0.4540
     13  O          4.6470    0.3580    2.5200 O.2     1  UNL1       -0.4540
     14  C          3.8530    1.4430    2.1020 C.3     1  UNL1        0.4680
@<TRIPOS>BOND
     1     3     2    1
     2     2     1    1
     3     2     4    2
     4     1     5    1
     5     5     6    1
     6     8     6    2
     7     8    10    1
     8     6     7    1
     9    10    12    1
    10    10    11    2
    11     7     9    2
    12    12    14    1
    13    11     9    1
    14    11    13    1
    15    14    13    1
