@<TRIPOS>MOLECULE
/home/cewinharhar/GITHUB/reincatalyze/data/processed/docking_pred/2023-May-30-2130_sub9_nm5_bs15_s42_ex16_mel10_mts10000_k50_ec05_g099_lra3e-4_lrc3e-3/2f41e52dfc6618f39d2325611a45b0a1c53476a0_ligand_9.pdbqt
 14 15 0 0 0
SMALL
GASTEIGER

@<TRIPOS>ATOM
      1  C          5.7870    1.4150   -0.1720 C.3     1  UNL1        0.0800
      2  C          5.0770    1.2470    1.1270 C.2     1  UNL1        0.1300
      3  C          5.3320    0.0780    2.0110 C.3     1  UNL1        0.0870
      4  O          4.2590    2.0700    1.5040 O.2     1  UNL1       -0.3000
      5  C          7.2640    1.0980   -0.0370 C.3     1  UNL1        0.0430
      6  C          7.6130   -0.1720   -0.6970 C.2     1  UNL1       -0.0440
      7  C          7.6380   -0.2900   -2.0920 C.2     1  UNL1        0.0080
      8  C          7.9260   -1.2740    0.0650 C.2     1  UNL1        0.0540
      9  C          7.9740   -1.5080   -2.6560 C.2     1  UNL1        0.0510
     10  C          8.2650   -2.5020   -0.5100 C.2     1  UNL1        0.1660
     11  C          8.2890   -2.6200   -1.8820 C.2     1  UNL1        0.1650
     12  O          8.6100   -3.7260    0.0230 O.2     1  UNL1       -0.4540
     13  O          8.6530   -3.9270   -2.1660 O.2     1  UNL1       -0.4540
     14  C          8.9540   -4.6380   -0.9880 C.3     1  UNL1        0.4680
@<TRIPOS>BOND
     1     9     7    1
     2     9    11    2
     3    13    11    1
     4    13    14    1
     5     7     6    2
     6    11    10    1
     7    14    12    1
     8     6     5    1
     9     6     8    1
    10    10    12    1
    11    10     8    2
    12     1     5    1
    13     1     2    1
    14     2     4    2
    15     2     3    1
