@<TRIPOS>MOLECULE
/home/cewinharhar/GITHUB/reincatalyze/data/processed/docking_pred/2023-May-30-2130_sub9_nm5_bs15_s42_ex16_mel10_mts10000_k50_ec05_g099_lra3e-4_lrc3e-3/30246d56752cb6be0208f58fab85103c625ac011_ligand_9.pdbqt
 14 15 0 0 0
SMALL
GASTEIGER

@<TRIPOS>ATOM
      1  C          6.3800    1.2200    0.9240 C.3     1  UNL1        0.0800
      2  C          5.6590    0.3880    1.9270 C.2     1  UNL1        0.1300
      3  C          6.2650   -0.8440    2.5000 C.3     1  UNL1        0.0870
      4  O          4.5410    0.6950    2.3090 O.2     1  UNL1       -0.3000
      5  C          5.8750    0.9500   -0.4800 C.3     1  UNL1        0.0430
      6  C          6.8200    0.1210   -1.2500 C.2     1  UNL1       -0.0440
      7  C          7.5130    0.6320   -2.3530 C.2     1  UNL1        0.0080
      8  C          7.0340   -1.1880   -0.8830 C.2     1  UNL1        0.0540
      9  C          8.3880   -0.1920   -3.0370 C.2     1  UNL1        0.0510
     10  C          7.9200   -2.0170   -1.5780 C.2     1  UNL1        0.1660
     11  C          8.6020   -1.5160   -2.6640 C.2     1  UNL1        0.1650
     12  O          8.3000   -3.3330   -1.4140 O.2     1  UNL1       -0.4540
     13  O          9.3960   -2.5430   -3.1480 O.2     1  UNL1       -0.4540
     14  C          9.3030   -3.6860   -2.3310 C.3     1  UNL1        0.4680
@<TRIPOS>BOND
     1    13    11    1
     2    13    14    1
     3     9    11    2
     4     9     7    1
     5    11    10    1
     6     7     6    2
     7    14    12    1
     8    10    12    1
     9    10     8    2
    10     6     8    1
    11     6     5    1
    12     5     1    1
    13     1     2    1
    14     2     4    2
    15     2     3    1
