MODEL 1
REMARK VINA RESULT:      -7.6      0.000      0.000
REMARK SMILES CC(=O)CCc1ccc2c(c1)OCO2
REMARK SMILES IDX 4 1 2 2 1 3 3 4 5 5 6 6 7 7 11 8 8 9 10 10 9 11 12 12 14 13
REMARK SMILES IDX 13 14
REMARK H PARENT
REMARK Flexibility Score: inf
ROOT
ATOM      1  C   UNL     1       5.538   1.910   1.278  1.00  0.00     0.080 C 
ENDROOT
BRANCH   1   2
ATOM      2  C   UNL     1       5.087   0.694   2.009  1.00  0.00     0.130 C 
ATOM      3  C   UNL     1       5.972  -0.490   2.178  1.00  0.00     0.087 C 
ATOM      4  O   UNL     1       3.969   0.633   2.495  1.00  0.00    -0.300 OA
ENDBRANCH   1   2
BRANCH   1   5
ATOM      5  C   UNL     1       5.409   1.731  -0.222  1.00  0.00     0.043 C 
BRANCH   5   6
ATOM      6  C   UNL     1       6.572   1.027  -0.790  1.00  0.00    -0.044 A 
ATOM      7  C   UNL     1       7.881   1.462  -0.550  1.00  0.00     0.008 A 
ATOM      8  C   UNL     1       6.380  -0.086  -1.576  1.00  0.00     0.054 A 
ATOM      9  C   UNL     1       8.934   0.761  -1.109  1.00  0.00     0.051 A 
ATOM     10  C   UNL     1       7.448  -0.791  -2.139  1.00  0.00     0.166 A 
ATOM     11  C   UNL     1       8.736  -0.364  -1.904  1.00  0.00     0.165 A 
ATOM     12  O   UNL     1       7.516  -1.909  -2.943  1.00  0.00    -0.454 OA
ATOM     13  O   UNL     1       9.577  -1.237  -2.574  1.00  0.00    -0.454 OA
ATOM     14  C   UNL     1       8.850  -2.285  -3.171  1.00  0.00     0.468 C 
ENDBRANCH   5   6
ENDBRANCH   1   5
TORSDOF 3
ENDMDL
MODEL 2
REMARK VINA RESULT:      -7.5      1.910      2.359
REMARK SMILES CC(=O)CCc1ccc2c(c1)OCO2
REMARK SMILES IDX 4 1 2 2 1 3 3 4 5 5 6 6 7 7 11 8 8 9 10 10 9 11 12 12 14 13
REMARK SMILES IDX 13 14
REMARK H PARENT
REMARK Flexibility Score: inf
ROOT
ATOM      1  C   UNL     1       5.721   1.322  -0.279  1.00  0.00     0.080 C 
ENDROOT
BRANCH   1   2
ATOM      2  C   UNL     1       5.118   1.261   1.082  1.00  0.00     0.130 C 
ATOM      3  C   UNL     1       5.381   0.123   2.003  1.00  0.00     0.087 C 
ATOM      4  O   UNL     1       4.384   2.150   1.482  1.00  0.00    -0.300 OA
ENDBRANCH   1   2
BRANCH   1   5
ATOM      5  C   UNL     1       7.220   1.101  -0.227  1.00  0.00     0.043 C 
BRANCH   5   6
ATOM      6  C   UNL     1       7.606  -0.178  -0.849  1.00  0.00    -0.044 A 
ATOM      7  C   UNL     1       7.708  -0.316  -2.238  1.00  0.00     0.008 A 
ATOM      8  C   UNL     1       7.878  -1.268  -0.054  1.00  0.00     0.054 A 
ATOM      9  C   UNL     1       8.075  -1.540  -2.765  1.00  0.00     0.051 A 
ATOM     10  C   UNL     1       8.250  -2.504  -0.592  1.00  0.00     0.166 A 
ATOM     11  C   UNL     1       8.349  -2.641  -1.959  1.00  0.00     0.165 A 
ATOM     12  O   UNL     1       8.566  -3.719  -0.023  1.00  0.00    -0.454 OA
ATOM     13  O   UNL     1       8.729  -3.951  -2.203  1.00  0.00    -0.454 OA
ATOM     14  C   UNL     1       8.966  -4.645  -1.001  1.00  0.00     0.468 C 
ENDBRANCH   5   6
ENDBRANCH   1   5
TORSDOF 3
ENDMDL
MODEL 3
REMARK VINA RESULT:      -7.2      2.074      2.608
REMARK SMILES CC(=O)CCc1ccc2c(c1)OCO2
REMARK SMILES IDX 4 1 2 2 1 3 3 4 5 5 6 6 7 7 11 8 8 9 10 10 9 11 12 12 14 13
REMARK SMILES IDX 13 14
REMARK H PARENT
REMARK Flexibility Score: inf
ROOT
ATOM      1  C   UNL     1       5.547   0.018   1.966  1.00  0.00     0.080 C 
ENDROOT
BRANCH   1   2
ATOM      2  C   UNL     1       4.652   1.165   1.649  1.00  0.00     0.130 C 
ATOM      3  C   UNL     1       4.948   2.101   0.532  1.00  0.00     0.087 C 
ATOM      4  O   UNL     1       3.642   1.371   2.303  1.00  0.00    -0.300 OA
ENDBRANCH   1   2
BRANCH   1   5
ATOM      5  C   UNL     1       6.962   0.275   1.485  1.00  0.00     0.043 C 
BRANCH   5   6
ATOM      6  C   UNL     1       7.367  -0.685   0.442  1.00  0.00    -0.044 A 
ATOM      7  C   UNL     1       7.258  -0.377  -0.919  1.00  0.00     0.008 A 
ATOM      8  C   UNL     1       7.868  -1.915   0.804  1.00  0.00     0.054 A 
ATOM      9  C   UNL     1       7.655  -1.317  -1.853  1.00  0.00     0.051 A 
ATOM     10  C   UNL     1       8.268  -2.861  -0.145  1.00  0.00     0.166 A 
ATOM     11  C   UNL     1       8.160  -2.559  -1.484  1.00  0.00     0.165 A 
ATOM     12  O   UNL     1       8.788  -4.133  -0.041  1.00  0.00    -0.454 OA
ATOM     13  O   UNL     1       8.623  -3.664  -2.182  1.00  0.00    -0.454 OA
ATOM     14  C   UNL     1       9.115  -4.649  -1.305  1.00  0.00     0.468 C 
ENDBRANCH   5   6
ENDBRANCH   1   5
TORSDOF 3
ENDMDL
MODEL 4
REMARK VINA RESULT:      -7.1      1.251      1.462
REMARK SMILES CC(=O)CCc1ccc2c(c1)OCO2
REMARK SMILES IDX 4 1 2 2 1 3 3 4 5 5 6 6 7 7 11 8 8 9 10 10 9 11 12 12 14 13
REMARK SMILES IDX 13 14
REMARK H PARENT
REMARK Flexibility Score: inf
ROOT
ATOM      1  C   UNL     1       6.405   1.201   0.939  1.00  0.00     0.080 C 
ENDROOT
BRANCH   1   2
ATOM      2  C   UNL     1       5.669   0.366   1.930  1.00  0.00     0.130 C 
ATOM      3  C   UNL     1       6.264  -0.871   2.503  1.00  0.00     0.087 C 
ATOM      4  O   UNL     1       4.549   0.676   2.301  1.00  0.00    -0.300 OA
ENDBRANCH   1   2
BRANCH   1   5
ATOM      5  C   UNL     1       5.902   0.954  -0.469  1.00  0.00     0.043 C 
BRANCH   5   6
ATOM      6  C   UNL     1       6.837   0.117  -1.244  1.00  0.00    -0.044 A 
ATOM      7  C   UNL     1       7.522   0.621  -2.355  1.00  0.00     0.008 A 
ATOM      8  C   UNL     1       7.049  -1.191  -0.873  1.00  0.00     0.054 A 
ATOM      9  C   UNL     1       8.387  -0.210  -3.043  1.00  0.00     0.051 A 
ATOM     10  C   UNL     1       7.925  -2.027  -1.572  1.00  0.00     0.166 A 
ATOM     11  C   UNL     1       8.600  -1.533  -2.666  1.00  0.00     0.165 A 
ATOM     12  O   UNL     1       8.302  -3.343  -1.405  1.00  0.00    -0.454 OA
ATOM     13  O   UNL     1       9.385  -2.566  -3.153  1.00  0.00    -0.454 OA
ATOM     14  C   UNL     1       9.296  -3.704  -2.330  1.00  0.00     0.468 C 
ENDBRANCH   5   6
ENDBRANCH   1   5
TORSDOF 3
ENDMDL
MODEL 5
REMARK VINA RESULT:      -7.0      1.994      2.589
REMARK SMILES CC(=O)CCc1ccc2c(c1)OCO2
REMARK SMILES IDX 4 1 2 2 1 3 3 4 5 5 6 6 7 7 11 8 8 9 10 10 9 11 12 12 14 13
REMARK SMILES IDX 13 14
REMARK H PARENT
REMARK Flexibility Score: inf
ROOT
ATOM      1  C   UNL     1       6.861   0.679   1.173  1.00  0.00     0.080 C 
ENDROOT
BRANCH   1   2
ATOM      2  C   UNL     1       5.468   1.156   1.398  1.00  0.00     0.130 C 
ATOM      3  C   UNL     1       4.828   2.149   0.495  1.00  0.00     0.087 C 
ATOM      4  O   UNL     1       4.808   0.744   2.338  1.00  0.00    -0.300 OA
ENDBRANCH   1   2
BRANCH   1   5
ATOM      5  C   UNL     1       7.280   0.865  -0.272  1.00  0.00     0.043 C 
BRANCH   5   6
ATOM      6  C   UNL     1       7.710  -0.405  -0.884  1.00  0.00    -0.044 A 
ATOM      7  C   UNL     1       7.909  -0.524  -2.264  1.00  0.00     0.008 A 
ATOM      8  C   UNL     1       7.927  -1.507  -0.088  1.00  0.00     0.054 A 
ATOM      9  C   UNL     1       8.314  -1.741  -2.782  1.00  0.00     0.051 A 
ATOM     10  C   UNL     1       8.337  -2.735  -0.616  1.00  0.00     0.166 A 
ATOM     11  C   UNL     1       8.532  -2.853  -1.974  1.00  0.00     0.165 A 
ATOM     12  O   UNL     1       8.615  -3.958  -0.044  1.00  0.00    -0.454 OA
ATOM     13  O   UNL     1       8.930  -4.159  -2.210  1.00  0.00    -0.454 OA
ATOM     14  C   UNL     1       9.083  -4.870  -1.005  1.00  0.00     0.468 C 
ENDBRANCH   5   6
ENDBRANCH   1   5
TORSDOF 3
ENDMDL
