@<TRIPOS>MOLECULE
/home/cewinharhar/GITHUB/reincatalyze/data/processed/docking_pred/2023-May-30-2130_sub9_nm5_bs15_s42_ex16_mel10_mts10000_k50_ec05_g099_lra3e-4_lrc3e-3/3162da3d825baae428df1736f889259fa2bb10a2_ligand_9.pdbqt
 14 15 0 0 0
SMALL
GASTEIGER

@<TRIPOS>ATOM
      1  C          5.3920   -0.0880    2.0170 C.3     1  UNL1        0.0800
      2  C          4.5200    1.0900    1.7550 C.2     1  UNL1        0.1300
      3  C          4.8370    2.0750    0.6870 C.3     1  UNL1        0.0870
      4  O          3.5120    1.2830    2.4160 O.2     1  UNL1       -0.3000
      5  C          6.8220    0.1800    1.5900 C.3     1  UNL1        0.0430
      6  C          7.2580   -0.7450    0.5290 C.2     1  UNL1       -0.0440
      7  C          7.1310   -0.4190   -0.8260 C.2     1  UNL1        0.0080
      8  C          7.8080   -1.9610    0.8680 C.2     1  UNL1        0.0540
      9  C          7.5580   -1.3270   -1.7780 C.2     1  UNL1        0.0510
     10  C          8.2390   -2.8750   -0.0980 C.2     1  UNL1        0.1660
     11  C          8.1130   -2.5560   -1.4320 C.2     1  UNL1        0.1650
     12  O          8.8090   -4.1280   -0.0180 O.2     1  UNL1       -0.4540
     13  O          8.6140   -3.6300   -2.1500 O.2     1  UNL1       -0.4540
     14  C          9.1490   -4.6100   -1.2930 C.3     1  UNL1        0.4680
@<TRIPOS>BOND
     1    13    11    1
     2    13    14    1
     3     9    11    2
     4     9     7    1
     5    11    10    1
     6    14    12    1
     7     7     6    2
     8    10    12    1
     9    10     8    2
    10     6     8    1
    11     6     5    1
    12     3     2    1
    13     5     1    1
    14     2     1    1
    15     2     4    2
