MODEL 1
REMARK VINA RESULT:      -7.6      0.000      0.000
REMARK SMILES CC(=O)CCc1ccc2c(c1)OCO2
REMARK SMILES IDX 4 1 2 2 1 3 3 4 5 5 6 6 7 7 11 8 8 9 10 10 9 11 12 12 14 13
REMARK SMILES IDX 13 14
REMARK H PARENT
REMARK Flexibility Score: inf
ROOT
ATOM      1  C   UNL     1       5.489   1.925   1.269  1.00  0.00     0.080 C 
ENDROOT
BRANCH   1   2
ATOM      2  C   UNL     1       5.001   0.714   1.985  1.00  0.00     0.130 C 
ATOM      3  C   UNL     1       5.841  -0.507   2.115  1.00  0.00     0.087 C 
ATOM      4  O   UNL     1       3.889   0.688   2.487  1.00  0.00    -0.300 OA
ENDBRANCH   1   2
BRANCH   1   5
ATOM      5  C   UNL     1       5.381   1.758  -0.234  1.00  0.00     0.043 C 
BRANCH   5   6
ATOM      6  C   UNL     1       6.546   1.046  -0.789  1.00  0.00    -0.044 A 
ATOM      7  C   UNL     1       7.855   1.462  -0.522  1.00  0.00     0.008 A 
ATOM      8  C   UNL     1       6.353  -0.058  -1.589  1.00  0.00     0.054 A 
ATOM      9  C   UNL     1       8.909   0.754  -1.070  1.00  0.00     0.051 A 
ATOM     10  C   UNL     1       7.422  -0.770  -2.140  1.00  0.00     0.166 A 
ATOM     11  C   UNL     1       8.711  -0.360  -1.879  1.00  0.00     0.165 A 
ATOM     12  O   UNL     1       7.491  -1.881  -2.954  1.00  0.00    -0.454 OA
ATOM     13  O   UNL     1       9.553  -1.238  -2.543  1.00  0.00    -0.454 OA
ATOM     14  C   UNL     1       8.824  -2.271  -3.163  1.00  0.00     0.468 C 
ENDBRANCH   5   6
ENDBRANCH   1   5
TORSDOF 3
ENDMDL
MODEL 2
REMARK VINA RESULT:      -7.4      1.921      2.343
REMARK SMILES CC(=O)CCc1ccc2c(c1)OCO2
REMARK SMILES IDX 4 1 2 2 1 3 3 4 5 5 6 6 7 7 11 8 8 9 10 10 9 11 12 12 14 13
REMARK SMILES IDX 13 14
REMARK H PARENT
REMARK Flexibility Score: inf
ROOT
ATOM      1  C   UNL     1       5.651   1.328  -0.228  1.00  0.00     0.080 C 
ENDROOT
BRANCH   1   2
ATOM      2  C   UNL     1       5.005   1.212   1.109  1.00  0.00     0.130 C 
ATOM      3  C   UNL     1       5.282   0.063   2.013  1.00  0.00     0.087 C 
ATOM      4  O   UNL     1       4.225   2.063   1.504  1.00  0.00    -0.300 OA
ENDBRANCH   1   2
BRANCH   1   5
ATOM      5  C   UNL     1       7.147   1.098  -0.138  1.00  0.00     0.043 C 
BRANCH   5   6
ATOM      6  C   UNL     1       7.545  -0.169  -0.776  1.00  0.00    -0.044 A 
ATOM      7  C   UNL     1       7.633  -0.294  -2.168  1.00  0.00     0.008 A 
ATOM      8  C   UNL     1       7.841  -1.263   0.005  1.00  0.00     0.054 A 
ATOM      9  C   UNL     1       8.012  -1.508  -2.710  1.00  0.00     0.051 A 
ATOM     10  C   UNL     1       8.224  -2.488  -0.548  1.00  0.00     0.166 A 
ATOM     11  C   UNL     1       8.310  -2.612  -1.917  1.00  0.00     0.165 A 
ATOM     12  O   UNL     1       8.564  -3.704   0.007  1.00  0.00    -0.454 OA
ATOM     13  O   UNL     1       8.706  -3.915  -2.177  1.00  0.00    -0.454 OA
ATOM     14  C   UNL     1       8.966  -4.615  -0.984  1.00  0.00     0.468 C 
ENDBRANCH   5   6
ENDBRANCH   1   5
TORSDOF 3
ENDMDL
MODEL 3
REMARK VINA RESULT:      -7.3      2.068      2.633
REMARK SMILES CC(=O)CCc1ccc2c(c1)OCO2
REMARK SMILES IDX 4 1 2 2 1 3 3 4 5 5 6 6 7 7 11 8 8 9 10 10 9 11 12 12 14 13
REMARK SMILES IDX 13 14
REMARK H PARENT
REMARK Flexibility Score: inf
ROOT
ATOM      1  C   UNL     1       5.392  -0.088   2.017  1.00  0.00     0.080 C 
ENDROOT
BRANCH   1   2
ATOM      2  C   UNL     1       4.520   1.090   1.755  1.00  0.00     0.130 C 
ATOM      3  C   UNL     1       4.837   2.075   0.687  1.00  0.00     0.087 C 
ATOM      4  O   UNL     1       3.512   1.283   2.416  1.00  0.00    -0.300 OA
ENDBRANCH   1   2
BRANCH   1   5
ATOM      5  C   UNL     1       6.822   0.180   1.590  1.00  0.00     0.043 C 
BRANCH   5   6
ATOM      6  C   UNL     1       7.258  -0.745   0.529  1.00  0.00    -0.044 A 
ATOM      7  C   UNL     1       7.131  -0.419  -0.826  1.00  0.00     0.008 A 
ATOM      8  C   UNL     1       7.808  -1.961   0.868  1.00  0.00     0.054 A 
ATOM      9  C   UNL     1       7.558  -1.327  -1.778  1.00  0.00     0.051 A 
ATOM     10  C   UNL     1       8.239  -2.875  -0.098  1.00  0.00     0.166 A 
ATOM     11  C   UNL     1       8.113  -2.556  -1.432  1.00  0.00     0.165 A 
ATOM     12  O   UNL     1       8.809  -4.128  -0.018  1.00  0.00    -0.454 OA
ATOM     13  O   UNL     1       8.614  -3.630  -2.150  1.00  0.00    -0.454 OA
ATOM     14  C   UNL     1       9.149  -4.610  -1.293  1.00  0.00     0.468 C 
ENDBRANCH   5   6
ENDBRANCH   1   5
TORSDOF 3
ENDMDL
MODEL 4
REMARK VINA RESULT:      -7.0      2.006      2.565
REMARK SMILES CC(=O)CCc1ccc2c(c1)OCO2
REMARK SMILES IDX 4 1 2 2 1 3 3 4 5 5 6 6 7 7 11 8 8 9 10 10 9 11 12 12 14 13
REMARK SMILES IDX 13 14
REMARK H PARENT
REMARK Flexibility Score: inf
ROOT
ATOM      1  C   UNL     1       6.806   0.719   1.357  1.00  0.00     0.080 C 
ENDROOT
BRANCH   1   2
ATOM      2  C   UNL     1       5.378   1.123   1.484  1.00  0.00     0.130 C 
ATOM      3  C   UNL     1       4.774   2.150   0.593  1.00  0.00     0.087 C 
ATOM      4  O   UNL     1       4.658   0.619   2.331  1.00  0.00    -0.300 OA
ENDBRANCH   1   2
BRANCH   1   5
ATOM      5  C   UNL     1       7.318   0.943  -0.053  1.00  0.00     0.043 C 
BRANCH   5   6
ATOM      6  C   UNL     1       7.674  -0.326  -0.712  1.00  0.00    -0.044 A 
ATOM      7  C   UNL     1       7.697  -0.446  -2.107  1.00  0.00     0.008 A 
ATOM      8  C   UNL     1       7.995  -1.425   0.051  1.00  0.00     0.054 A 
ATOM      9  C   UNL     1       8.040  -1.661  -2.670  1.00  0.00     0.051 A 
ATOM     10  C   UNL     1       8.342  -2.652  -0.523  1.00  0.00     0.166 A 
ATOM     11  C   UNL     1       8.364  -2.771  -1.895  1.00  0.00     0.165 A 
ATOM     12  O   UNL     1       8.695  -3.873   0.011  1.00  0.00    -0.454 OA
ATOM     13  O   UNL     1       8.736  -4.076  -2.178  1.00  0.00    -0.454 OA
ATOM     14  C   UNL     1       9.043  -4.784  -1.001  1.00  0.00     0.468 C 
ENDBRANCH   5   6
ENDBRANCH   1   5
TORSDOF 3
ENDMDL
MODEL 5
REMARK VINA RESULT:      -7.0      1.282      1.524
REMARK SMILES CC(=O)CCc1ccc2c(c1)OCO2
REMARK SMILES IDX 4 1 2 2 1 3 3 4 5 5 6 6 7 7 11 8 8 9 10 10 9 11 12 12 14 13
REMARK SMILES IDX 13 14
REMARK H PARENT
REMARK Flexibility Score: inf
ROOT
ATOM      1  C   UNL     1       6.409   1.235   0.858  1.00  0.00     0.080 C 
ENDROOT
BRANCH   1   2
ATOM      2  C   UNL     1       5.715   0.445   1.913  1.00  0.00     0.130 C 
ATOM      3  C   UNL     1       6.341  -0.755   2.529  1.00  0.00     0.087 C 
ATOM      4  O   UNL     1       4.603   0.762   2.304  1.00  0.00    -0.300 OA
ENDBRANCH   1   2
BRANCH   1   5
ATOM      5  C   UNL     1       5.885   0.890  -0.522  1.00  0.00     0.043 C 
BRANCH   5   6
ATOM      6  C   UNL     1       6.842   0.062  -1.278  1.00  0.00    -0.044 A 
ATOM      7  C   UNL     1       7.543   0.571  -2.377  1.00  0.00     0.008 A 
ATOM      8  C   UNL     1       7.060  -1.244  -0.902  1.00  0.00     0.054 A 
ATOM      9  C   UNL     1       8.429  -0.253  -3.048  1.00  0.00     0.051 A 
ATOM     10  C   UNL     1       7.957  -2.073  -1.583  1.00  0.00     0.166 A 
ATOM     11  C   UNL     1       8.647  -1.573  -2.665  1.00  0.00     0.165 A 
ATOM     12  O   UNL     1       8.343  -3.385  -1.408  1.00  0.00    -0.454 OA
ATOM     13  O   UNL     1       9.451  -2.599  -3.136  1.00  0.00    -0.454 OA
ATOM     14  C   UNL     1       9.357  -3.737  -2.313  1.00  0.00     0.468 C 
ENDBRANCH   5   6
ENDBRANCH   1   5
TORSDOF 3
ENDMDL
