@<TRIPOS>MOLECULE
/home/cewinharhar/GITHUB/reincatalyze/data/processed/docking_pred/2023-May-30-2130_sub9_nm5_bs15_s42_ex16_mel10_mts10000_k50_ec05_g099_lra3e-4_lrc3e-3/3162da3d825baae428df1736f889259fa2bb10a2_ligand_9.pdbqt
 14 15 0 0 0
SMALL
GASTEIGER

@<TRIPOS>ATOM
      1  C          6.8060    0.7190    1.3570 C.3     1  UNL1        0.0800
      2  C          5.3780    1.1230    1.4840 C.2     1  UNL1        0.1300
      3  C          4.7740    2.1500    0.5930 C.3     1  UNL1        0.0870
      4  O          4.6580    0.6190    2.3310 O.2     1  UNL1       -0.3000
      5  C          7.3180    0.9430   -0.0530 C.3     1  UNL1        0.0430
      6  C          7.6740   -0.3260   -0.7120 C.2     1  UNL1       -0.0440
      7  C          7.6970   -0.4460   -2.1070 C.2     1  UNL1        0.0080
      8  C          7.9950   -1.4250    0.0510 C.2     1  UNL1        0.0540
      9  C          8.0400   -1.6610   -2.6700 C.2     1  UNL1        0.0510
     10  C          8.3420   -2.6520   -0.5230 C.2     1  UNL1        0.1660
     11  C          8.3640   -2.7710   -1.8950 C.2     1  UNL1        0.1650
     12  O          8.6950   -3.8730    0.0110 O.2     1  UNL1       -0.4540
     13  O          8.7360   -4.0760   -2.1780 O.2     1  UNL1       -0.4540
     14  C          9.0430   -4.7840   -1.0010 C.3     1  UNL1        0.4680
@<TRIPOS>BOND
     1     9     7    1
     2     9    11    2
     3    13    11    1
     4    13    14    1
     5     7     6    2
     6    11    10    1
     7    14    12    1
     8     6     5    1
     9     6     8    1
    10    10    12    1
    11    10     8    2
    12     5     1    1
    13     3     2    1
    14     1     2    1
    15     2     4    2
