@<TRIPOS>MOLECULE
/home/cewinharhar/GITHUB/reincatalyze/data/processed/docking_pred/2023-May-30-2130_sub9_nm5_bs15_s42_ex16_mel10_mts10000_k50_ec05_g099_lra3e-4_lrc3e-3/31638bda67923b1bb66f4f033a77b51352de91e4_ligand_9.pdbqt
 14 15 0 0 0
SMALL
GASTEIGER

@<TRIPOS>ATOM
      1  C          5.3060   -0.0750    1.9660 C.3     1  UNL1        0.0800
      2  C          4.4290    1.1160    1.7910 C.2     1  UNL1        0.1300
      3  C          4.7120    2.1500    0.7600 C.3     1  UNL1        0.0870
      4  O          3.4450    1.2780    2.4950 O.2     1  UNL1       -0.3000
      5  C          6.7720    0.3080    1.9080 C.3     1  UNL1        0.0430
      6  C          7.3780   -0.0440    0.6120 C.2     1  UNL1       -0.0440
      7  C          7.8700    0.9350   -0.2580 C.2     1  UNL1        0.0080
      8  C          7.4690   -1.3660    0.2380 C.2     1  UNL1        0.0540
      9  C          8.4280    0.5450   -1.4620 C.2     1  UNL1        0.0510
     10  C          8.0360   -1.7560   -0.9790 C.2     1  UNL1        0.1660
     11  C          8.5190   -0.7920   -1.8360 C.2     1  UNL1        0.1650
     12  O          8.2390   -2.9850   -1.5710 O.2     1  UNL1       -0.4540
     13  O          9.0150   -1.4560   -2.9470 O.2     1  UNL1       -0.4540
     14  C          8.9400   -2.8520   -2.7800 C.3     1  UNL1        0.4680
@<TRIPOS>BOND
     1    13    14    1
     2    13    11    1
     3    14    12    1
     4    11     9    2
     5    11    10    1
     6    12    10    1
     7     9     7    1
     8    10     8    2
     9     7     6    2
    10     8     6    1
    11     6     5    1
    12     3     2    1
    13     2     1    1
    14     2     4    2
    15     5     1    1
