@<TRIPOS>MOLECULE
/home/cewinharhar/GITHUB/reincatalyze/data/processed/docking_pred/2023-May-30-2130_sub9_nm5_bs15_s42_ex16_mel10_mts10000_k50_ec05_g099_lra3e-4_lrc3e-3/31638bda67923b1bb66f4f033a77b51352de91e4_ligand_9.pdbqt
 14 15 0 0 0
SMALL
GASTEIGER

@<TRIPOS>ATOM
      1  C          6.3700    1.1910    0.9260 C.3     1  UNL1        0.0800
      2  C          5.6680    0.3690    1.9510 C.2     1  UNL1        0.1300
      3  C          6.2890   -0.8520    2.5310 C.3     1  UNL1        0.0870
      4  O          4.5550    0.6760    2.3460 O.2     1  UNL1       -0.3000
      5  C          5.8540    0.8920   -0.4680 C.3     1  UNL1        0.0430
      6  C          6.8110    0.0810   -1.2420 C.2     1  UNL1       -0.0440
      7  C          7.5040    0.6120   -2.3370 C.2     1  UNL1        0.0080
      8  C          7.0390   -1.2290   -0.8880 C.2     1  UNL1        0.0540
      9  C          8.3900   -0.1960   -3.0250 C.2     1  UNL1        0.0510
     10  C          7.9360   -2.0420   -1.5870 C.2     1  UNL1        0.1660
     11  C          8.6170   -1.5210   -2.6650 C.2     1  UNL1        0.1650
     12  O          8.3300   -3.3540   -1.4350 O.2     1  UNL1       -0.4540
     13  O          9.4240   -2.5350   -3.1570 O.2     1  UNL1       -0.4540
     14  C          9.3410   -3.6860   -2.3520 C.3     1  UNL1        0.4680
@<TRIPOS>BOND
     1    13    11    1
     2    13    14    1
     3     9    11    2
     4     9     7    1
     5    11    10    1
     6    14    12    1
     7     7     6    2
     8    10    12    1
     9    10     8    2
    10     6     8    1
    11     6     5    1
    12     5     1    1
    13     1     2    1
    14     2     4    2
    15     2     3    1
