MODEL 1
REMARK VINA RESULT:      -7.6      0.000      0.000
REMARK SMILES CC(=O)CCc1ccc2c(c1)OCO2
REMARK SMILES IDX 4 1 2 2 1 3 3 4 5 5 6 6 7 7 11 8 8 9 10 10 9 11 12 12 14 13
REMARK SMILES IDX 13 14
REMARK H PARENT
REMARK Flexibility Score: inf
ROOT
ATOM      1  C   UNL     1       5.544   1.904   1.277  1.00  0.00     0.080 C 
ENDROOT
BRANCH   1   2
ATOM      2  C   UNL     1       5.109   0.682   2.009  1.00  0.00     0.130 C 
ATOM      3  C   UNL     1       6.008  -0.491   2.176  1.00  0.00     0.087 C 
ATOM      4  O   UNL     1       3.993   0.608   2.498  1.00  0.00    -0.300 OA
ENDBRANCH   1   2
BRANCH   1   5
ATOM      5  C   UNL     1       5.415   1.721  -0.223  1.00  0.00     0.043 C 
BRANCH   5   6
ATOM      6  C   UNL     1       6.580   1.018  -0.789  1.00  0.00    -0.044 A 
ATOM      7  C   UNL     1       7.889   1.447  -0.537  1.00  0.00     0.008 A 
ATOM      8  C   UNL     1       6.389  -0.088  -1.585  1.00  0.00     0.054 A 
ATOM      9  C   UNL     1       8.943   0.748  -1.095  1.00  0.00     0.051 A 
ATOM     10  C   UNL     1       7.459  -0.793  -2.146  1.00  0.00     0.166 A 
ATOM     11  C   UNL     1       8.746  -0.371  -1.900  1.00  0.00     0.165 A 
ATOM     12  O   UNL     1       7.529  -1.905  -2.958  1.00  0.00    -0.454 OA
ATOM     13  O   UNL     1       9.589  -1.242  -2.572  1.00  0.00    -0.454 OA
ATOM     14  C   UNL     1       8.863  -2.283  -3.181  1.00  0.00     0.468 C 
ENDBRANCH   5   6
ENDBRANCH   1   5
TORSDOF 3
ENDMDL
MODEL 2
REMARK VINA RESULT:      -7.4      1.924      2.376
REMARK SMILES CC(=O)CCc1ccc2c(c1)OCO2
REMARK SMILES IDX 4 1 2 2 1 3 3 4 5 5 6 6 7 7 11 8 8 9 10 10 9 11 12 12 14 13
REMARK SMILES IDX 13 14
REMARK H PARENT
REMARK Flexibility Score: inf
ROOT
ATOM      1  C   UNL     1       5.808   1.402  -0.253  1.00  0.00     0.080 C 
ENDROOT
BRANCH   1   2
ATOM      2  C   UNL     1       5.154   1.271   1.079  1.00  0.00     0.130 C 
ATOM      3  C   UNL     1       5.361   0.072   1.935  1.00  0.00     0.087 C 
ATOM      4  O   UNL     1       4.425   2.150   1.509  1.00  0.00    -0.300 OA
ENDBRANCH   1   2
BRANCH   1   5
ATOM      5  C   UNL     1       7.294   1.114  -0.168  1.00  0.00     0.043 C 
BRANCH   5   6
ATOM      6  C   UNL     1       7.638  -0.171  -0.802  1.00  0.00    -0.044 A 
ATOM      7  C   UNL     1       7.664  -0.319  -2.193  1.00  0.00     0.008 A 
ATOM      8  C   UNL     1       7.945  -1.258  -0.015  1.00  0.00     0.054 A 
ATOM      9  C   UNL     1       7.995  -1.549  -2.731  1.00  0.00     0.051 A 
ATOM     10  C   UNL     1       8.280  -2.500  -0.564  1.00  0.00     0.166 A 
ATOM     11  C   UNL     1       8.305  -2.646  -1.934  1.00  0.00     0.165 A 
ATOM     12  O   UNL     1       8.619  -3.714  -0.006  1.00  0.00    -0.454 OA
ATOM     13  O   UNL     1       8.663  -3.961  -2.190  1.00  0.00    -0.454 OA
ATOM     14  C   UNL     1       8.960  -4.648  -0.997  1.00  0.00     0.468 C 
ENDBRANCH   5   6
ENDBRANCH   1   5
TORSDOF 3
ENDMDL
MODEL 3
REMARK VINA RESULT:      -7.2      2.089      2.616
REMARK SMILES CC(=O)CCc1ccc2c(c1)OCO2
REMARK SMILES IDX 4 1 2 2 1 3 3 4 5 5 6 6 7 7 11 8 8 9 10 10 9 11 12 12 14 13
REMARK SMILES IDX 13 14
REMARK H PARENT
REMARK Flexibility Score: inf
ROOT
ATOM      1  C   UNL     1       5.557   0.047   1.943  1.00  0.00     0.080 C 
ENDROOT
BRANCH   1   2
ATOM      2  C   UNL     1       4.670   1.199   1.619  1.00  0.00     0.130 C 
ATOM      3  C   UNL     1       4.970   2.124   0.495  1.00  0.00     0.087 C 
ATOM      4  O   UNL     1       3.663   1.417   2.273  1.00  0.00    -0.300 OA
ENDBRANCH   1   2
BRANCH   1   5
ATOM      5  C   UNL     1       6.976   0.295   1.469  1.00  0.00     0.043 C 
BRANCH   5   6
ATOM      6  C   UNL     1       7.384  -0.674   0.436  1.00  0.00    -0.044 A 
ATOM      7  C   UNL     1       7.299  -0.371  -0.928  1.00  0.00     0.008 A 
ATOM      8  C   UNL     1       7.865  -1.908   0.810  1.00  0.00     0.054 A 
ATOM      9  C   UNL     1       7.698  -1.319  -1.852  1.00  0.00     0.051 A 
ATOM     10  C   UNL     1       8.267  -2.863  -0.128  1.00  0.00     0.166 A 
ATOM     11  C   UNL     1       8.183  -2.566  -1.470  1.00  0.00     0.165 A 
ATOM     12  O   UNL     1       8.771  -4.141  -0.011  1.00  0.00    -0.454 OA
ATOM     13  O   UNL     1       8.642  -3.680  -2.156  1.00  0.00    -0.454 OA
ATOM     14  C   UNL     1       9.110  -4.667  -1.268  1.00  0.00     0.468 C 
ENDBRANCH   5   6
ENDBRANCH   1   5
TORSDOF 3
ENDMDL
MODEL 4
REMARK VINA RESULT:      -7.1      1.249      1.457
REMARK SMILES CC(=O)CCc1ccc2c(c1)OCO2
REMARK SMILES IDX 4 1 2 2 1 3 3 4 5 5 6 6 7 7 11 8 8 9 10 10 9 11 12 12 14 13
REMARK SMILES IDX 13 14
REMARK H PARENT
REMARK Flexibility Score: inf
ROOT
ATOM      1  C   UNL     1       6.370   1.191   0.926  1.00  0.00     0.080 C 
ENDROOT
BRANCH   1   2
ATOM      2  C   UNL     1       5.668   0.369   1.951  1.00  0.00     0.130 C 
ATOM      3  C   UNL     1       6.289  -0.852   2.531  1.00  0.00     0.087 C 
ATOM      4  O   UNL     1       4.555   0.676   2.346  1.00  0.00    -0.300 OA
ENDBRANCH   1   2
BRANCH   1   5
ATOM      5  C   UNL     1       5.854   0.892  -0.468  1.00  0.00     0.043 C 
BRANCH   5   6
ATOM      6  C   UNL     1       6.811   0.081  -1.242  1.00  0.00    -0.044 A 
ATOM      7  C   UNL     1       7.504   0.612  -2.337  1.00  0.00     0.008 A 
ATOM      8  C   UNL     1       7.039  -1.229  -0.888  1.00  0.00     0.054 A 
ATOM      9  C   UNL     1       8.390  -0.196  -3.025  1.00  0.00     0.051 A 
ATOM     10  C   UNL     1       7.936  -2.042  -1.587  1.00  0.00     0.166 A 
ATOM     11  C   UNL     1       8.617  -1.521  -2.665  1.00  0.00     0.165 A 
ATOM     12  O   UNL     1       8.330  -3.354  -1.435  1.00  0.00    -0.454 OA
ATOM     13  O   UNL     1       9.424  -2.535  -3.157  1.00  0.00    -0.454 OA
ATOM     14  C   UNL     1       9.341  -3.686  -2.352  1.00  0.00     0.468 C 
ENDBRANCH   5   6
ENDBRANCH   1   5
TORSDOF 3
ENDMDL
MODEL 5
REMARK VINA RESULT:      -6.8      1.264      1.753
REMARK SMILES CC(=O)CCc1ccc2c(c1)OCO2
REMARK SMILES IDX 4 1 2 2 1 3 3 4 5 5 6 6 7 7 11 8 8 9 10 10 9 11 12 12 14 13
REMARK SMILES IDX 13 14
REMARK H PARENT
REMARK Flexibility Score: inf
ROOT
ATOM      1  C   UNL     1       5.306  -0.075   1.966  1.00  0.00     0.080 C 
ENDROOT
BRANCH   1   2
ATOM      2  C   UNL     1       4.429   1.116   1.791  1.00  0.00     0.130 C 
ATOM      3  C   UNL     1       4.712   2.150   0.760  1.00  0.00     0.087 C 
ATOM      4  O   UNL     1       3.445   1.278   2.495  1.00  0.00    -0.300 OA
ENDBRANCH   1   2
BRANCH   1   5
ATOM      5  C   UNL     1       6.772   0.308   1.908  1.00  0.00     0.043 C 
BRANCH   5   6
ATOM      6  C   UNL     1       7.378  -0.044   0.612  1.00  0.00    -0.044 A 
ATOM      7  C   UNL     1       7.870   0.935  -0.258  1.00  0.00     0.008 A 
ATOM      8  C   UNL     1       7.469  -1.366   0.238  1.00  0.00     0.054 A 
ATOM      9  C   UNL     1       8.428   0.545  -1.462  1.00  0.00     0.051 A 
ATOM     10  C   UNL     1       8.036  -1.756  -0.979  1.00  0.00     0.166 A 
ATOM     11  C   UNL     1       8.519  -0.792  -1.836  1.00  0.00     0.165 A 
ATOM     12  O   UNL     1       8.239  -2.985  -1.571  1.00  0.00    -0.454 OA
ATOM     13  O   UNL     1       9.015  -1.456  -2.947  1.00  0.00    -0.454 OA
ATOM     14  C   UNL     1       8.940  -2.852  -2.780  1.00  0.00     0.468 C 
ENDBRANCH   5   6
ENDBRANCH   1   5
TORSDOF 3
ENDMDL
