@<TRIPOS>MOLECULE
/home/cewinharhar/GITHUB/reincatalyze/data/processed/docking_pred/2023-May-30-2130_sub9_nm5_bs15_s42_ex16_mel10_mts10000_k50_ec05_g099_lra3e-4_lrc3e-3/31638bda67923b1bb66f4f033a77b51352de91e4_ligand_9.pdbqt
 14 15 0 0 0
SMALL
GASTEIGER

@<TRIPOS>ATOM
      1  C          5.5440    1.9040    1.2770 C.3     1  UNL1        0.0800
      2  C          5.1090    0.6820    2.0090 C.2     1  UNL1        0.1300
      3  C          6.0080   -0.4910    2.1760 C.3     1  UNL1        0.0870
      4  O          3.9930    0.6080    2.4980 O.2     1  UNL1       -0.3000
      5  C          5.4150    1.7210   -0.2230 C.3     1  UNL1        0.0430
      6  C          6.5800    1.0180   -0.7890 C.2     1  UNL1       -0.0440
      7  C          7.8890    1.4470   -0.5370 C.2     1  UNL1        0.0080
      8  C          6.3890   -0.0880   -1.5850 C.2     1  UNL1        0.0540
      9  C          8.9430    0.7480   -1.0950 C.2     1  UNL1        0.0510
     10  C          7.4590   -0.7930   -2.1460 C.2     1  UNL1        0.1660
     11  C          8.7460   -0.3710   -1.9000 C.2     1  UNL1        0.1650
     12  O          7.5290   -1.9050   -2.9580 O.2     1  UNL1       -0.4540
     13  O          9.5890   -1.2420   -2.5720 O.2     1  UNL1       -0.4540
     14  C          8.8630   -2.2830   -3.1810 C.3     1  UNL1        0.4680
@<TRIPOS>BOND
     1    14    12    1
     2    14    13    1
     3    12    10    1
     4    13    11    1
     5    10    11    2
     6    10     8    1
     7    11     9    1
     8     8     6    2
     9     9     7    2
    10     6     7    1
    11     6     5    1
    12     5     1    1
    13     1     2    1
    14     2     3    1
    15     2     4    2
