@<TRIPOS>MOLECULE
/home/cewinharhar/GITHUB/reincatalyze/data/processed/docking_pred/2023-May-30-2130_sub9_nm5_bs15_s42_ex16_mel10_mts10000_k50_ec05_g099_lra3e-4_lrc3e-3/32925d028e6f827171d23f19599134de0355568e_ligand_9.pdbqt
 14 15 0 0 0
SMALL
GASTEIGER

@<TRIPOS>ATOM
      1  C          5.8820    1.3360   -0.2670 C.3     1  UNL1        0.0800
      2  C          5.2950    1.2330    1.0990 C.2     1  UNL1        0.1300
      3  C          5.4780    0.0190    1.9380 C.3     1  UNL1        0.0870
      4  O          4.6420    2.1500    1.5710 O.2     1  UNL1       -0.3000
      5  C          7.3710    1.0530   -0.2480 C.3     1  UNL1        0.0430
      6  C          7.6870   -0.2480   -0.8650 C.2     1  UNL1       -0.0440
      7  C          7.6910   -0.4190   -2.2540 C.2     1  UNL1        0.0080
      8  C          7.9900   -1.3260   -0.0650 C.2     1  UNL1        0.0540
      9  C          7.9960   -1.6630   -2.7760 C.2     1  UNL1        0.0510
     10  C          8.2980   -2.5820   -0.5980 C.2     1  UNL1        0.1660
     11  C          8.3010   -2.7510   -1.9640 C.2     1  UNL1        0.1650
     12  O          8.6270   -3.7910   -0.0230 O.2     1  UNL1       -0.4540
     13  O          8.6360   -4.0750   -2.2030 O.2     1  UNL1       -0.4540
     14  C          8.9400   -4.7470   -1.0040 C.3     1  UNL1        0.4680
@<TRIPOS>BOND
     1     9     7    1
     2     9    11    2
     3     7     6    2
     4    13    11    1
     5    13    14    1
     6    11    10    1
     7    14    12    1
     8     6     5    1
     9     6     8    1
    10    10     8    2
    11    10    12    1
    12     1     5    1
    13     1     2    1
    14     2     4    2
    15     2     3    1
