@<TRIPOS>MOLECULE
/home/cewinharhar/GITHUB/reincatalyze/data/processed/docking_pred/2023-May-30-2130_sub9_nm5_bs15_s42_ex16_mel10_mts10000_k50_ec05_g099_lra3e-4_lrc3e-3/32925d028e6f827171d23f19599134de0355568e_ligand_9.pdbqt
 14 15 0 0 0
SMALL
GASTEIGER

@<TRIPOS>ATOM
      1  C          5.3060   -0.0670    1.9830 C.3     1  UNL1        0.0800
      2  C          4.4230    1.1180    1.7950 C.2     1  UNL1        0.1300
      3  C          4.7100    2.1500    0.7630 C.3     1  UNL1        0.0870
      4  O          3.4320    1.2770    2.4900 O.2     1  UNL1       -0.3000
      5  C          6.7700    0.3220    1.9200 C.3     1  UNL1        0.0430
      6  C          7.3740   -0.0320    0.6230 C.2     1  UNL1       -0.0440
      7  C          7.8730    0.9470   -0.2440 C.2     1  UNL1        0.0080
      8  C          7.4570   -1.3530    0.2460 C.2     1  UNL1        0.0540
      9  C          8.4300    0.5560   -1.4480 C.2     1  UNL1        0.0510
     10  C          8.0220   -1.7430   -0.9720 C.2     1  UNL1        0.1660
     11  C          8.5120   -0.7810   -1.8260 C.2     1  UNL1        0.1650
     12  O          8.2170   -2.9720   -1.5660 O.2     1  UNL1       -0.4540
     13  O          9.0040   -1.4460   -2.9380 O.2     1  UNL1       -0.4540
     14  C          8.9200   -2.8420   -2.7750 C.3     1  UNL1        0.4680
@<TRIPOS>BOND
     1    13    14    1
     2    13    11    1
     3    14    12    1
     4    11     9    2
     5    11    10    1
     6    12    10    1
     7     9     7    1
     8    10     8    2
     9     7     6    2
    10     8     6    1
    11     6     5    1
    12     3     2    1
    13     2     1    1
    14     2     4    2
    15     5     1    1
