@<TRIPOS>MOLECULE
/home/cewinharhar/GITHUB/reincatalyze/data/processed/docking_pred/2023-May-30-2130_sub9_nm5_bs15_s42_ex16_mel10_mts10000_k50_ec05_g099_lra3e-4_lrc3e-3/367438b83e07ec58543242b49c62b5ced391bd04_ligand_9.pdbqt
 14 15 0 0 0
SMALL
GASTEIGER

@<TRIPOS>ATOM
      1  C          6.3920    1.1650    0.9650 C.3     1  UNL1        0.0800
      2  C          5.6380    0.3460    1.9550 C.2     1  UNL1        0.1300
      3  C          6.2130   -0.8940    2.5410 C.3     1  UNL1        0.0870
      4  O          4.5190    0.6720    2.3150 O.2     1  UNL1       -0.3000
      5  C          5.8900    0.9250   -0.4450 C.3     1  UNL1        0.0430
      6  C          6.8270    0.0980   -1.2250 C.2     1  UNL1       -0.0440
      7  C          7.4950    0.6060   -2.3450 C.2     1  UNL1        0.0080
      8  C          7.0600   -1.2060   -0.8510 C.2     1  UNL1        0.0540
      9  C          8.3640   -0.2170   -3.0380 C.2     1  UNL1        0.0510
     10  C          7.9400   -2.0340   -1.5550 C.2     1  UNL1        0.1660
     11  C          8.5970   -1.5350   -2.6580 C.2     1  UNL1        0.1650
     12  O          8.3350   -3.3440   -1.3870 O.2     1  UNL1       -0.4540
     13  O          9.3910   -2.5600   -3.1490 O.2     1  UNL1       -0.4540
     14  C          9.3240   -3.6960   -2.3200 C.3     1  UNL1        0.4680
@<TRIPOS>BOND
     1    13    11    1
     2    13    14    1
     3     9    11    2
     4     9     7    1
     5    11    10    1
     6     7     6    2
     7    14    12    1
     8    10    12    1
     9    10     8    2
    10     6     8    1
    11     6     5    1
    12     5     1    1
    13     1     2    1
    14     2     4    2
    15     2     3    1
