@<TRIPOS>MOLECULE
/home/cewinharhar/GITHUB/reincatalyze/data/processed/docking_pred/2023-May-30-2130_sub9_nm5_bs15_s42_ex16_mel10_mts10000_k50_ec05_g099_lra3e-4_lrc3e-3/367438b83e07ec58543242b49c62b5ced391bd04_ligand_9.pdbqt
 14 15 0 0 0
SMALL
GASTEIGER

@<TRIPOS>ATOM
      1  C          5.7530    1.4080   -0.2700 C.3     1  UNL1        0.0800
      2  C          5.1610    1.2800    1.0910 C.2     1  UNL1        0.1300
      3  C          5.4320    0.0980    1.9520 C.3     1  UNL1        0.0870
      4  O          4.4310    2.1490    1.5410 O.2     1  UNL1       -0.3000
      5  C          7.2510    1.1730   -0.2430 C.3     1  UNL1        0.0430
      6  C          7.6110   -0.1270   -0.8350 C.2     1  UNL1       -0.0440
      7  C          7.6680   -0.3110   -2.2220 C.2     1  UNL1        0.0080
      8  C          7.9020   -1.1930   -0.0150 C.2     1  UNL1        0.0540
      9  C          8.0130   -1.5540   -2.7200 C.2     1  UNL1        0.0510
     10  C          8.2510   -2.4480   -0.5240 C.2     1  UNL1        0.1660
     11  C          8.3060   -2.6300   -1.8870 C.2     1  UNL1        0.1650
     12  O          8.5780   -3.6460    0.0740 O.2     1  UNL1       -0.4540
     13  O          8.6720   -3.9500   -2.1010 O.2     1  UNL1       -0.4540
     14  C          8.9430   -4.6050   -0.8850 C.3     1  UNL1        0.4680
@<TRIPOS>BOND
     1     9     7    1
     2     9    11    2
     3     7     6    2
     4    13    11    1
     5    13    14    1
     6    11    10    1
     7    14    12    1
     8     6     5    1
     9     6     8    1
    10    10     8    2
    11    10    12    1
    12     1     5    1
    13     1     2    1
    14     2     4    2
    15     2     3    1
