@<TRIPOS>MOLECULE
/home/cewinharhar/GITHUB/reincatalyze/data/processed/docking_pred/2023-May-30-2130_sub9_nm5_bs15_s42_ex16_mel10_mts10000_k50_ec05_g099_lra3e-4_lrc3e-3/367438b83e07ec58543242b49c62b5ced391bd04_ligand_9.pdbqt
 14 15 0 0 0
SMALL
GASTEIGER

@<TRIPOS>ATOM
      1  C          5.5470    1.8930    1.2790 C.3     1  UNL1        0.0800
      2  C          5.0980    0.6730    2.0050 C.2     1  UNL1        0.1300
      3  C          5.9840   -0.5110    2.1660 C.3     1  UNL1        0.0870
      4  O          3.9810    0.6100    2.4930 O.2     1  UNL1       -0.3000
      5  C          5.4160    1.7200   -0.2220 C.3     1  UNL1        0.0430
      6  C          6.5810    1.0210   -0.7940 C.2     1  UNL1       -0.0440
      7  C          7.8890    1.4570   -0.5540 C.2     1  UNL1        0.0080
      8  C          6.3890   -0.0890   -1.5850 C.2     1  UNL1        0.0540
      9  C          8.9430    0.7610   -1.1170 C.2     1  UNL1        0.0510
     10  C          7.4580   -0.7900   -2.1510 C.2     1  UNL1        0.1660
     11  C          8.7450   -0.3610   -1.9160 C.2     1  UNL1        0.1650
     12  O          7.5280   -1.9040   -2.9600 O.2     1  UNL1       -0.4540
     13  O          9.5870   -1.2300   -2.5910 O.2     1  UNL1       -0.4540
     14  C          8.8620   -2.2770   -3.1920 C.3     1  UNL1        0.4680
@<TRIPOS>BOND
     1    14    12    1
     2    14    13    1
     3    12    10    1
     4    13    11    1
     5    10    11    2
     6    10     8    1
     7    11     9    1
     8     8     6    2
     9     9     7    2
    10     6     7    1
    11     6     5    1
    12     5     1    1
    13     1     2    1
    14     2     3    1
    15     2     4    2
