@<TRIPOS>MOLECULE
/home/cewinharhar/GITHUB/reincatalyze/data/processed/docking_pred/2023-May-30-2130_sub9_nm5_bs15_s42_ex16_mel10_mts10000_k50_ec05_g099_lra3e-4_lrc3e-3/37aabdb081a78d2f2d4d4e560ab17afff45a2586_ligand_9.pdbqt
 14 15 0 0 0
SMALL
GASTEIGER

@<TRIPOS>ATOM
      1  C          5.5420    1.9270    1.2720 C.3     1  UNL1        0.0800
      2  C          5.1050    0.7090    2.0100 C.2     1  UNL1        0.1300
      3  C          6.0080   -0.4580    2.1930 C.3     1  UNL1        0.0870
      4  O          3.9850    0.6350    2.4880 O.2     1  UNL1       -0.3000
      5  C          5.4110    1.7390   -0.2270 C.3     1  UNL1        0.0430
      6  C          6.5750    1.0340   -0.7930 C.2     1  UNL1       -0.0440
      7  C          7.8830    1.4650   -0.5470 C.2     1  UNL1        0.0080
      8  C          6.3820   -0.0780   -1.5800 C.2     1  UNL1        0.0540
      9  C          8.9370    0.7630   -1.1040 C.2     1  UNL1        0.0510
     10  C          7.4500   -0.7850   -2.1410 C.2     1  UNL1        0.1660
     11  C          8.7380   -0.3610   -1.9010 C.2     1  UNL1        0.1650
     12  O          7.5180   -1.9020   -2.9460 O.2     1  UNL1       -0.4540
     13  O          9.5790   -1.2350   -2.5700 O.2     1  UNL1       -0.4540
     14  C          8.8520   -2.2800   -3.1710 C.3     1  UNL1        0.4680
@<TRIPOS>BOND
     1    14    12    1
     2    14    13    1
     3    12    10    1
     4    13    11    1
     5    10    11    2
     6    10     8    1
     7    11     9    1
     8     8     6    2
     9     9     7    2
    10     6     7    1
    11     6     5    1
    12     5     1    1
    13     1     2    1
    14     2     3    1
    15     2     4    2
