@<TRIPOS>MOLECULE
/home/cewinharhar/GITHUB/reincatalyze/data/processed/docking_pred/2023-May-30-2130_sub9_nm5_bs15_s42_ex16_mel10_mts10000_k50_ec05_g099_lra3e-4_lrc3e-3/37aabdb081a78d2f2d4d4e560ab17afff45a2586_ligand_9.pdbqt
 14 15 0 0 0
SMALL
GASTEIGER

@<TRIPOS>ATOM
      1  C          6.3370    1.2250    0.9450 C.3     1  UNL1        0.0800
      2  C          5.6670    0.3660    1.9610 C.2     1  UNL1        0.1300
      3  C          6.3270   -0.8450    2.5170 C.3     1  UNL1        0.0870
      4  O          4.5480    0.6340    2.3690 O.2     1  UNL1       -0.3000
      5  C          5.8200    0.9320   -0.4500 C.3     1  UNL1        0.0430
      6  C          6.7750    0.1220   -1.2280 C.2     1  UNL1       -0.0440
      7  C          7.4640    0.6530   -2.3240 C.2     1  UNL1        0.0080
      8  C          7.0040   -1.1880   -0.8750 C.2     1  UNL1        0.0540
      9  C          8.3480   -0.1540   -3.0160 C.2     1  UNL1        0.0510
     10  C          7.8990   -2.0000   -1.5770 C.2     1  UNL1        0.1660
     11  C          8.5770   -1.4790   -2.6570 C.2     1  UNL1        0.1650
     12  O          8.2940   -3.3130   -1.4270 O.2     1  UNL1       -0.4540
     13  O          9.3830   -2.4920   -3.1510 O.2     1  UNL1       -0.4540
     14  C          9.3020   -3.6440   -2.3470 C.3     1  UNL1        0.4680
@<TRIPOS>BOND
     1    13    11    1
     2    13    14    1
     3     9    11    2
     4     9     7    1
     5    11    10    1
     6    14    12    1
     7     7     6    2
     8    10    12    1
     9    10     8    2
    10     6     8    1
    11     6     5    1
    12     5     1    1
    13     1     2    1
    14     2     4    2
    15     2     3    1
