@<TRIPOS>MOLECULE
/home/cewinharhar/GITHUB/reincatalyze/data/processed/docking_pred/2023-May-30-2130_sub9_nm5_bs15_s42_ex16_mel10_mts10000_k50_ec05_g099_lra3e-4_lrc3e-3/37aabdb081a78d2f2d4d4e560ab17afff45a2586_ligand_9.pdbqt
 14 15 0 0 0
SMALL
GASTEIGER

@<TRIPOS>ATOM
      1  C          5.4360   -0.0430    1.9980 C.3     1  UNL1        0.0800
      2  C          4.5810    1.1530    1.7560 C.2     1  UNL1        0.1300
      3  C          4.8990    2.1370    0.6870 C.3     1  UNL1        0.0870
      4  O          3.5880    1.3600    2.4340 O.2     1  UNL1       -0.3000
      5  C          6.8680    0.2080    1.5680 C.3     1  UNL1        0.0430
      6  C          7.2900   -0.7220    0.5050 C.2     1  UNL1       -0.0440
      7  C          7.1640   -0.3940   -0.8490 C.2     1  UNL1        0.0080
      8  C          7.8250   -1.9450    0.8420 C.2     1  UNL1        0.0540
      9  C          7.5780   -1.3060   -1.8030 C.2     1  UNL1        0.0510
     10  C          8.2430   -2.8640   -0.1250 C.2     1  UNL1        0.1660
     11  C          8.1180   -2.5420   -1.4590 C.2     1  UNL1        0.1650
     12  O          8.7970   -4.1240   -0.0470 O.2     1  UNL1       -0.4540
     13  O          8.6040   -3.6220   -2.1790 O.2     1  UNL1       -0.4540
     14  C          9.1280   -4.6090   -1.3230 C.3     1  UNL1        0.4680
@<TRIPOS>BOND
     1    13    11    1
     2    13    14    1
     3     9    11    2
     4     9     7    1
     5    11    10    1
     6    14    12    1
     7     7     6    2
     8    10    12    1
     9    10     8    2
    10     6     8    1
    11     6     5    1
    12     3     2    1
    13     5     1    1
    14     2     1    1
    15     2     4    2
