@<TRIPOS>MOLECULE
/home/cewinharhar/GITHUB/reincatalyze/data/processed/docking_pred/2023-May-30-2130_sub9_nm5_bs15_s42_ex16_mel10_mts10000_k50_ec05_g099_lra3e-4_lrc3e-3/37aabdb081a78d2f2d4d4e560ab17afff45a2586_ligand_9.pdbqt
 14 15 0 0 0
SMALL
GASTEIGER

@<TRIPOS>ATOM
      1  C          6.6120    0.5040    1.2430 C.3     1  UNL1        0.0800
      2  C          5.2690    1.1160    1.4480 C.2     1  UNL1        0.1300
      3  C          4.7310    2.1470    0.5210 C.3     1  UNL1        0.0870
      4  O          4.5670    0.7850    2.3900 O.2     1  UNL1       -0.3000
      5  C          7.1170    0.7450   -0.1660 C.3     1  UNL1        0.0430
      6  C          7.5910   -0.5000   -0.7960 C.2     1  UNL1       -0.0440
      7  C          7.7570   -0.6030   -2.1820 C.2     1  UNL1        0.0080
      8  C          7.8840   -1.5930   -0.0130 C.2     1  UNL1        0.0540
      9  C          8.2060   -1.7970   -2.7180 C.2     1  UNL1        0.0510
     10  C          8.3390   -2.7970   -0.5590 C.2     1  UNL1        0.1660
     11  C          8.5010   -2.9000   -1.9220 C.2     1  UNL1        0.1650
     12  O          8.6910   -4.0080   -0.0010 O.2     1  UNL1       -0.4540
     13  O          8.9550   -4.1840   -2.1760 O.2     1  UNL1       -0.4540
     14  C          9.1770   -4.8910   -0.9790 C.3     1  UNL1        0.4680
@<TRIPOS>BOND
     1     9     7    1
     2     9    11    2
     3     7     6    2
     4    13    11    1
     5    13    14    1
     6    11    10    1
     7    14    12    1
     8     6     5    1
     9     6     8    1
    10    10     8    2
    11    10    12    1
    12     5     1    1
    13     3     2    1
    14     1     2    1
    15     2     4    2
