@<TRIPOS>MOLECULE
/home/cewinharhar/GITHUB/reincatalyze/data/processed/docking_pred/2023-May-30-2130_sub9_nm5_bs15_s42_ex16_mel10_mts10000_k50_ec05_g099_lra3e-4_lrc3e-3/37aabdb081a78d2f2d4d4e560ab17afff45a2586_ligand_9.pdbqt
 14 15 0 0 0
SMALL
GASTEIGER

@<TRIPOS>ATOM
      1  C          5.6670    1.3480   -0.2730 C.3     1  UNL1        0.0800
      2  C          5.0800    1.2520    1.0930 C.2     1  UNL1        0.1300
      3  C          5.4050    0.1230    2.0050 C.3     1  UNL1        0.0870
      4  O          4.3100    2.1040    1.5060 O.2     1  UNL1       -0.3000
      5  C          7.1670    1.1320   -0.2440 C.3     1  UNL1        0.0430
      6  C          7.5440   -0.1630   -0.8390 C.2     1  UNL1       -0.0440
      7  C          7.5770   -0.3500   -2.2260 C.2     1  UNL1        0.0080
      8  C          7.8760   -1.2190   -0.0210 C.2     1  UNL1        0.0540
      9  C          7.9390   -1.5870   -2.7270 C.2     1  UNL1        0.0510
     10  C          8.2420   -2.4670   -0.5330 C.2     1  UNL1        0.1660
     11  C          8.2740   -2.6530   -1.8970 C.2     1  UNL1        0.1650
     12  O          8.6090   -3.6560    0.0620 O.2     1  UNL1       -0.4540
     13  O          8.6640   -3.9650   -2.1140 O.2     1  UNL1       -0.4540
     14  C          8.9750   -4.6100   -0.9020 C.3     1  UNL1        0.4680
@<TRIPOS>BOND
     1     9     7    1
     2     9    11    2
     3     7     6    2
     4    13    11    1
     5    13    14    1
     6    11    10    1
     7    14    12    1
     8     6     5    1
     9     6     8    1
    10    10     8    2
    11    10    12    1
    12     1     5    1
    13     1     2    1
    14     2     4    2
    15     2     3    1
