@<TRIPOS>MOLECULE
/home/cewinharhar/GITHUB/reincatalyze/data/processed/docking_pred/2023-May-30-2130_sub9_nm5_bs15_s42_ex16_mel10_mts10000_k50_ec05_g099_lra3e-4_lrc3e-3/3b11ad51370e6150fddf32b3aa65dd5e24197163_ligand_9.pdbqt
 14 15 0 0 0
SMALL
GASTEIGER

@<TRIPOS>ATOM
      1  C          5.7890   -0.5470    1.7310 C.3     1  UNL1        0.0800
      2  C          4.9340    0.6720    1.7650 C.2     1  UNL1        0.1300
      3  C          5.1520    1.8050    0.8270 C.3     1  UNL1        0.0870
      4  O          4.0240    0.7760    2.5710 O.2     1  UNL1       -0.3000
      5  C          7.2390   -0.1950    1.4630 C.3     1  UNL1        0.0430
      6  C          7.5790   -0.3320    0.0350 C.2     1  UNL1       -0.0440
      7  C          6.9000   -1.2280   -0.7980 C.2     1  UNL1        0.0080
      8  C          8.5870    0.4370   -0.5020 C.2     1  UNL1        0.0540
      9  C          7.2620   -1.3130   -2.1300 C.2     1  UNL1        0.0510
     10  C          8.9490    0.3480   -1.8500 C.2     1  UNL1        0.1660
     11  C          8.2810   -0.5350   -2.6700 C.2     1  UNL1        0.1650
     12  O          9.9000    0.9920   -2.6120 O.2     1  UNL1       -0.4540
     13  O          8.8420   -0.4120   -3.9320 O.2     1  UNL1       -0.4540
     14  C          9.8100    0.6100   -3.9600 C.3     1  UNL1        0.4680
@<TRIPOS>BOND
     1    14    13    1
     2    14    12    1
     3    13    11    1
     4    11     9    2
     5    11    10    1
     6    12    10    1
     7     9     7    1
     8    10     8    2
     9     7     6    2
    10     8     6    1
    11     6     5    1
    12     3     2    1
    13     5     1    1
    14     1     2    1
    15     2     4    2
