@<TRIPOS>MOLECULE
/home/cewinharhar/GITHUB/reincatalyze/data/processed/docking_pred/2023-May-30-2130_sub9_nm5_bs15_s42_ex16_mel10_mts10000_k50_ec05_g099_lra3e-4_lrc3e-3/3bf4b9a3f06cfa5433c2fd34b58c3faf64c233d9_ligand_9.pdbqt
 14 15 0 0 0
SMALL
GASTEIGER

@<TRIPOS>ATOM
      1  C          5.6990    1.4520   -0.2950 C.3     1  UNL1        0.0800
      2  C          5.0640    1.3020    1.0440 C.2     1  UNL1        0.1300
      3  C          5.4140    0.1780    1.9520 C.3     1  UNL1        0.0870
      4  O          4.2310    2.1040    1.4360 O.2     1  UNL1       -0.3000
      5  C          7.1930    1.2080   -0.2270 C.3     1  UNL1        0.0430
      6  C          7.5690   -0.0660   -0.8660 C.2     1  UNL1       -0.0440
      7  C          7.6180   -0.2000   -2.2590 C.2     1  UNL1        0.0080
      8  C          7.8830   -1.1550   -0.0860 C.2     1  UNL1        0.0540
      9  C          7.9780   -1.4190   -2.8030 C.2     1  UNL1        0.0510
     10  C          8.2470   -2.3850   -0.6410 C.2     1  UNL1        0.1660
     11  C          8.2950   -2.5180   -2.0110 C.2     1  UNL1        0.1650
     12  O          8.5980   -3.5980   -0.0880 O.2     1  UNL1       -0.4540
     13  O          8.6790   -3.8240   -2.2730 O.2     1  UNL1       -0.4540
     14  C          8.9700   -4.5170   -1.0830 C.3     1  UNL1        0.4680
@<TRIPOS>BOND
     1     9     7    1
     2     9    11    2
     3    13    11    1
     4    13    14    1
     5     7     6    2
     6    11    10    1
     7    14    12    1
     8     6     5    1
     9     6     8    1
    10    10    12    1
    11    10     8    2
    12     1     5    1
    13     1     2    1
    14     2     4    2
    15     2     3    1
