@<TRIPOS>MOLECULE
/home/cewinharhar/GITHUB/reincatalyze/data/processed/docking_pred/2023-May-30-2130_sub9_nm5_bs15_s42_ex16_mel10_mts10000_k50_ec05_g099_lra3e-4_lrc3e-3/3c607cf36dcc024da10d53d595c24d9744c2a083_ligand_9.pdbqt
 14 15 0 0 0
SMALL
GASTEIGER

@<TRIPOS>ATOM
      1  C          5.4980    0.0140    2.0100 C.3     1  UNL1        0.0800
      2  C          4.5960    1.1690    1.7430 C.2     1  UNL1        0.1300
      3  C          4.8810    2.1490    0.6610 C.3     1  UNL1        0.0870
      4  O          3.5900    1.3460    2.4110 O.2     1  UNL1       -0.3000
      5  C          6.9050    0.2890    1.5170 C.3     1  UNL1        0.0430
      6  C          7.3130   -0.6640    0.4700 C.2     1  UNL1       -0.0440
      7  C          7.1930   -0.3560   -0.8890 C.2     1  UNL1        0.0080
      8  C          7.8290   -1.8890    0.8270 C.2     1  UNL1        0.0540
      9  C          7.5930   -1.2900   -1.8270 C.2     1  UNL1        0.0510
     10  C          8.2330   -2.8300   -0.1250 C.2     1  UNL1        0.1660
     11  C          8.1140   -2.5280   -1.4630 C.2     1  UNL1        0.1650
     12  O          8.7680   -4.0970   -0.0260 O.2     1  UNL1       -0.4540
     13  O          8.5830   -3.6270   -2.1660 O.2     1  UNL1       -0.4540
     14  C          9.0920   -4.6080   -1.2940 C.3     1  UNL1        0.4680
@<TRIPOS>BOND
     1    13    11    1
     2    13    14    1
     3     9    11    2
     4     9     7    1
     5    11    10    1
     6    14    12    1
     7     7     6    2
     8    10    12    1
     9    10     8    2
    10     6     8    1
    11     6     5    1
    12     3     2    1
    13     5     1    1
    14     2     1    1
    15     2     4    2
