MODEL 1
REMARK VINA RESULT:      -7.6      0.000      0.000
REMARK SMILES CC(=O)CCc1ccc2c(c1)OCO2
REMARK SMILES IDX 4 1 2 2 1 3 3 4 5 5 6 6 7 7 11 8 8 9 10 10 9 11 12 12 14 13
REMARK SMILES IDX 13 14
REMARK H PARENT
REMARK Flexibility Score: inf
ROOT
ATOM      1  C   UNL     1       5.574   1.893   1.294  1.00  0.00     0.080 C 
ENDROOT
BRANCH   1   2
ATOM      2  C   UNL     1       5.121   0.678   2.027  1.00  0.00     0.130 C 
ATOM      3  C   UNL     1       6.005  -0.506   2.196  1.00  0.00     0.087 C 
ATOM      4  O   UNL     1       4.003   0.618   2.511  1.00  0.00    -0.300 OA
ENDBRANCH   1   2
BRANCH   1   5
ATOM      5  C   UNL     1       5.435   1.717  -0.205  1.00  0.00     0.043 C 
BRANCH   5   6
ATOM      6  C   UNL     1       6.595   1.015  -0.782  1.00  0.00    -0.044 A 
ATOM      7  C   UNL     1       7.905   1.451  -0.551  1.00  0.00     0.008 A 
ATOM      8  C   UNL     1       6.398  -0.098  -1.568  1.00  0.00     0.054 A 
ATOM      9  C   UNL     1       8.955   0.752  -1.118  1.00  0.00     0.051 A 
ATOM     10  C   UNL     1       7.463  -0.801  -2.139  1.00  0.00     0.166 A 
ATOM     11  C   UNL     1       8.752  -0.372  -1.913  1.00  0.00     0.165 A 
ATOM     12  O   UNL     1       7.527  -1.918  -2.945  1.00  0.00    -0.454 OA
ATOM     13  O   UNL     1       9.589  -1.244  -2.590  1.00  0.00    -0.454 OA
ATOM     14  C   UNL     1       8.860  -2.292  -3.183  1.00  0.00     0.468 C 
ENDBRANCH   5   6
ENDBRANCH   1   5
TORSDOF 3
ENDMDL
MODEL 2
REMARK VINA RESULT:      -7.4      1.949      2.417
REMARK SMILES CC(=O)CCc1ccc2c(c1)OCO2
REMARK SMILES IDX 4 1 2 2 1 3 3 4 5 5 6 6 7 7 11 8 8 9 10 10 9 11 12 12 14 13
REMARK SMILES IDX 13 14
REMARK H PARENT
REMARK Flexibility Score: inf
ROOT
ATOM      1  C   UNL     1       5.765   1.192  -0.314  1.00  0.00     0.080 C 
ENDROOT
BRANCH   1   2
ATOM      2  C   UNL     1       5.179   1.204   1.056  1.00  0.00     0.130 C 
ATOM      3  C   UNL     1       5.388   0.077   2.004  1.00  0.00     0.087 C 
ATOM      4  O   UNL     1       4.506   2.146   1.441  1.00  0.00    -0.300 OA
ENDBRANCH   1   2
BRANCH   1   5
ATOM      5  C   UNL     1       7.268   1.003  -0.268  1.00  0.00     0.043 C 
BRANCH   5   6
ATOM      6  C   UNL     1       7.678  -0.275  -0.876  1.00  0.00    -0.044 A 
ATOM      7  C   UNL     1       7.844  -0.408  -2.259  1.00  0.00     0.008 A 
ATOM      8  C   UNL     1       7.906  -1.370  -0.074  1.00  0.00     0.054 A 
ATOM      9  C   UNL     1       8.231  -1.633  -2.774  1.00  0.00     0.051 A 
ATOM     10  C   UNL     1       8.298  -2.605  -0.599  1.00  0.00     0.166 A 
ATOM     11  C   UNL     1       8.461  -2.738  -1.960  1.00  0.00     0.165 A 
ATOM     12  O   UNL     1       8.581  -3.825  -0.021  1.00  0.00    -0.454 OA
ATOM     13  O   UNL     1       8.846  -4.049  -2.192  1.00  0.00    -0.454 OA
ATOM     14  C   UNL     1       9.022  -4.748  -0.983  1.00  0.00     0.468 C 
ENDBRANCH   5   6
ENDBRANCH   1   5
TORSDOF 3
ENDMDL
MODEL 3
REMARK VINA RESULT:      -7.2      2.050      2.594
REMARK SMILES CC(=O)CCc1ccc2c(c1)OCO2
REMARK SMILES IDX 4 1 2 2 1 3 3 4 5 5 6 6 7 7 11 8 8 9 10 10 9 11 12 12 14 13
REMARK SMILES IDX 13 14
REMARK H PARENT
REMARK Flexibility Score: inf
ROOT
ATOM      1  C   UNL     1       5.498   0.014   2.010  1.00  0.00     0.080 C 
ENDROOT
BRANCH   1   2
ATOM      2  C   UNL     1       4.596   1.169   1.743  1.00  0.00     0.130 C 
ATOM      3  C   UNL     1       4.881   2.149   0.661  1.00  0.00     0.087 C 
ATOM      4  O   UNL     1       3.590   1.346   2.411  1.00  0.00    -0.300 OA
ENDBRANCH   1   2
BRANCH   1   5
ATOM      5  C   UNL     1       6.905   0.289   1.517  1.00  0.00     0.043 C 
BRANCH   5   6
ATOM      6  C   UNL     1       7.313  -0.664   0.470  1.00  0.00    -0.044 A 
ATOM      7  C   UNL     1       7.193  -0.356  -0.889  1.00  0.00     0.008 A 
ATOM      8  C   UNL     1       7.829  -1.889   0.827  1.00  0.00     0.054 A 
ATOM      9  C   UNL     1       7.593  -1.290  -1.827  1.00  0.00     0.051 A 
ATOM     10  C   UNL     1       8.233  -2.830  -0.125  1.00  0.00     0.166 A 
ATOM     11  C   UNL     1       8.114  -2.528  -1.463  1.00  0.00     0.165 A 
ATOM     12  O   UNL     1       8.768  -4.097  -0.026  1.00  0.00    -0.454 OA
ATOM     13  O   UNL     1       8.583  -3.627  -2.166  1.00  0.00    -0.454 OA
ATOM     14  C   UNL     1       9.092  -4.608  -1.294  1.00  0.00     0.468 C 
ENDBRANCH   5   6
ENDBRANCH   1   5
TORSDOF 3
ENDMDL
MODEL 4
REMARK VINA RESULT:      -7.1      1.253      1.473
REMARK SMILES CC(=O)CCc1ccc2c(c1)OCO2
REMARK SMILES IDX 4 1 2 2 1 3 3 4 5 5 6 6 7 7 11 8 8 9 10 10 9 11 12 12 14 13
REMARK SMILES IDX 13 14
REMARK H PARENT
REMARK Flexibility Score: inf
ROOT
ATOM      1  C   UNL     1       6.383   1.204   0.862  1.00  0.00     0.080 C 
ENDROOT
BRANCH   1   2
ATOM      2  C   UNL     1       5.710   0.368   1.896  1.00  0.00     0.130 C 
ATOM      3  C   UNL     1       6.344  -0.864   2.438  1.00  0.00     0.087 C 
ATOM      4  O   UNL     1       4.612   0.674   2.331  1.00  0.00    -0.300 OA
ENDBRANCH   1   2
BRANCH   1   5
ATOM      5  C   UNL     1       5.873   0.876  -0.527  1.00  0.00     0.043 C 
BRANCH   5   6
ATOM      6  C   UNL     1       6.836   0.056  -1.284  1.00  0.00    -0.044 A 
ATOM      7  C   UNL     1       7.553   0.579  -2.366  1.00  0.00     0.008 A 
ATOM      8  C   UNL     1       7.046  -1.256  -0.924  1.00  0.00     0.054 A 
ATOM      9  C   UNL     1       8.445  -0.237  -3.038  1.00  0.00     0.051 A 
ATOM     10  C   UNL     1       7.949  -2.077  -1.606  1.00  0.00     0.166 A 
ATOM     11  C   UNL     1       8.654  -1.563  -2.672  1.00  0.00     0.165 A 
ATOM     12  O   UNL     1       8.328  -3.393  -1.446  1.00  0.00    -0.454 OA
ATOM     13  O   UNL     1       9.461  -2.584  -3.148  1.00  0.00    -0.454 OA
ATOM     14  C   UNL     1       9.353  -3.735  -2.344  1.00  0.00     0.468 C 
ENDBRANCH   5   6
ENDBRANCH   1   5
TORSDOF 3
ENDMDL
MODEL 5
REMARK VINA RESULT:      -6.7      1.190      5.168
REMARK SMILES CC(=O)CCc1ccc2c(c1)OCO2
REMARK SMILES IDX 4 1 2 2 1 3 3 4 5 5 6 6 7 7 11 8 8 9 10 10 9 11 12 12 14 13
REMARK SMILES IDX 13 14
REMARK H PARENT
REMARK Flexibility Score: inf
ROOT
ATOM      1  C   UNL     1       8.348   0.189  -2.676  1.00  0.00     0.080 C 
ENDROOT
BRANCH   1   2
ATOM      2  C   UNL     1       8.058  -1.270  -2.766  1.00  0.00     0.130 C 
ATOM      3  C   UNL     1       9.131  -2.264  -3.032  1.00  0.00     0.087 C 
ATOM      4  O   UNL     1       6.922  -1.693  -2.622  1.00  0.00    -0.300 OA
ENDBRANCH   1   2
BRANCH   1   5
ATOM      5  C   UNL     1       8.876   0.561  -1.305  1.00  0.00     0.043 C 
BRANCH   5   6
ATOM      6  C   UNL     1       7.843   0.420  -0.264  1.00  0.00    -0.044 A 
ATOM      7  C   UNL     1       7.951  -0.537   0.752  1.00  0.00     0.008 A 
ATOM      8  C   UNL     1       6.742   1.246  -0.279  1.00  0.00     0.054 A 
ATOM      9  C   UNL     1       6.950  -0.623   1.703  1.00  0.00     0.051 A 
ATOM     10  C   UNL     1       5.733   1.156   0.685  1.00  0.00     0.166 A 
ATOM     11  C   UNL     1       5.838   0.213   1.684  1.00  0.00     0.165 A 
ATOM     12  O   UNL     1       4.558   1.849   0.883  1.00  0.00    -0.454 OA
ATOM     13  O   UNL     1       4.714   0.350   2.484  1.00  0.00    -0.454 OA
ATOM     14  C   UNL     1       3.921   1.435   2.065  1.00  0.00     0.468 C 
ENDBRANCH   5   6
ENDBRANCH   1   5
TORSDOF 3
ENDMDL
