@<TRIPOS>MOLECULE
/home/cewinharhar/GITHUB/reincatalyze/data/processed/docking_pred/2023-May-30-2130_sub9_nm5_bs15_s42_ex16_mel10_mts10000_k50_ec05_g099_lra3e-4_lrc3e-3/3c607cf36dcc024da10d53d595c24d9744c2a083_ligand_9.pdbqt
 14 15 0 0 0
SMALL
GASTEIGER

@<TRIPOS>ATOM
      1  C          5.5740    1.8930    1.2940 C.3     1  UNL1        0.0800
      2  C          5.1210    0.6780    2.0270 C.2     1  UNL1        0.1300
      3  C          6.0050   -0.5060    2.1960 C.3     1  UNL1        0.0870
      4  O          4.0030    0.6180    2.5110 O.2     1  UNL1       -0.3000
      5  C          5.4350    1.7170   -0.2050 C.3     1  UNL1        0.0430
      6  C          6.5950    1.0150   -0.7820 C.2     1  UNL1       -0.0440
      7  C          7.9050    1.4510   -0.5510 C.2     1  UNL1        0.0080
      8  C          6.3980   -0.0980   -1.5680 C.2     1  UNL1        0.0540
      9  C          8.9550    0.7520   -1.1180 C.2     1  UNL1        0.0510
     10  C          7.4630   -0.8010   -2.1390 C.2     1  UNL1        0.1660
     11  C          8.7520   -0.3720   -1.9130 C.2     1  UNL1        0.1650
     12  O          7.5270   -1.9180   -2.9450 O.2     1  UNL1       -0.4540
     13  O          9.5890   -1.2440   -2.5900 O.2     1  UNL1       -0.4540
     14  C          8.8600   -2.2920   -3.1830 C.3     1  UNL1        0.4680
@<TRIPOS>BOND
     1    14    12    1
     2    14    13    1
     3    12    10    1
     4    13    11    1
     5    10    11    2
     6    10     8    1
     7    11     9    1
     8     8     6    2
     9     9     7    2
    10     6     7    1
    11     6     5    1
    12     5     1    1
    13     1     2    1
    14     2     3    1
    15     2     4    2
