MODEL 1
REMARK VINA RESULT:      -7.7      0.000      0.000
REMARK SMILES CC(=O)CCc1ccc2c(c1)OCO2
REMARK SMILES IDX 4 1 2 2 1 3 3 4 5 5 6 6 7 7 11 8 8 9 10 10 9 11 12 12 14 13
REMARK SMILES IDX 13 14
REMARK H PARENT
REMARK Flexibility Score: inf
ROOT
ATOM      1  C   UNL     1       5.507   1.902   1.270  1.00  0.00     0.080 C 
ENDROOT
BRANCH   1   2
ATOM      2  C   UNL     1       5.065   0.683   2.003  1.00  0.00     0.130 C 
ATOM      3  C   UNL     1       5.952  -0.501   2.155  1.00  0.00     0.087 C 
ATOM      4  O   UNL     1       3.954   0.621   2.503  1.00  0.00    -0.300 OA
ENDBRANCH   1   2
BRANCH   1   5
ATOM      5  C   UNL     1       5.384   1.718  -0.229  1.00  0.00     0.043 C 
BRANCH   5   6
ATOM      6  C   UNL     1       6.556   1.024  -0.792  1.00  0.00    -0.044 A 
ATOM      7  C   UNL     1       7.860   1.469  -0.546  1.00  0.00     0.008 A 
ATOM      8  C   UNL     1       6.375  -0.091  -1.578  1.00  0.00     0.054 A 
ATOM      9  C   UNL     1       8.921   0.776  -1.101  1.00  0.00     0.051 A 
ATOM     10  C   UNL     1       7.451  -0.789  -2.136  1.00  0.00     0.166 A 
ATOM     11  C   UNL     1       8.735  -0.351  -1.895  1.00  0.00     0.165 A 
ATOM     12  O   UNL     1       7.532  -1.906  -2.939  1.00  0.00    -0.454 OA
ATOM     13  O   UNL     1       9.586  -1.218  -2.562  1.00  0.00    -0.454 OA
ATOM     14  C   UNL     1       8.870  -2.272  -3.162  1.00  0.00     0.468 C 
ENDBRANCH   5   6
ENDBRANCH   1   5
TORSDOF 3
ENDMDL
MODEL 2
REMARK VINA RESULT:      -7.3      1.918      2.377
REMARK SMILES CC(=O)CCc1ccc2c(c1)OCO2
REMARK SMILES IDX 4 1 2 2 1 3 3 4 5 5 6 6 7 7 11 8 8 9 10 10 9 11 12 12 14 13
REMARK SMILES IDX 13 14
REMARK H PARENT
REMARK Flexibility Score: inf
ROOT
ATOM      1  C   UNL     1       5.824   1.445  -0.277  1.00  0.00     0.080 C 
ENDROOT
BRANCH   1   2
ATOM      2  C   UNL     1       5.104   1.321   1.021  1.00  0.00     0.130 C 
ATOM      3  C   UNL     1       5.363   0.191   1.953  1.00  0.00     0.087 C 
ATOM      4  O   UNL     1       4.275   2.150   1.359  1.00  0.00    -0.300 OA
ENDBRANCH   1   2
BRANCH   1   5
ATOM      5  C   UNL     1       7.297   1.122  -0.123  1.00  0.00     0.043 C 
BRANCH   5   6
ATOM      6  C   UNL     1       7.647  -0.156  -0.769  1.00  0.00    -0.044 A 
ATOM      7  C   UNL     1       7.653  -0.295  -2.162  1.00  0.00     0.008 A 
ATOM      8  C   UNL     1       7.980  -1.243   0.006  1.00  0.00     0.054 A 
ATOM      9  C   UNL     1       7.991  -1.518  -2.712  1.00  0.00     0.051 A 
ATOM     10  C   UNL     1       8.322  -2.477  -0.556  1.00  0.00     0.166 A 
ATOM     11  C   UNL     1       8.327  -2.616  -1.926  1.00  0.00     0.165 A 
ATOM     12  O   UNL     1       8.684  -3.690  -0.009  1.00  0.00    -0.454 OA
ATOM     13  O   UNL     1       8.697  -3.924  -2.195  1.00  0.00    -0.454 OA
ATOM     14  C   UNL     1       9.021  -4.614  -1.012  1.00  0.00     0.468 C 
ENDBRANCH   5   6
ENDBRANCH   1   5
TORSDOF 3
ENDMDL
MODEL 3
REMARK VINA RESULT:      -7.2      2.051      2.590
REMARK SMILES CC(=O)CCc1ccc2c(c1)OCO2
REMARK SMILES IDX 4 1 2 2 1 3 3 4 5 5 6 6 7 7 11 8 8 9 10 10 9 11 12 12 14 13
REMARK SMILES IDX 13 14
REMARK H PARENT
REMARK Flexibility Score: inf
ROOT
ATOM      1  C   UNL     1       5.521   0.031   1.960  1.00  0.00     0.080 C 
ENDROOT
BRANCH   1   2
ATOM      2  C   UNL     1       4.644   1.195   1.652  1.00  0.00     0.130 C 
ATOM      3  C   UNL     1       4.967   2.147   0.556  1.00  0.00     0.087 C 
ATOM      4  O   UNL     1       3.628   1.401   2.296  1.00  0.00    -0.300 OA
ENDBRANCH   1   2
BRANCH   1   5
ATOM      5  C   UNL     1       6.946   0.278   1.504  1.00  0.00     0.043 C 
BRANCH   5   6
ATOM      6  C   UNL     1       7.355  -0.667   0.451  1.00  0.00    -0.044 A 
ATOM      7  C   UNL     1       7.242  -0.346  -0.907  1.00  0.00     0.008 A 
ATOM      8  C   UNL     1       7.863  -1.898   0.799  1.00  0.00     0.054 A 
ATOM      9  C   UNL     1       7.643  -1.274  -1.851  1.00  0.00     0.051 A 
ATOM     10  C   UNL     1       8.267  -2.832  -0.160  1.00  0.00     0.166 A 
ATOM     11  C   UNL     1       8.156  -2.517  -1.496  1.00  0.00     0.165 A 
ATOM     12  O   UNL     1       8.795  -4.103  -0.070  1.00  0.00    -0.454 OA
ATOM     13  O   UNL     1       8.623  -3.612  -2.206  1.00  0.00    -0.454 OA
ATOM     14  C   UNL     1       9.123  -4.604  -1.341  1.00  0.00     0.468 C 
ENDBRANCH   5   6
ENDBRANCH   1   5
TORSDOF 3
ENDMDL
MODEL 4
REMARK VINA RESULT:      -7.1      1.260      1.475
REMARK SMILES CC(=O)CCc1ccc2c(c1)OCO2
REMARK SMILES IDX 4 1 2 2 1 3 3 4 5 5 6 6 7 7 11 8 8 9 10 10 9 11 12 12 14 13
REMARK SMILES IDX 13 14
REMARK H PARENT
REMARK Flexibility Score: inf
ROOT
ATOM      1  C   UNL     1       6.392   1.185   0.953  1.00  0.00     0.080 C 
ENDROOT
BRANCH   1   2
ATOM      2  C   UNL     1       5.650   0.369   1.955  1.00  0.00     0.130 C 
ATOM      3  C   UNL     1       6.233  -0.869   2.538  1.00  0.00     0.087 C 
ATOM      4  O   UNL     1       4.535   0.695   2.328  1.00  0.00    -0.300 OA
ENDBRANCH   1   2
BRANCH   1   5
ATOM      5  C   UNL     1       5.885   0.926  -0.452  1.00  0.00     0.043 C 
BRANCH   5   6
ATOM      6  C   UNL     1       6.825   0.097  -1.227  1.00  0.00    -0.044 A 
ATOM      7  C   UNL     1       7.498   0.604  -2.345  1.00  0.00     0.008 A 
ATOM      8  C   UNL     1       7.057  -1.206  -0.851  1.00  0.00     0.054 A 
ATOM      9  C   UNL     1       8.369  -0.221  -3.034  1.00  0.00     0.051 A 
ATOM     10  C   UNL     1       7.939  -2.035  -1.550  1.00  0.00     0.166 A 
ATOM     11  C   UNL     1       8.600  -1.538  -2.651  1.00  0.00     0.165 A 
ATOM     12  O   UNL     1       8.333  -3.345  -1.379  1.00  0.00    -0.454 OA
ATOM     13  O   UNL     1       9.396  -2.564  -3.137  1.00  0.00    -0.454 OA
ATOM     14  C   UNL     1       9.326  -3.699  -2.307  1.00  0.00     0.468 C 
ENDBRANCH   5   6
ENDBRANCH   1   5
TORSDOF 3
ENDMDL
MODEL 5
REMARK VINA RESULT:      -6.8      1.186      5.172
REMARK SMILES CC(=O)CCc1ccc2c(c1)OCO2
REMARK SMILES IDX 4 1 2 2 1 3 3 4 5 5 6 6 7 7 11 8 8 9 10 10 9 11 12 12 14 13
REMARK SMILES IDX 13 14
REMARK H PARENT
REMARK Flexibility Score: inf
ROOT
ATOM      1  C   UNL     1       8.349   0.209  -2.627  1.00  0.00     0.080 C 
ENDROOT
BRANCH   1   2
ATOM      2  C   UNL     1       8.039  -1.244  -2.734  1.00  0.00     0.130 C 
ATOM      3  C   UNL     1       9.095  -2.247  -3.036  1.00  0.00     0.087 C 
ATOM      4  O   UNL     1       6.901  -1.656  -2.577  1.00  0.00    -0.300 OA
ENDBRANCH   1   2
BRANCH   1   5
ATOM      5  C   UNL     1       8.863   0.562  -1.246  1.00  0.00     0.043 C 
BRANCH   5   6
ATOM      6  C   UNL     1       7.813   0.426  -0.220  1.00  0.00    -0.044 A 
ATOM      7  C   UNL     1       7.899  -0.535   0.794  1.00  0.00     0.008 A 
ATOM      8  C   UNL     1       6.719   1.260  -0.250  1.00  0.00     0.054 A 
ATOM      9  C   UNL     1       6.884  -0.616   1.729  1.00  0.00     0.051 A 
ATOM     10  C   UNL     1       5.695   1.175   0.699  1.00  0.00     0.166 A 
ATOM     11  C   UNL     1       5.778   0.229   1.696  1.00  0.00     0.165 A 
ATOM     12  O   UNL     1       4.523   1.877   0.882  1.00  0.00    -0.454 OA
ATOM     13  O   UNL     1       4.644   0.372   2.480  1.00  0.00    -0.454 OA
ATOM     14  C   UNL     1       3.866   1.464   2.053  1.00  0.00     0.468 C 
ENDBRANCH   5   6
ENDBRANCH   1   5
TORSDOF 3
ENDMDL
