@<TRIPOS>MOLECULE
/home/cewinharhar/GITHUB/reincatalyze/data/processed/docking_pred/2023-May-30-2130_sub9_nm5_bs15_s42_ex16_mel10_mts10000_k50_ec05_g099_lra3e-4_lrc3e-3/3ef00b253c4480de2280c2f95d83164b82996574_ligand_9.pdbqt
 14 15 0 0 0
SMALL
GASTEIGER

@<TRIPOS>ATOM
      1  C          5.5100    1.9220    1.2460 C.3     1  UNL1        0.0800
      2  C          5.0720    0.7130    1.9970 C.2     1  UNL1        0.1300
      3  C          5.9630   -0.4660    2.1670 C.3     1  UNL1        0.0870
      4  O          3.9600    0.6540    2.4960 O.2     1  UNL1       -0.3000
      5  C          5.3860    1.7160   -0.2510 C.3     1  UNL1        0.0430
      6  C          6.5580    1.0160   -0.8060 C.2     1  UNL1       -0.0440
      7  C          7.8620    1.4490   -0.5440 C.2     1  UNL1        0.0080
      8  C          6.3760   -0.0940   -1.6000 C.2     1  UNL1        0.0540
      9  C          8.9240    0.7510   -1.0910 C.2     1  UNL1        0.0510
     10  C          7.4530   -0.7960   -2.1500 C.2     1  UNL1        0.1660
     11  C          8.7370   -0.3700   -1.8940 C.2     1  UNL1        0.1650
     12  O          7.5330   -1.9100   -2.9590 O.2     1  UNL1       -0.4540
     13  O          9.5880   -1.2400   -2.5570 O.2     1  UNL1       -0.4540
     14  C          8.8700   -2.2850   -3.1690 C.3     1  UNL1        0.4680
@<TRIPOS>BOND
     1    14    12    1
     2    14    13    1
     3    12    10    1
     4    13    11    1
     5    10    11    2
     6    10     8    1
     7    11     9    1
     8     8     6    2
     9     9     7    2
    10     6     7    1
    11     6     5    1
    12     5     1    1
    13     1     2    1
    14     2     3    1
    15     2     4    2
