@<TRIPOS>MOLECULE
/home/cewinharhar/GITHUB/reincatalyze/data/processed/docking_pred/2023-May-30-2130_sub9_nm5_bs15_s42_ex16_mel10_mts10000_k50_ec05_g099_lra3e-4_lrc3e-3/3ef00b253c4480de2280c2f95d83164b82996574_ligand_9.pdbqt
 14 15 0 0 0
SMALL
GASTEIGER

@<TRIPOS>ATOM
      1  C          5.5650    0.0230    1.8910 C.3     1  UNL1        0.0800
      2  C          4.6750    1.1800    1.5940 C.2     1  UNL1        0.1300
      3  C          4.9850    2.1440    0.5050 C.3     1  UNL1        0.0870
      4  O          3.6590    1.3720    2.2430 O.2     1  UNL1       -0.3000
      5  C          6.9770    0.2750    1.4020 C.3     1  UNL1        0.0430
      6  C          7.3830   -0.7030    0.3770 C.2     1  UNL1       -0.0440
      7  C          7.2710   -0.4220   -0.9900 C.2     1  UNL1        0.0080
      8  C          7.8890   -1.9240    0.7610 C.2     1  UNL1        0.0540
      9  C          7.6690   -1.3780   -1.9060 C.2     1  UNL1        0.0510
     10  C          8.2910   -2.8870   -0.1700 C.2     1  UNL1        0.1660
     11  C          8.1790   -2.6120   -1.5140 C.2     1  UNL1        0.1650
     12  O          8.8150   -4.1550   -0.0420 O.2     1  UNL1       -0.4540
     13  O          8.6440   -3.7280   -2.1920 O.2     1  UNL1       -0.4540
     14  C          9.1420   -4.6950   -1.2980 C.3     1  UNL1        0.4680
@<TRIPOS>BOND
     1    13    11    1
     2    13    14    1
     3     9    11    2
     4     9     7    1
     5    11    10    1
     6    14    12    1
     7     7     6    2
     8    10    12    1
     9    10     8    2
    10     6     8    1
    11     6     5    1
    12     3     2    1
    13     5     1    1
    14     2     1    1
    15     2     4    2
