MODEL 1
REMARK VINA RESULT:      -7.2      0.000      0.000
REMARK SMILES CC(=O)CCc1ccc2c(c1)OCO2
REMARK SMILES IDX 4 1 2 2 1 3 3 4 5 5 6 6 7 7 11 8 8 9 10 10 9 11 12 12 14 13
REMARK SMILES IDX 13 14
REMARK H PARENT
REMARK Flexibility Score: inf
ROOT
ATOM      1  C   UNL     1       6.128   1.656   1.548  1.00  0.00     0.080 C 
ENDROOT
BRANCH   1   2
ATOM      2  C   UNL     1       5.496   0.444   2.139  1.00  0.00     0.130 C 
ATOM      3  C   UNL     1       6.267  -0.809   2.360  1.00  0.00     0.087 C 
ATOM      4  O   UNL     1       4.319   0.444   2.461  1.00  0.00    -0.300 OA
ENDBRANCH   1   2
BRANCH   1   5
ATOM      5  C   UNL     1       5.929   1.704   0.046  1.00  0.00     0.043 C 
BRANCH   5   6
ATOM      6  C   UNL     1       6.965   0.935  -0.667  1.00  0.00    -0.044 A 
ATOM      7  C   UNL     1       8.289   1.383  -0.742  1.00  0.00     0.008 A 
ATOM      8  C   UNL     1       6.635  -0.254  -1.276  1.00  0.00     0.054 A 
ATOM      9  C   UNL     1       9.219   0.619  -1.424  1.00  0.00     0.051 A 
ATOM     10  C   UNL     1       7.578  -1.023  -1.963  1.00  0.00     0.166 A 
ATOM     11  C   UNL     1       8.881  -0.583  -2.038  1.00  0.00     0.165 A 
ATOM     12  O   UNL     1       7.500  -2.221  -2.642  1.00  0.00    -0.454 OA
ATOM     13  O   UNL     1       9.583  -1.530  -2.768  1.00  0.00    -0.454 OA
ATOM     14  C   UNL     1       8.766  -2.629  -3.092  1.00  0.00     0.468 C 
ENDBRANCH   5   6
ENDBRANCH   1   5
TORSDOF 3
ENDMDL
MODEL 2
REMARK VINA RESULT:      -7.2      1.167      1.218
REMARK SMILES CC(=O)CCc1ccc2c(c1)OCO2
REMARK SMILES IDX 4 1 2 2 1 3 3 4 5 5 6 6 7 7 11 8 8 9 10 10 9 11 12 12 14 13
REMARK SMILES IDX 13 14
REMARK H PARENT
REMARK Flexibility Score: inf
ROOT
ATOM      1  C   UNL     1       6.382   1.218   0.929  1.00  0.00     0.080 C 
ENDROOT
BRANCH   1   2
ATOM      2  C   UNL     1       5.660   0.383   1.928  1.00  0.00     0.130 C 
ATOM      3  C   UNL     1       6.266  -0.849   2.501  1.00  0.00     0.087 C 
ATOM      4  O   UNL     1       4.541   0.688   2.309  1.00  0.00    -0.300 OA
ENDBRANCH   1   2
BRANCH   1   5
ATOM      5  C   UNL     1       5.879   0.953  -0.477  1.00  0.00     0.043 C 
BRANCH   5   6
ATOM      6  C   UNL     1       6.823   0.123  -1.247  1.00  0.00    -0.044 A 
ATOM      7  C   UNL     1       7.516   0.634  -2.350  1.00  0.00     0.008 A 
ATOM      8  C   UNL     1       7.037  -1.186  -0.879  1.00  0.00     0.054 A 
ATOM      9  C   UNL     1       8.389  -0.192  -3.035  1.00  0.00     0.051 A 
ATOM     10  C   UNL     1       7.922  -2.016  -1.574  1.00  0.00     0.166 A 
ATOM     11  C   UNL     1       8.603  -1.515  -2.661  1.00  0.00     0.165 A 
ATOM     12  O   UNL     1       8.302  -3.331  -1.410  1.00  0.00    -0.454 OA
ATOM     13  O   UNL     1       9.396  -2.543  -3.146  1.00  0.00    -0.454 OA
ATOM     14  C   UNL     1       9.304  -3.685  -2.328  1.00  0.00     0.468 C 
ENDBRANCH   5   6
ENDBRANCH   1   5
TORSDOF 3
ENDMDL
MODEL 3
REMARK VINA RESULT:      -7.0      1.788      2.302
REMARK SMILES CC(=O)CCc1ccc2c(c1)OCO2
REMARK SMILES IDX 4 1 2 2 1 3 3 4 5 5 6 6 7 7 11 8 8 9 10 10 9 11 12 12 14 13
REMARK SMILES IDX 13 14
REMARK H PARENT
REMARK Flexibility Score: inf
ROOT
ATOM      1  C   UNL     1       5.908   1.119  -0.196  1.00  0.00     0.080 C 
ENDROOT
BRANCH   1   2
ATOM      2  C   UNL     1       5.898   1.133   1.294  1.00  0.00     0.130 C 
ATOM      3  C   UNL     1       5.386  -0.020   2.082  1.00  0.00     0.087 C 
ATOM      4  O   UNL     1       6.312   2.099   1.914  1.00  0.00    -0.300 OA
ENDBRANCH   1   2
BRANCH   1   5
ATOM      5  C   UNL     1       7.324   1.115  -0.737  1.00  0.00     0.043 C 
BRANCH   5   6
ATOM      6  C   UNL     1       7.723  -0.221  -1.213  1.00  0.00    -0.044 A 
ATOM      7  C   UNL     1       7.923  -0.486  -2.573  1.00  0.00     0.008 A 
ATOM      8  C   UNL     1       7.910  -1.241  -0.307  1.00  0.00     0.054 A 
ATOM      9  C   UNL     1       8.298  -1.759  -2.961  1.00  0.00     0.051 A 
ATOM     10  C   UNL     1       8.290  -2.526  -0.704  1.00  0.00     0.166 A 
ATOM     11  C   UNL     1       8.485  -2.787  -2.042  1.00  0.00     0.165 A 
ATOM     12  O   UNL     1       8.534  -3.691  -0.008  1.00  0.00    -0.454 OA
ATOM     13  O   UNL     1       8.850  -4.121  -2.141  1.00  0.00    -0.454 OA
ATOM     14  C   UNL     1       8.981  -4.708  -0.868  1.00  0.00     0.468 C 
ENDBRANCH   5   6
ENDBRANCH   1   5
TORSDOF 3
ENDMDL
MODEL 4
REMARK VINA RESULT:      -6.6      2.034      2.600
REMARK SMILES CC(=O)CCc1ccc2c(c1)OCO2
REMARK SMILES IDX 4 1 2 2 1 3 3 4 5 5 6 6 7 7 11 8 8 9 10 10 9 11 12 12 14 13
REMARK SMILES IDX 13 14
REMARK H PARENT
REMARK Flexibility Score: inf
ROOT
ATOM      1  C   UNL     1       6.096  -0.414   2.278  1.00  0.00     0.080 C 
ENDROOT
BRANCH   1   2
ATOM      2  C   UNL     1       5.083   0.598   1.868  1.00  0.00     0.130 C 
ATOM      3  C   UNL     1       5.262   1.434   0.651  1.00  0.00     0.087 C 
ATOM      4  O   UNL     1       4.068   0.770   2.524  1.00  0.00    -0.300 OA
ENDBRANCH   1   2
BRANCH   1   5
ATOM      5  C   UNL     1       7.449  -0.121   1.659  1.00  0.00     0.043 C 
BRANCH   5   6
ATOM      6  C   UNL     1       7.757  -1.047   0.555  1.00  0.00    -0.044 A 
ATOM      7  C   UNL     1       7.636  -0.658  -0.784  1.00  0.00     0.008 A 
ATOM      8  C   UNL     1       8.177  -2.327   0.836  1.00  0.00     0.054 A 
ATOM      9  C   UNL     1       7.940  -1.571  -1.778  1.00  0.00     0.051 A 
ATOM     10  C   UNL     1       8.484  -3.246  -0.172  1.00  0.00     0.166 A 
ATOM     11  C   UNL     1       8.363  -2.864  -1.490  1.00  0.00     0.165 A 
ATOM     12  O   UNL     1       8.914  -4.556  -0.151  1.00  0.00    -0.454 OA
ATOM     13  O   UNL     1       8.727  -3.959  -2.259  1.00  0.00    -0.454 OA
ATOM     14  C   UNL     1       9.170  -5.023  -1.451  1.00  0.00     0.468 C 
ENDBRANCH   5   6
ENDBRANCH   1   5
TORSDOF 3
ENDMDL
MODEL 5
REMARK VINA RESULT:      -6.4      2.136      2.556
REMARK SMILES CC(=O)CCc1ccc2c(c1)OCO2
REMARK SMILES IDX 4 1 2 2 1 3 3 4 5 5 6 6 7 7 11 8 8 9 10 10 9 11 12 12 14 13
REMARK SMILES IDX 13 14
REMARK H PARENT
REMARK Flexibility Score: inf
ROOT
ATOM      1  C   UNL     1       5.801   1.050  -0.322  1.00  0.00     0.080 C 
ENDROOT
BRANCH   1   2
ATOM      2  C   UNL     1       5.763   1.241   1.155  1.00  0.00     0.130 C 
ATOM      3  C   UNL     1       4.976   0.341   2.039  1.00  0.00     0.087 C 
ATOM      4  O   UNL     1       6.382   2.150   1.685  1.00  0.00    -0.300 OA
ENDBRANCH   1   2
BRANCH   1   5
ATOM      5  C   UNL     1       7.218   0.826  -0.812  1.00  0.00     0.043 C 
BRANCH   5   6
ATOM      6  C   UNL     1       7.692  -0.536  -0.508  1.00  0.00    -0.044 A 
ATOM      7  C   UNL     1       7.944  -0.949   0.806  1.00  0.00     0.008 A 
ATOM      8  C   UNL     1       7.892  -1.434  -1.532  1.00  0.00     0.054 A 
ATOM      9  C   UNL     1       8.386  -2.239   1.031  1.00  0.00     0.051 A 
ATOM     10  C   UNL     1       8.339  -2.738  -1.299  1.00  0.00     0.166 A 
ATOM     11  C   UNL     1       8.588  -3.144  -0.007  1.00  0.00     0.165 A 
ATOM     12  O   UNL     1       8.611  -3.801  -2.134  1.00  0.00    -0.454 OA
ATOM     13  O   UNL     1       9.012  -4.462  -0.076  1.00  0.00    -0.454 OA
ATOM     14  C   UNL     1       8.955  -4.946  -1.396  1.00  0.00     0.468 C 
ENDBRANCH   5   6
ENDBRANCH   1   5
TORSDOF 3
ENDMDL
