@<TRIPOS>MOLECULE
/home/cewinharhar/GITHUB/reincatalyze/data/processed/docking_pred/2023-May-30-2130_sub9_nm5_bs15_s42_ex16_mel10_mts10000_k50_ec05_g099_lra3e-4_lrc3e-3/40acbf0de97fa4e5d7c484f453b530351da0d172_ligand_9.pdbqt
 14 15 0 0 0
SMALL
GASTEIGER

@<TRIPOS>ATOM
      1  C          5.4300   -0.0390    2.0120 C.3     1  UNL1        0.0800
      2  C          4.5720    1.1490    1.7480 C.2     1  UNL1        0.1300
      3  C          4.8940    2.1210    0.6690 C.3     1  UNL1        0.0870
      4  O          3.5720    1.3600    2.4150 O.2     1  UNL1       -0.3000
      5  C          6.8620    0.2100    1.5810 C.3     1  UNL1        0.0430
      6  C          7.2820   -0.7200    0.5180 C.2     1  UNL1       -0.0440
      7  C          7.1370   -0.3990   -0.8370 C.2     1  UNL1        0.0080
      8  C          7.8340   -1.9350    0.8530 C.2     1  UNL1        0.0540
      9  C          7.5500   -1.3110   -1.7910 C.2     1  UNL1        0.0510
     10  C          8.2510   -2.8540   -0.1150 C.2     1  UNL1        0.1660
     11  C          8.1070   -2.5390   -1.4480 C.2     1  UNL1        0.1650
     12  O          8.8190   -4.1080   -0.0380 O.2     1  UNL1       -0.4540
     13  O          8.5960   -3.6170   -2.1690 O.2     1  UNL1       -0.4540
     14  C          9.1410   -4.5950   -1.3160 C.3     1  UNL1        0.4680
@<TRIPOS>BOND
     1    13    11    1
     2    13    14    1
     3     9    11    2
     4     9     7    1
     5    11    10    1
     6    14    12    1
     7     7     6    2
     8    10    12    1
     9    10     8    2
    10     6     8    1
    11     6     5    1
    12     3     2    1
    13     5     1    1
    14     2     1    1
    15     2     4    2
