@<TRIPOS>MOLECULE
/home/cewinharhar/GITHUB/reincatalyze/data/processed/docking_pred/2023-May-30-2130_sub9_nm5_bs15_s42_ex16_mel10_mts10000_k50_ec05_g099_lra3e-4_lrc3e-3/40acbf0de97fa4e5d7c484f453b530351da0d172_ligand_9.pdbqt
 14 15 0 0 0
SMALL
GASTEIGER

@<TRIPOS>ATOM
      1  C          5.7520    1.1860   -0.3080 C.3     1  UNL1        0.0800
      2  C          5.2440    1.1670    1.0930 C.2     1  UNL1        0.1300
      3  C          5.3670   -0.0410    1.9510 C.3     1  UNL1        0.0870
      4  O          4.7090    2.1500    1.5780 O.2     1  UNL1       -0.3000
      5  C          7.2590    1.0310   -0.3490 C.3     1  UNL1        0.0430
      6  C          7.6600   -0.2620   -0.9320 C.2     1  UNL1       -0.0440
      7  C          7.7670   -0.4410   -2.3160 C.2     1  UNL1        0.0080
      8  C          7.9410   -1.3250   -0.1040 C.2     1  UNL1        0.0540
      9  C          8.1480   -1.6770   -2.8050 C.2     1  UNL1        0.0510
     10  C          8.3260   -2.5730   -0.6040 C.2     1  UNL1        0.1660
     11  C          8.4300   -2.7500   -1.9660 C.2     1  UNL1        0.1650
     12  O          8.6530   -3.7680    0.0010 O.2     1  UNL1       -0.4540
     13  O          8.8240   -4.0630   -2.1710 O.2     1  UNL1       -0.4540
     14  C          9.0650   -4.7180   -0.9480 C.3     1  UNL1        0.4680
@<TRIPOS>BOND
     1     9     7    1
     2     9    11    2
     3     7     6    2
     4    13    11    1
     5    13    14    1
     6    11    10    1
     7    14    12    1
     8     6     5    1
     9     6     8    1
    10    10     8    2
    11    10    12    1
    12     5     1    1
    13     1     2    1
    14     2     4    2
    15     2     3    1
