MODEL 1
REMARK VINA RESULT:      -7.6      0.000      0.000
REMARK SMILES CC(=O)CCc1ccc2c(c1)OCO2
REMARK SMILES IDX 4 1 2 2 1 3 3 4 5 5 6 6 7 7 11 8 8 9 10 10 9 11 12 12 14 13
REMARK SMILES IDX 13 14
REMARK H PARENT
REMARK Flexibility Score: inf
ROOT
ATOM      1  C   UNL     1       5.537   1.925   1.263  1.00  0.00     0.080 C 
ENDROOT
BRANCH   1   2
ATOM      2  C   UNL     1       5.109   0.705   2.003  1.00  0.00     0.130 C 
ATOM      3  C   UNL     1       6.019  -0.457   2.184  1.00  0.00     0.087 C 
ATOM      4  O   UNL     1       3.991   0.625   2.485  1.00  0.00    -0.300 OA
ENDBRANCH   1   2
BRANCH   1   5
ATOM      5  C   UNL     1       5.410   1.733  -0.235  1.00  0.00     0.043 C 
BRANCH   5   6
ATOM      6  C   UNL     1       6.575   1.027  -0.797  1.00  0.00    -0.044 A 
ATOM      7  C   UNL     1       7.884   1.454  -0.542  1.00  0.00     0.008 A 
ATOM      8  C   UNL     1       6.384  -0.082  -1.589  1.00  0.00     0.054 A 
ATOM      9  C   UNL     1       8.938   0.751  -1.095  1.00  0.00     0.051 A 
ATOM     10  C   UNL     1       7.454  -0.790  -2.146  1.00  0.00     0.166 A 
ATOM     11  C   UNL     1       8.742  -0.370  -1.897  1.00  0.00     0.165 A 
ATOM     12  O   UNL     1       7.524  -1.904  -2.954  1.00  0.00    -0.454 OA
ATOM     13  O   UNL     1       9.585  -1.244  -2.564  1.00  0.00    -0.454 OA
ATOM     14  C   UNL     1       8.859  -2.286  -3.172  1.00  0.00     0.468 C 
ENDBRANCH   5   6
ENDBRANCH   1   5
TORSDOF 3
ENDMDL
MODEL 2
REMARK VINA RESULT:      -7.4      1.951      2.431
REMARK SMILES CC(=O)CCc1ccc2c(c1)OCO2
REMARK SMILES IDX 4 1 2 2 1 3 3 4 5 5 6 6 7 7 11 8 8 9 10 10 9 11 12 12 14 13
REMARK SMILES IDX 13 14
REMARK H PARENT
REMARK Flexibility Score: inf
ROOT
ATOM      1  C   UNL     1       5.752   1.186  -0.308  1.00  0.00     0.080 C 
ENDROOT
BRANCH   1   2
ATOM      2  C   UNL     1       5.244   1.167   1.093  1.00  0.00     0.130 C 
ATOM      3  C   UNL     1       5.367  -0.041   1.951  1.00  0.00     0.087 C 
ATOM      4  O   UNL     1       4.709   2.150   1.578  1.00  0.00    -0.300 OA
ENDBRANCH   1   2
BRANCH   1   5
ATOM      5  C   UNL     1       7.259   1.031  -0.349  1.00  0.00     0.043 C 
BRANCH   5   6
ATOM      6  C   UNL     1       7.660  -0.262  -0.932  1.00  0.00    -0.044 A 
ATOM      7  C   UNL     1       7.767  -0.441  -2.316  1.00  0.00     0.008 A 
ATOM      8  C   UNL     1       7.941  -1.325  -0.104  1.00  0.00     0.054 A 
ATOM      9  C   UNL     1       8.148  -1.677  -2.805  1.00  0.00     0.051 A 
ATOM     10  C   UNL     1       8.326  -2.573  -0.604  1.00  0.00     0.166 A 
ATOM     11  C   UNL     1       8.430  -2.750  -1.966  1.00  0.00     0.165 A 
ATOM     12  O   UNL     1       8.653  -3.768   0.001  1.00  0.00    -0.454 OA
ATOM     13  O   UNL     1       8.824  -4.063  -2.171  1.00  0.00    -0.454 OA
ATOM     14  C   UNL     1       9.065  -4.718  -0.948  1.00  0.00     0.468 C 
ENDBRANCH   5   6
ENDBRANCH   1   5
TORSDOF 3
ENDMDL
MODEL 3
REMARK VINA RESULT:      -7.2      2.048      2.620
REMARK SMILES CC(=O)CCc1ccc2c(c1)OCO2
REMARK SMILES IDX 4 1 2 2 1 3 3 4 5 5 6 6 7 7 11 8 8 9 10 10 9 11 12 12 14 13
REMARK SMILES IDX 13 14
REMARK H PARENT
REMARK Flexibility Score: inf
ROOT
ATOM      1  C   UNL     1       5.430  -0.039   2.012  1.00  0.00     0.080 C 
ENDROOT
BRANCH   1   2
ATOM      2  C   UNL     1       4.572   1.149   1.748  1.00  0.00     0.130 C 
ATOM      3  C   UNL     1       4.894   2.121   0.669  1.00  0.00     0.087 C 
ATOM      4  O   UNL     1       3.572   1.360   2.415  1.00  0.00    -0.300 OA
ENDBRANCH   1   2
BRANCH   1   5
ATOM      5  C   UNL     1       6.862   0.210   1.581  1.00  0.00     0.043 C 
BRANCH   5   6
ATOM      6  C   UNL     1       7.282  -0.720   0.518  1.00  0.00    -0.044 A 
ATOM      7  C   UNL     1       7.137  -0.399  -0.837  1.00  0.00     0.008 A 
ATOM      8  C   UNL     1       7.834  -1.935   0.853  1.00  0.00     0.054 A 
ATOM      9  C   UNL     1       7.550  -1.311  -1.791  1.00  0.00     0.051 A 
ATOM     10  C   UNL     1       8.251  -2.854  -0.115  1.00  0.00     0.166 A 
ATOM     11  C   UNL     1       8.107  -2.539  -1.448  1.00  0.00     0.165 A 
ATOM     12  O   UNL     1       8.819  -4.108  -0.038  1.00  0.00    -0.454 OA
ATOM     13  O   UNL     1       8.596  -3.617  -2.169  1.00  0.00    -0.454 OA
ATOM     14  C   UNL     1       9.141  -4.595  -1.316  1.00  0.00     0.468 C 
ENDBRANCH   5   6
ENDBRANCH   1   5
TORSDOF 3
ENDMDL
MODEL 4
REMARK VINA RESULT:      -7.1      1.247      1.459
REMARK SMILES CC(=O)CCc1ccc2c(c1)OCO2
REMARK SMILES IDX 4 1 2 2 1 3 3 4 5 5 6 6 7 7 11 8 8 9 10 10 9 11 12 12 14 13
REMARK SMILES IDX 13 14
REMARK H PARENT
REMARK Flexibility Score: inf
ROOT
ATOM      1  C   UNL     1       6.380   1.212   0.896  1.00  0.00     0.080 C 
ENDROOT
BRANCH   1   2
ATOM      2  C   UNL     1       5.671   0.392   1.917  1.00  0.00     0.130 C 
ATOM      3  C   UNL     1       6.287  -0.828   2.504  1.00  0.00     0.087 C 
ATOM      4  O   UNL     1       4.555   0.700   2.304  1.00  0.00    -0.300 OA
ENDBRANCH   1   2
BRANCH   1   5
ATOM      5  C   UNL     1       5.872   0.911  -0.501  1.00  0.00     0.043 C 
BRANCH   5   6
ATOM      6  C   UNL     1       6.828   0.092  -1.266  1.00  0.00    -0.044 A 
ATOM      7  C   UNL     1       7.536   0.616  -2.354  1.00  0.00     0.008 A 
ATOM      8  C   UNL     1       7.040  -1.220  -0.910  1.00  0.00     0.054 A 
ATOM      9  C   UNL     1       8.421  -0.200  -3.034  1.00  0.00     0.051 A 
ATOM     10  C   UNL     1       7.936  -2.041  -1.600  1.00  0.00     0.166 A 
ATOM     11  C   UNL     1       8.633  -1.527  -2.671  1.00  0.00     0.165 A 
ATOM     12  O   UNL     1       8.317  -3.357  -1.445  1.00  0.00    -0.454 OA
ATOM     13  O   UNL     1       9.435  -2.548  -3.156  1.00  0.00    -0.454 OA
ATOM     14  C   UNL     1       9.333  -3.699  -2.351  1.00  0.00     0.468 C 
ENDBRANCH   5   6
ENDBRANCH   1   5
TORSDOF 3
ENDMDL
MODEL 5
REMARK VINA RESULT:      -6.8      1.184      5.167
REMARK SMILES CC(=O)CCc1ccc2c(c1)OCO2
REMARK SMILES IDX 4 1 2 2 1 3 3 4 5 5 6 6 7 7 11 8 8 9 10 10 9 11 12 12 14 13
REMARK SMILES IDX 13 14
REMARK H PARENT
REMARK Flexibility Score: inf
ROOT
ATOM      1  C   UNL     1       8.339   0.192  -2.657  1.00  0.00     0.080 C 
ENDROOT
BRANCH   1   2
ATOM      2  C   UNL     1       8.052  -1.266  -2.758  1.00  0.00     0.130 C 
ATOM      3  C   UNL     1       9.127  -2.257  -3.028  1.00  0.00     0.087 C 
ATOM      4  O   UNL     1       6.916  -1.691  -2.623  1.00  0.00    -0.300 OA
ENDBRANCH   1   2
BRANCH   1   5
ATOM      5  C   UNL     1       8.867   0.555  -1.283  1.00  0.00     0.043 C 
BRANCH   5   6
ATOM      6  C   UNL     1       7.830   0.413  -0.244  1.00  0.00    -0.044 A 
ATOM      7  C   UNL     1       7.934  -0.547   0.769  1.00  0.00     0.008 A 
ATOM      8  C   UNL     1       6.731   1.241  -0.260  1.00  0.00     0.054 A 
ATOM      9  C   UNL     1       6.931  -0.633   1.717  1.00  0.00     0.051 A 
ATOM     10  C   UNL     1       5.720   1.150   0.701  1.00  0.00     0.166 A 
ATOM     11  C   UNL     1       5.820   0.205   1.697  1.00  0.00     0.165 A 
ATOM     12  O   UNL     1       4.546   1.846   0.898  1.00  0.00    -0.454 OA
ATOM     13  O   UNL     1       4.695   0.342   2.495  1.00  0.00    -0.454 OA
ATOM     14  C   UNL     1       3.905   1.430   2.077  1.00  0.00     0.468 C 
ENDBRANCH   5   6
ENDBRANCH   1   5
TORSDOF 3
ENDMDL
