@<TRIPOS>MOLECULE
/home/cewinharhar/GITHUB/reincatalyze/data/processed/docking_pred/2023-May-30-2130_sub9_nm5_bs15_s42_ex16_mel10_mts10000_k50_ec05_g099_lra3e-4_lrc3e-3/40acbf0de97fa4e5d7c484f453b530351da0d172_ligand_9.pdbqt
 14 15 0 0 0
SMALL
GASTEIGER

@<TRIPOS>ATOM
      1  C          8.3390    0.1920   -2.6570 C.3     1  UNL1        0.0800
      2  C          8.0520   -1.2660   -2.7580 C.2     1  UNL1        0.1300
      3  C          9.1270   -2.2570   -3.0280 C.3     1  UNL1        0.0870
      4  O          6.9160   -1.6910   -2.6230 O.2     1  UNL1       -0.3000
      5  C          8.8670    0.5550   -1.2830 C.3     1  UNL1        0.0430
      6  C          7.8300    0.4130   -0.2440 C.2     1  UNL1       -0.0440
      7  C          7.9340   -0.5470    0.7690 C.2     1  UNL1        0.0080
      8  C          6.7310    1.2410   -0.2600 C.2     1  UNL1        0.0540
      9  C          6.9310   -0.6330    1.7170 C.2     1  UNL1        0.0510
     10  C          5.7200    1.1500    0.7010 C.2     1  UNL1        0.1660
     11  C          5.8200    0.2050    1.6970 C.2     1  UNL1        0.1650
     12  O          4.5460    1.8460    0.8980 O.2     1  UNL1       -0.4540
     13  O          4.6950    0.3420    2.4950 O.2     1  UNL1       -0.4540
     14  C          3.9050    1.4300    2.0770 C.3     1  UNL1        0.4680
@<TRIPOS>BOND
     1     3     2    1
     2     2     1    1
     3     2     4    2
     4     1     5    1
     5     5     6    1
     6     8     6    2
     7     8    10    1
     8     6     7    1
     9    10    12    1
    10    10    11    2
    11     7     9    2
    12    12    14    1
    13    11     9    1
    14    11    13    1
    15    14    13    1
