@<TRIPOS>MOLECULE
/home/cewinharhar/GITHUB/reincatalyze/data/processed/docking_pred/2023-May-30-2130_sub9_nm5_bs15_s42_ex16_mel10_mts10000_k50_ec05_g099_lra3e-4_lrc3e-3/40acbf0de97fa4e5d7c484f453b530351da0d172_ligand_9.pdbqt
 14 15 0 0 0
SMALL
GASTEIGER

@<TRIPOS>ATOM
      1  C          5.5370    1.9250    1.2630 C.3     1  UNL1        0.0800
      2  C          5.1090    0.7050    2.0030 C.2     1  UNL1        0.1300
      3  C          6.0190   -0.4570    2.1840 C.3     1  UNL1        0.0870
      4  O          3.9910    0.6250    2.4850 O.2     1  UNL1       -0.3000
      5  C          5.4100    1.7330   -0.2350 C.3     1  UNL1        0.0430
      6  C          6.5750    1.0270   -0.7970 C.2     1  UNL1       -0.0440
      7  C          7.8840    1.4540   -0.5420 C.2     1  UNL1        0.0080
      8  C          6.3840   -0.0820   -1.5890 C.2     1  UNL1        0.0540
      9  C          8.9380    0.7510   -1.0950 C.2     1  UNL1        0.0510
     10  C          7.4540   -0.7900   -2.1460 C.2     1  UNL1        0.1660
     11  C          8.7420   -0.3700   -1.8970 C.2     1  UNL1        0.1650
     12  O          7.5240   -1.9040   -2.9540 O.2     1  UNL1       -0.4540
     13  O          9.5850   -1.2440   -2.5640 O.2     1  UNL1       -0.4540
     14  C          8.8590   -2.2860   -3.1720 C.3     1  UNL1        0.4680
@<TRIPOS>BOND
     1    14    12    1
     2    14    13    1
     3    12    10    1
     4    13    11    1
     5    10    11    2
     6    10     8    1
     7    11     9    1
     8     8     6    2
     9     9     7    2
    10     6     7    1
    11     6     5    1
    12     5     1    1
    13     1     2    1
    14     2     3    1
    15     2     4    2
