@<TRIPOS>MOLECULE
/home/cewinharhar/GITHUB/reincatalyze/data/processed/docking_pred/2023-May-30-2130_sub9_nm5_bs15_s42_ex16_mel10_mts10000_k50_ec05_g099_lra3e-4_lrc3e-3/42234a6127519c7502e2f6bf4b16ee47cf11c698_ligand_9.pdbqt
 14 15 0 0 0
SMALL
GASTEIGER

@<TRIPOS>ATOM
      1  C          5.6110    0.0580    1.9780 C.3     1  UNL1        0.0800
      2  C          4.6910    1.1780    1.6370 C.2     1  UNL1        0.1300
      3  C          4.9860    2.1200    0.5250 C.3     1  UNL1        0.0870
      4  O          3.6600    1.3560    2.2660 O.2     1  UNL1       -0.3000
      5  C          7.0120    0.3190    1.4590 C.3     1  UNL1        0.0430
      6  C          7.4000   -0.6530    0.4210 C.2     1  UNL1       -0.0440
      7  C          7.2880   -0.3540   -0.9410 C.2     1  UNL1        0.0080
      8  C          7.8890   -1.8860    0.7900 C.2     1  UNL1        0.0540
      9  C          7.6680   -1.3050   -1.8700 C.2     1  UNL1        0.0510
     10  C          8.2730   -2.8430   -0.1530 C.2     1  UNL1        0.1660
     11  C          8.1620   -2.5510   -1.4950 C.2     1  UNL1        0.1650
     12  O          8.7800   -4.1210   -0.0430 O.2     1  UNL1       -0.4540
     13  O          8.6080   -3.6660   -2.1870 O.2     1  UNL1       -0.4540
     14  C          9.0940   -4.6500   -1.3050 C.3     1  UNL1        0.4680
@<TRIPOS>BOND
     1    13    11    1
     2    13    14    1
     3     9    11    2
     4     9     7    1
     5    11    10    1
     6    14    12    1
     7     7     6    2
     8    10    12    1
     9    10     8    2
    10     6     8    1
    11     6     5    1
    12     3     2    1
    13     5     1    1
    14     2     1    1
    15     2     4    2
