@<TRIPOS>MOLECULE
/home/cewinharhar/GITHUB/reincatalyze/data/processed/docking_pred/2023-May-30-2130_sub9_nm5_bs15_s42_ex16_mel10_mts10000_k50_ec05_g099_lra3e-4_lrc3e-3/42234a6127519c7502e2f6bf4b16ee47cf11c698_ligand_9.pdbqt
 14 15 0 0 0
SMALL
GASTEIGER

@<TRIPOS>ATOM
      1  C          5.7140    1.3110   -0.2870 C.3     1  UNL1        0.0800
      2  C          5.1260    1.2680    1.0810 C.2     1  UNL1        0.1300
      3  C          5.4260    0.1580    2.0250 C.3     1  UNL1        0.0870
      4  O          4.3760    2.1490    1.4690 O.2     1  UNL1       -0.3000
      5  C          7.2140    1.0960   -0.2490 C.3     1  UNL1        0.0430
      6  C          7.5970   -0.1890   -0.8590 C.2     1  UNL1       -0.0440
      7  C          7.6900   -0.3430   -2.2470 C.2     1  UNL1        0.0080
      8  C          7.8750   -1.2700   -0.0540 C.2     1  UNL1        0.0540
      9  C          8.0550   -1.5730   -2.7620 C.2     1  UNL1        0.0510
     10  C          8.2450   -2.5120   -0.5800 C.2     1  UNL1        0.1660
     11  C          8.3350   -2.6650   -1.9450 C.2     1  UNL1        0.1650
     12  O          8.5660   -3.7200    0.0010 O.2     1  UNL1       -0.4540
     13  O          8.7150   -3.9770   -2.1780 O.2     1  UNL1       -0.4540
     14  C          8.9610   -4.6570   -0.9690 C.3     1  UNL1        0.4680
@<TRIPOS>BOND
     1     9     7    1
     2     9    11    2
     3     7     6    2
     4    13    11    1
     5    13    14    1
     6    11    10    1
     7    14    12    1
     8     6     5    1
     9     6     8    1
    10    10     8    2
    11    10    12    1
    12     1     5    1
    13     1     2    1
    14     2     4    2
    15     2     3    1
