@<TRIPOS>MOLECULE
/home/cewinharhar/GITHUB/reincatalyze/data/processed/docking_pred/2023-May-30-2130_sub9_nm5_bs15_s42_ex16_mel10_mts10000_k50_ec05_g099_lra3e-4_lrc3e-3/42234a6127519c7502e2f6bf4b16ee47cf11c698_ligand_9.pdbqt
 14 15 0 0 0
SMALL
GASTEIGER

@<TRIPOS>ATOM
      1  C          7.0730    0.9850    1.0520 C.3     1  UNL1        0.0800
      2  C          5.6240    1.1710    1.3470 C.2     1  UNL1        0.1300
      3  C          4.7940    2.1500    0.5950 C.3     1  UNL1        0.0870
      4  O          5.0740    0.5200    2.2210 O.2     1  UNL1       -0.3000
      5  C          7.3480    1.0790   -0.4350 C.3     1  UNL1        0.0430
      6  C          7.7460   -0.2220   -1.0010 C.2     1  UNL1       -0.0440
      7  C          7.9300   -0.3980   -2.3770 C.2     1  UNL1        0.0080
      8  C          7.9460   -1.2970   -0.1650 C.2     1  UNL1        0.0540
      9  C          8.3050   -1.6420   -2.8510 C.2     1  UNL1        0.0510
     10  C          8.3250   -2.5530   -0.6480 C.2     1  UNL1        0.1660
     11  C          8.5060   -2.7270   -2.0030 C.2     1  UNL1        0.1650
     12  O          8.5810   -3.7590   -0.0320 O.2     1  UNL1       -0.4540
     13  O          8.8730   -4.0500   -2.1910 O.2     1  UNL1       -0.4540
     14  C          9.0210   -4.7170   -0.9600 C.3     1  UNL1        0.4680
@<TRIPOS>BOND
     1     9     7    1
     2     9    11    2
     3     7     6    2
     4    13    11    1
     5    13    14    1
     6    11    10    1
     7     6     5    1
     8     6     8    1
     9    14    12    1
    10    10     8    2
    11    10    12    1
    12     5     1    1
    13     3     2    1
    14     1     2    1
    15     2     4    2
