@<TRIPOS>MOLECULE
/home/cewinharhar/GITHUB/reincatalyze/data/processed/docking_pred/2023-May-30-2130_sub9_nm5_bs15_s42_ex16_mel10_mts10000_k50_ec05_g099_lra3e-4_lrc3e-3/42234a6127519c7502e2f6bf4b16ee47cf11c698_ligand_9.pdbqt
 14 15 0 0 0
SMALL
GASTEIGER

@<TRIPOS>ATOM
      1  C          5.5470    1.9220    1.2810 C.3     1  UNL1        0.0800
      2  C          5.1100    0.7030    2.0190 C.2     1  UNL1        0.1300
      3  C          6.0120   -0.4660    2.1990 C.3     1  UNL1        0.0870
      4  O          3.9900    0.6290    2.4990 O.2     1  UNL1       -0.3000
      5  C          5.4140    1.7360   -0.2170 C.3     1  UNL1        0.0430
      6  C          6.5770    1.0320   -0.7860 C.2     1  UNL1       -0.0440
      7  C          7.8860    1.4630   -0.5400 C.2     1  UNL1        0.0080
      8  C          6.3840   -0.0770   -1.5770 C.2     1  UNL1        0.0540
      9  C          8.9390    0.7630   -1.1000 C.2     1  UNL1        0.0510
     10  C          7.4520   -0.7820   -2.1410 C.2     1  UNL1        0.1660
     11  C          8.7400   -0.3580   -1.9000 C.2     1  UNL1        0.1650
     12  O          7.5200   -1.8960   -2.9500 O.2     1  UNL1       -0.4540
     13  O          9.5810   -1.2310   -2.5730 O.2     1  UNL1       -0.4540
     14  C          8.8540   -2.2740   -3.1770 C.3     1  UNL1        0.4680
@<TRIPOS>BOND
     1    14    12    1
     2    14    13    1
     3    12    10    1
     4    13    11    1
     5    10    11    2
     6    10     8    1
     7    11     9    1
     8     8     6    2
     9     9     7    2
    10     6     7    1
    11     6     5    1
    12     5     1    1
    13     1     2    1
    14     2     3    1
    15     2     4    2
