@<TRIPOS>MOLECULE
/home/cewinharhar/GITHUB/reincatalyze/data/processed/docking_pred/2023-May-30-2130_sub9_nm5_bs15_s42_ex16_mel10_mts10000_k50_ec05_g099_lra3e-4_lrc3e-3/42234a6127519c7502e2f6bf4b16ee47cf11c698_ligand_9.pdbqt
 14 15 0 0 0
SMALL
GASTEIGER

@<TRIPOS>ATOM
      1  C          6.3340    1.2700    0.8740 C.3     1  UNL1        0.0800
      2  C          5.6610    0.4380    1.9100 C.2     1  UNL1        0.1300
      3  C          6.3130   -0.7670    2.4880 C.3     1  UNL1        0.0870
      4  O          4.5460    0.7240    2.3170 O.2     1  UNL1       -0.3000
      5  C          5.8190    0.9440   -0.5140 C.3     1  UNL1        0.0430
      6  C          6.7830    0.1310   -1.2770 C.2     1  UNL1       -0.0440
      7  C          7.4900    0.6600   -2.3630 C.2     1  UNL1        0.0080
      8  C          7.0020   -1.1800   -0.9210 C.2     1  UNL1        0.0540
      9  C          8.3830   -0.1500   -3.0410 C.2     1  UNL1        0.0510
     10  C          7.9060   -1.9950   -1.6100 C.2     1  UNL1        0.1660
     11  C          8.6010   -1.4760   -2.6790 C.2     1  UNL1        0.1650
     12  O          8.2940   -3.3090   -1.4540 O.2     1  UNL1       -0.4540
     13  O          9.4120   -2.4920   -3.1620 O.2     1  UNL1       -0.4540
     14  C          9.3150   -3.6440   -2.3580 C.3     1  UNL1        0.4680
@<TRIPOS>BOND
     1    13    11    1
     2    13    14    1
     3     9    11    2
     4     9     7    1
     5    11    10    1
     6     7     6    2
     7    14    12    1
     8    10    12    1
     9    10     8    2
    10     6     8    1
    11     6     5    1
    12     5     1    1
    13     1     2    1
    14     2     4    2
    15     2     3    1
