MODEL 1
REMARK VINA RESULT:      -7.6      0.000      0.000
REMARK SMILES CC(=O)CCc1ccc2c(c1)OCO2
REMARK SMILES IDX 4 1 2 2 1 3 3 4 5 5 6 6 7 7 11 8 8 9 10 10 9 11 12 12 14 13
REMARK SMILES IDX 13 14
REMARK H PARENT
REMARK Flexibility Score: inf
ROOT
ATOM      1  C   UNL     1       5.547   1.922   1.281  1.00  0.00     0.080 C 
ENDROOT
BRANCH   1   2
ATOM      2  C   UNL     1       5.110   0.703   2.019  1.00  0.00     0.130 C 
ATOM      3  C   UNL     1       6.012  -0.466   2.199  1.00  0.00     0.087 C 
ATOM      4  O   UNL     1       3.990   0.629   2.499  1.00  0.00    -0.300 OA
ENDBRANCH   1   2
BRANCH   1   5
ATOM      5  C   UNL     1       5.414   1.736  -0.217  1.00  0.00     0.043 C 
BRANCH   5   6
ATOM      6  C   UNL     1       6.577   1.032  -0.786  1.00  0.00    -0.044 A 
ATOM      7  C   UNL     1       7.886   1.463  -0.540  1.00  0.00     0.008 A 
ATOM      8  C   UNL     1       6.384  -0.077  -1.577  1.00  0.00     0.054 A 
ATOM      9  C   UNL     1       8.939   0.763  -1.100  1.00  0.00     0.051 A 
ATOM     10  C   UNL     1       7.452  -0.782  -2.141  1.00  0.00     0.166 A 
ATOM     11  C   UNL     1       8.740  -0.358  -1.900  1.00  0.00     0.165 A 
ATOM     12  O   UNL     1       7.520  -1.896  -2.950  1.00  0.00    -0.454 OA
ATOM     13  O   UNL     1       9.581  -1.231  -2.573  1.00  0.00    -0.454 OA
ATOM     14  C   UNL     1       8.854  -2.274  -3.177  1.00  0.00     0.468 C 
ENDBRANCH   5   6
ENDBRANCH   1   5
TORSDOF 3
ENDMDL
MODEL 2
REMARK VINA RESULT:      -7.5      1.925      2.381
REMARK SMILES CC(=O)CCc1ccc2c(c1)OCO2
REMARK SMILES IDX 4 1 2 2 1 3 3 4 5 5 6 6 7 7 11 8 8 9 10 10 9 11 12 12 14 13
REMARK SMILES IDX 13 14
REMARK H PARENT
REMARK Flexibility Score: inf
ROOT
ATOM      1  C   UNL     1       5.714   1.311  -0.287  1.00  0.00     0.080 C 
ENDROOT
BRANCH   1   2
ATOM      2  C   UNL     1       5.126   1.268   1.081  1.00  0.00     0.130 C 
ATOM      3  C   UNL     1       5.426   0.158   2.025  1.00  0.00     0.087 C 
ATOM      4  O   UNL     1       4.376   2.149   1.469  1.00  0.00    -0.300 OA
ENDBRANCH   1   2
BRANCH   1   5
ATOM      5  C   UNL     1       7.214   1.096  -0.249  1.00  0.00     0.043 C 
BRANCH   5   6
ATOM      6  C   UNL     1       7.597  -0.189  -0.859  1.00  0.00    -0.044 A 
ATOM      7  C   UNL     1       7.690  -0.343  -2.247  1.00  0.00     0.008 A 
ATOM      8  C   UNL     1       7.875  -1.270  -0.054  1.00  0.00     0.054 A 
ATOM      9  C   UNL     1       8.055  -1.573  -2.762  1.00  0.00     0.051 A 
ATOM     10  C   UNL     1       8.245  -2.512  -0.580  1.00  0.00     0.166 A 
ATOM     11  C   UNL     1       8.335  -2.665  -1.945  1.00  0.00     0.165 A 
ATOM     12  O   UNL     1       8.566  -3.720   0.001  1.00  0.00    -0.454 OA
ATOM     13  O   UNL     1       8.715  -3.977  -2.178  1.00  0.00    -0.454 OA
ATOM     14  C   UNL     1       8.961  -4.657  -0.969  1.00  0.00     0.468 C 
ENDBRANCH   5   6
ENDBRANCH   1   5
TORSDOF 3
ENDMDL
MODEL 3
REMARK VINA RESULT:      -7.2      2.075      2.604
REMARK SMILES CC(=O)CCc1ccc2c(c1)OCO2
REMARK SMILES IDX 4 1 2 2 1 3 3 4 5 5 6 6 7 7 11 8 8 9 10 10 9 11 12 12 14 13
REMARK SMILES IDX 13 14
REMARK H PARENT
REMARK Flexibility Score: inf
ROOT
ATOM      1  C   UNL     1       5.611   0.058   1.978  1.00  0.00     0.080 C 
ENDROOT
BRANCH   1   2
ATOM      2  C   UNL     1       4.691   1.178   1.637  1.00  0.00     0.130 C 
ATOM      3  C   UNL     1       4.986   2.120   0.525  1.00  0.00     0.087 C 
ATOM      4  O   UNL     1       3.660   1.356   2.266  1.00  0.00    -0.300 OA
ENDBRANCH   1   2
BRANCH   1   5
ATOM      5  C   UNL     1       7.012   0.319   1.459  1.00  0.00     0.043 C 
BRANCH   5   6
ATOM      6  C   UNL     1       7.400  -0.653   0.421  1.00  0.00    -0.044 A 
ATOM      7  C   UNL     1       7.288  -0.354  -0.941  1.00  0.00     0.008 A 
ATOM      8  C   UNL     1       7.889  -1.886   0.790  1.00  0.00     0.054 A 
ATOM      9  C   UNL     1       7.668  -1.305  -1.870  1.00  0.00     0.051 A 
ATOM     10  C   UNL     1       8.273  -2.843  -0.153  1.00  0.00     0.166 A 
ATOM     11  C   UNL     1       8.162  -2.551  -1.495  1.00  0.00     0.165 A 
ATOM     12  O   UNL     1       8.780  -4.121  -0.043  1.00  0.00    -0.454 OA
ATOM     13  O   UNL     1       8.608  -3.666  -2.187  1.00  0.00    -0.454 OA
ATOM     14  C   UNL     1       9.094  -4.650  -1.305  1.00  0.00     0.468 C 
ENDBRANCH   5   6
ENDBRANCH   1   5
TORSDOF 3
ENDMDL
MODEL 4
REMARK VINA RESULT:      -7.1      1.239      1.430
REMARK SMILES CC(=O)CCc1ccc2c(c1)OCO2
REMARK SMILES IDX 4 1 2 2 1 3 3 4 5 5 6 6 7 7 11 8 8 9 10 10 9 11 12 12 14 13
REMARK SMILES IDX 13 14
REMARK H PARENT
REMARK Flexibility Score: inf
ROOT
ATOM      1  C   UNL     1       6.334   1.270   0.874  1.00  0.00     0.080 C 
ENDROOT
BRANCH   1   2
ATOM      2  C   UNL     1       5.661   0.438   1.910  1.00  0.00     0.130 C 
ATOM      3  C   UNL     1       6.313  -0.767   2.488  1.00  0.00     0.087 C 
ATOM      4  O   UNL     1       4.546   0.724   2.317  1.00  0.00    -0.300 OA
ENDBRANCH   1   2
BRANCH   1   5
ATOM      5  C   UNL     1       5.819   0.944  -0.514  1.00  0.00     0.043 C 
BRANCH   5   6
ATOM      6  C   UNL     1       6.783   0.131  -1.277  1.00  0.00    -0.044 A 
ATOM      7  C   UNL     1       7.490   0.660  -2.363  1.00  0.00     0.008 A 
ATOM      8  C   UNL     1       7.002  -1.180  -0.921  1.00  0.00     0.054 A 
ATOM      9  C   UNL     1       8.383  -0.150  -3.041  1.00  0.00     0.051 A 
ATOM     10  C   UNL     1       7.906  -1.995  -1.610  1.00  0.00     0.166 A 
ATOM     11  C   UNL     1       8.601  -1.476  -2.679  1.00  0.00     0.165 A 
ATOM     12  O   UNL     1       8.294  -3.309  -1.454  1.00  0.00    -0.454 OA
ATOM     13  O   UNL     1       9.412  -2.492  -3.162  1.00  0.00    -0.454 OA
ATOM     14  C   UNL     1       9.315  -3.644  -2.358  1.00  0.00     0.468 C 
ENDBRANCH   5   6
ENDBRANCH   1   5
TORSDOF 3
ENDMDL
MODEL 5
REMARK VINA RESULT:      -6.9      1.943      2.535
REMARK SMILES CC(=O)CCc1ccc2c(c1)OCO2
REMARK SMILES IDX 4 1 2 2 1 3 3 4 5 5 6 6 7 7 11 8 8 9 10 10 9 11 12 12 14 13
REMARK SMILES IDX 13 14
REMARK H PARENT
REMARK Flexibility Score: inf
ROOT
ATOM      1  C   UNL     1       7.073   0.985   1.052  1.00  0.00     0.080 C 
ENDROOT
BRANCH   1   2
ATOM      2  C   UNL     1       5.624   1.171   1.347  1.00  0.00     0.130 C 
ATOM      3  C   UNL     1       4.794   2.150   0.595  1.00  0.00     0.087 C 
ATOM      4  O   UNL     1       5.074   0.520   2.221  1.00  0.00    -0.300 OA
ENDBRANCH   1   2
BRANCH   1   5
ATOM      5  C   UNL     1       7.348   1.079  -0.435  1.00  0.00     0.043 C 
BRANCH   5   6
ATOM      6  C   UNL     1       7.746  -0.222  -1.001  1.00  0.00    -0.044 A 
ATOM      7  C   UNL     1       7.930  -0.398  -2.377  1.00  0.00     0.008 A 
ATOM      8  C   UNL     1       7.946  -1.297  -0.165  1.00  0.00     0.054 A 
ATOM      9  C   UNL     1       8.305  -1.642  -2.851  1.00  0.00     0.051 A 
ATOM     10  C   UNL     1       8.325  -2.553  -0.648  1.00  0.00     0.166 A 
ATOM     11  C   UNL     1       8.506  -2.727  -2.003  1.00  0.00     0.165 A 
ATOM     12  O   UNL     1       8.581  -3.759  -0.032  1.00  0.00    -0.454 OA
ATOM     13  O   UNL     1       8.873  -4.050  -2.191  1.00  0.00    -0.454 OA
ATOM     14  C   UNL     1       9.021  -4.717  -0.960  1.00  0.00     0.468 C 
ENDBRANCH   5   6
ENDBRANCH   1   5
TORSDOF 3
ENDMDL
