@<TRIPOS>MOLECULE
/home/cewinharhar/GITHUB/reincatalyze/data/processed/docking_pred/2023-May-30-2130_sub9_nm5_bs15_s42_ex16_mel10_mts10000_k50_ec05_g099_lra3e-4_lrc3e-3/4295960a5818388fac6ce93a10a8a6662c8ec52f_ligand_9.pdbqt
 14 15 0 0 0
SMALL
GASTEIGER

@<TRIPOS>ATOM
      1  C          8.6300    0.2810   -2.5440 C.3     1  UNL1        0.0800
      2  C          8.4880   -1.1900   -2.7270 C.2     1  UNL1        0.1300
      3  C          7.1540   -1.8480   -2.7560 C.3     1  UNL1        0.0870
      4  O          9.4690   -1.9030   -2.8590 O.2     1  UNL1       -0.3000
      5  C          9.0790    0.6200   -1.1360 C.3     1  UNL1        0.0430
      6  C          7.9920    0.4400   -0.1570 C.2     1  UNL1       -0.0440
      7  C          8.0340   -0.5730    0.8070 C.2     1  UNL1        0.0080
      8  C          6.9060    1.2850   -0.1820 C.2     1  UNL1        0.0540
      9  C          6.9850   -0.6930    1.7000 C.2     1  UNL1        0.0510
     10  C          5.8480    1.1600    0.7240 C.2     1  UNL1        0.1660
     11  C          5.8880    0.1620    1.6720 C.2     1  UNL1        0.1650
     12  O          4.6750    1.8620    0.9020 O.2     1  UNL1       -0.4540
     13  O          4.7270    0.2750    2.4220 O.2     1  UNL1       -0.4540
     14  C          3.9730    1.3950    2.0250 C.3     1  UNL1        0.4680
@<TRIPOS>BOND
     1     4     2    2
     2     3     2    1
     3     2     1    1
     4     1     5    1
     5     5     6    1
     6     8     6    2
     7     8    10    1
     8     6     7    1
     9    10    12    1
    10    10    11    2
    11     7     9    2
    12    12    14    1
    13    11     9    1
    14    11    13    1
    15    14    13    1
