@<TRIPOS>MOLECULE
/home/cewinharhar/GITHUB/reincatalyze/data/processed/docking_pred/2023-May-30-2130_sub9_nm5_bs15_s42_ex16_mel10_mts10000_k50_ec05_g099_lra3e-4_lrc3e-3/4295960a5818388fac6ce93a10a8a6662c8ec52f_ligand_9.pdbqt
 14 15 0 0 0
SMALL
GASTEIGER

@<TRIPOS>ATOM
      1  C          5.3990   -0.0630    2.0100 C.3     1  UNL1        0.0800
      2  C          4.5630    1.1460    1.7680 C.2     1  UNL1        0.1300
      3  C          4.9040    2.1310    0.7070 C.3     1  UNL1        0.0870
      4  O          3.5670    1.3640    2.4390 O.2     1  UNL1       -0.3000
      5  C          6.8420    0.1760    1.6100 C.3     1  UNL1        0.0430
      6  C          7.2730   -0.7440    0.5430 C.2     1  UNL1       -0.0440
      7  C          7.1410   -0.4110   -0.8100 C.2     1  UNL1        0.0080
      8  C          7.8220   -1.9620    0.8730 C.2     1  UNL1        0.0540
      9  C          7.5650   -1.3140   -1.7680 C.2     1  UNL1        0.0510
     10  C          8.2490   -2.8720   -0.0990 C.2     1  UNL1        0.1660
     11  C          8.1190   -2.5450   -1.4300 C.2     1  UNL1        0.1650
     12  O          8.8170   -4.1260   -0.0270 O.2     1  UNL1       -0.4540
     13  O          8.6160   -3.6160   -2.1560 O.2     1  UNL1       -0.4540
     14  C          9.1520   -4.6010   -1.3060 C.3     1  UNL1        0.4680
@<TRIPOS>BOND
     1    13    11    1
     2    13    14    1
     3     9    11    2
     4     9     7    1
     5    11    10    1
     6    14    12    1
     7     7     6    2
     8    10    12    1
     9    10     8    2
    10     6     8    1
    11     6     5    1
    12     3     2    1
    13     5     1    1
    14     2     1    1
    15     2     4    2
