MODEL 1
REMARK VINA RESULT:      -7.7      0.000      0.000
REMARK SMILES CC(=O)CCc1ccc2c(c1)OCO2
REMARK SMILES IDX 4 1 2 2 1 3 3 4 5 5 6 6 7 7 11 8 8 9 10 10 9 11 12 12 14 13
REMARK SMILES IDX 13 14
REMARK H PARENT
REMARK Flexibility Score: inf
ROOT
ATOM      1  C   UNL     1       5.544   1.908   1.280  1.00  0.00     0.080 C 
ENDROOT
BRANCH   1   2
ATOM      2  C   UNL     1       5.098   0.690   2.012  1.00  0.00     0.130 C 
ATOM      3  C   UNL     1       5.989  -0.489   2.183  1.00  0.00     0.087 C 
ATOM      4  O   UNL     1       3.979   0.624   2.495  1.00  0.00    -0.300 OA
ENDBRANCH   1   2
BRANCH   1   5
ATOM      5  C   UNL     1       5.412   1.728  -0.220  1.00  0.00     0.043 C 
BRANCH   5   6
ATOM      6  C   UNL     1       6.577   1.027  -0.790  1.00  0.00    -0.044 A 
ATOM      7  C   UNL     1       7.885   1.464  -0.550  1.00  0.00     0.008 A 
ATOM      8  C   UNL     1       6.385  -0.085  -1.578  1.00  0.00     0.054 A 
ATOM      9  C   UNL     1       8.939   0.766  -1.112  1.00  0.00     0.051 A 
ATOM     10  C   UNL     1       7.454  -0.787  -2.143  1.00  0.00     0.166 A 
ATOM     11  C   UNL     1       8.741  -0.358  -1.908  1.00  0.00     0.165 A 
ATOM     12  O   UNL     1       7.523  -1.903  -2.949  1.00  0.00    -0.454 OA
ATOM     13  O   UNL     1       9.583  -1.229  -2.581  1.00  0.00    -0.454 OA
ATOM     14  C   UNL     1       8.858  -2.277  -3.180  1.00  0.00     0.468 C 
ENDBRANCH   5   6
ENDBRANCH   1   5
TORSDOF 3
ENDMDL
MODEL 2
REMARK VINA RESULT:      -7.4      1.963      2.451
REMARK SMILES CC(=O)CCc1ccc2c(c1)OCO2
REMARK SMILES IDX 4 1 2 2 1 3 3 4 5 5 6 6 7 7 11 8 8 9 10 10 9 11 12 12 14 13
REMARK SMILES IDX 13 14
REMARK H PARENT
REMARK Flexibility Score: inf
ROOT
ATOM      1  C   UNL     1       5.742   1.155  -0.281  1.00  0.00     0.080 C 
ENDROOT
BRANCH   1   2
ATOM      2  C   UNL     1       5.244   1.150   1.123  1.00  0.00     0.130 C 
ATOM      3  C   UNL     1       5.331  -0.065   1.977  1.00  0.00     0.087 C 
ATOM      4  O   UNL     1       4.748   2.150   1.616  1.00  0.00    -0.300 OA
ENDBRANCH   1   2
BRANCH   1   5
ATOM      5  C   UNL     1       7.248   0.997  -0.332  1.00  0.00     0.043 C 
BRANCH   5   6
ATOM      6  C   UNL     1       7.642  -0.296  -0.920  1.00  0.00    -0.044 A 
ATOM      7  C   UNL     1       7.735  -0.474  -2.305  1.00  0.00     0.008 A 
ATOM      8  C   UNL     1       7.930  -1.360  -0.096  1.00  0.00     0.054 A 
ATOM      9  C   UNL     1       8.110  -1.710  -2.799  1.00  0.00     0.051 A 
ATOM     10  C   UNL     1       8.310  -2.608  -0.600  1.00  0.00     0.166 A 
ATOM     11  C   UNL     1       8.400  -2.784  -1.963  1.00  0.00     0.165 A 
ATOM     12  O   UNL     1       8.642  -3.803   0.002  1.00  0.00    -0.454 OA
ATOM     13  O   UNL     1       8.791  -4.098  -2.172  1.00  0.00    -0.454 OA
ATOM     14  C   UNL     1       9.043  -4.753  -0.952  1.00  0.00     0.468 C 
ENDBRANCH   5   6
ENDBRANCH   1   5
TORSDOF 3
ENDMDL
MODEL 3
REMARK VINA RESULT:      -7.3      2.057      2.633
REMARK SMILES CC(=O)CCc1ccc2c(c1)OCO2
REMARK SMILES IDX 4 1 2 2 1 3 3 4 5 5 6 6 7 7 11 8 8 9 10 10 9 11 12 12 14 13
REMARK SMILES IDX 13 14
REMARK H PARENT
REMARK Flexibility Score: inf
ROOT
ATOM      1  C   UNL     1       5.399  -0.063   2.010  1.00  0.00     0.080 C 
ENDROOT
BRANCH   1   2
ATOM      2  C   UNL     1       4.563   1.146   1.768  1.00  0.00     0.130 C 
ATOM      3  C   UNL     1       4.904   2.131   0.707  1.00  0.00     0.087 C 
ATOM      4  O   UNL     1       3.567   1.364   2.439  1.00  0.00    -0.300 OA
ENDBRANCH   1   2
BRANCH   1   5
ATOM      5  C   UNL     1       6.842   0.176   1.610  1.00  0.00     0.043 C 
BRANCH   5   6
ATOM      6  C   UNL     1       7.273  -0.744   0.543  1.00  0.00    -0.044 A 
ATOM      7  C   UNL     1       7.141  -0.411  -0.810  1.00  0.00     0.008 A 
ATOM      8  C   UNL     1       7.822  -1.962   0.873  1.00  0.00     0.054 A 
ATOM      9  C   UNL     1       7.565  -1.314  -1.768  1.00  0.00     0.051 A 
ATOM     10  C   UNL     1       8.249  -2.872  -0.099  1.00  0.00     0.166 A 
ATOM     11  C   UNL     1       8.119  -2.545  -1.430  1.00  0.00     0.165 A 
ATOM     12  O   UNL     1       8.817  -4.126  -0.027  1.00  0.00    -0.454 OA
ATOM     13  O   UNL     1       8.616  -3.616  -2.156  1.00  0.00    -0.454 OA
ATOM     14  C   UNL     1       9.152  -4.601  -1.306  1.00  0.00     0.468 C 
ENDBRANCH   5   6
ENDBRANCH   1   5
TORSDOF 3
ENDMDL
MODEL 4
REMARK VINA RESULT:      -7.1      1.250      1.458
REMARK SMILES CC(=O)CCc1ccc2c(c1)OCO2
REMARK SMILES IDX 4 1 2 2 1 3 3 4 5 5 6 6 7 7 11 8 8 9 10 10 9 11 12 12 14 13
REMARK SMILES IDX 13 14
REMARK H PARENT
REMARK Flexibility Score: inf
ROOT
ATOM      1  C   UNL     1       6.395   1.213   0.934  1.00  0.00     0.080 C 
ENDROOT
BRANCH   1   2
ATOM      2  C   UNL     1       5.670   0.371   1.926  1.00  0.00     0.130 C 
ATOM      3  C   UNL     1       6.280  -0.857   2.501  1.00  0.00     0.087 C 
ATOM      4  O   UNL     1       4.546   0.668   2.298  1.00  0.00    -0.300 OA
ENDBRANCH   1   2
BRANCH   1   5
ATOM      5  C   UNL     1       5.893   0.960  -0.474  1.00  0.00     0.043 C 
BRANCH   5   6
ATOM      6  C   UNL     1       6.830   0.124  -1.245  1.00  0.00    -0.044 A 
ATOM      7  C   UNL     1       7.519   0.627  -2.354  1.00  0.00     0.008 A 
ATOM      8  C   UNL     1       7.041  -1.184  -0.874  1.00  0.00     0.054 A 
ATOM      9  C   UNL     1       8.387  -0.204  -3.040  1.00  0.00     0.051 A 
ATOM     10  C   UNL     1       7.920  -2.021  -1.569  1.00  0.00     0.166 A 
ATOM     11  C   UNL     1       8.597  -1.527  -2.661  1.00  0.00     0.165 A 
ATOM     12  O   UNL     1       8.295  -3.337  -1.401  1.00  0.00    -0.454 OA
ATOM     13  O   UNL     1       9.384  -2.560  -3.146  1.00  0.00    -0.454 OA
ATOM     14  C   UNL     1       9.292  -3.698  -2.323  1.00  0.00     0.468 C 
ENDBRANCH   5   6
ENDBRANCH   1   5
TORSDOF 3
ENDMDL
MODEL 5
REMARK VINA RESULT:      -6.8      1.257      5.261
REMARK SMILES CC(=O)CCc1ccc2c(c1)OCO2
REMARK SMILES IDX 4 1 2 2 1 3 3 4 5 5 6 6 7 7 11 8 8 9 10 10 9 11 12 12 14 13
REMARK SMILES IDX 13 14
REMARK H PARENT
REMARK Flexibility Score: inf
ROOT
ATOM      1  C   UNL     1       8.630   0.281  -2.544  1.00  0.00     0.080 C 
ENDROOT
BRANCH   1   2
ATOM      2  C   UNL     1       8.488  -1.190  -2.727  1.00  0.00     0.130 C 
ATOM      3  C   UNL     1       7.154  -1.848  -2.756  1.00  0.00     0.087 C 
ATOM      4  O   UNL     1       9.469  -1.903  -2.859  1.00  0.00    -0.300 OA
ENDBRANCH   1   2
BRANCH   1   5
ATOM      5  C   UNL     1       9.079   0.620  -1.136  1.00  0.00     0.043 C 
BRANCH   5   6
ATOM      6  C   UNL     1       7.992   0.440  -0.157  1.00  0.00    -0.044 A 
ATOM      7  C   UNL     1       8.034  -0.573   0.807  1.00  0.00     0.008 A 
ATOM      8  C   UNL     1       6.906   1.285  -0.182  1.00  0.00     0.054 A 
ATOM      9  C   UNL     1       6.985  -0.693   1.700  1.00  0.00     0.051 A 
ATOM     10  C   UNL     1       5.848   1.160   0.724  1.00  0.00     0.166 A 
ATOM     11  C   UNL     1       5.888   0.162   1.672  1.00  0.00     0.165 A 
ATOM     12  O   UNL     1       4.675   1.862   0.902  1.00  0.00    -0.454 OA
ATOM     13  O   UNL     1       4.727   0.275   2.422  1.00  0.00    -0.454 OA
ATOM     14  C   UNL     1       3.973   1.395   2.025  1.00  0.00     0.468 C 
ENDBRANCH   5   6
ENDBRANCH   1   5
TORSDOF 3
ENDMDL
