@<TRIPOS>MOLECULE
/home/cewinharhar/GITHUB/reincatalyze/data/processed/docking_pred/2023-May-30-2130_sub9_nm5_bs15_s42_ex16_mel10_mts10000_k50_ec05_g099_lra3e-4_lrc3e-3/440c71a9d87327452c2c76e2e73f057a38f6e63a_ligand_9.pdbqt
 14 15 0 0 0
SMALL
GASTEIGER

@<TRIPOS>ATOM
      1  C          5.4470   -0.0590    2.0050 C.3     1  UNL1        0.0800
      2  C          4.5980    1.1410    1.7620 C.2     1  UNL1        0.1300
      3  C          4.9260    2.1250    0.6960 C.3     1  UNL1        0.0870
      4  O          3.6030    1.3520    2.4360 O.2     1  UNL1       -0.3000
      5  C          6.8820    0.1870    1.5820 C.3     1  UNL1        0.0430
      6  C          7.3060   -0.7460    0.5230 C.2     1  UNL1       -0.0440
      7  C          7.1830   -0.4200   -0.8330 C.2     1  UNL1        0.0080
      8  C          7.8410   -1.9670    0.8630 C.2     1  UNL1        0.0540
      9  C          7.5990   -1.3350   -1.7830 C.2     1  UNL1        0.0510
     10  C          8.2620   -2.8880   -0.1020 C.2     1  UNL1        0.1660
     11  C          8.1390   -2.5690   -1.4360 C.2     1  UNL1        0.1650
     12  O          8.8160   -4.1480   -0.0200 O.2     1  UNL1       -0.4540
     13  O          8.6260   -3.6500   -2.1530 O.2     1  UNL1       -0.4540
     14  C          9.1500   -4.6360   -1.2940 C.3     1  UNL1        0.4680
@<TRIPOS>BOND
     1    13    11    1
     2    13    14    1
     3     9    11    2
     4     9     7    1
     5    11    10    1
     6    14    12    1
     7     7     6    2
     8    10    12    1
     9    10     8    2
    10     6     8    1
    11     6     5    1
    12     3     2    1
    13     5     1    1
    14     2     1    1
    15     2     4    2
