@<TRIPOS>MOLECULE
/home/cewinharhar/GITHUB/reincatalyze/data/processed/docking_pred/2023-May-30-2130_sub9_nm5_bs15_s42_ex16_mel10_mts10000_k50_ec05_g099_lra3e-4_lrc3e-3/440c71a9d87327452c2c76e2e73f057a38f6e63a_ligand_9.pdbqt
 14 15 0 0 0
SMALL
GASTEIGER

@<TRIPOS>ATOM
      1  C          5.5680    1.8710    1.2910 C.3     1  UNL1        0.0800
      2  C          5.1170    0.6520    2.0180 C.2     1  UNL1        0.1300
      3  C          6.0060   -0.5280    2.1930 C.3     1  UNL1        0.0870
      4  O          3.9950    0.5860    2.4950 O.2     1  UNL1       -0.3000
      5  C          5.4300    1.6990   -0.2090 C.3     1  UNL1        0.0430
      6  C          6.5900    0.9990   -0.7880 C.2     1  UNL1       -0.0440
      7  C          7.9000    1.4400   -0.5650 C.2     1  UNL1        0.0080
      8  C          6.3930   -0.1190   -1.5670 C.2     1  UNL1        0.0540
      9  C          8.9490    0.7420   -1.1330 C.2     1  UNL1        0.0510
     10  C          7.4580   -0.8220   -2.1390 C.2     1  UNL1        0.1660
     11  C          8.7460   -0.3870   -1.9210 C.2     1  UNL1        0.1650
     12  O          7.5220   -1.9420   -2.9400 O.2     1  UNL1       -0.4540
     13  O          9.5840   -1.2600   -2.5980 O.2     1  UNL1       -0.4540
     14  C          8.8550   -2.3130   -3.1820 C.3     1  UNL1        0.4680
@<TRIPOS>BOND
     1    14    12    1
     2    14    13    1
     3    12    10    1
     4    13    11    1
     5    10    11    2
     6    10     8    1
     7    11     9    1
     8     8     6    2
     9     9     7    2
    10     6     7    1
    11     6     5    1
    12     5     1    1
    13     1     2    1
    14     2     3    1
    15     2     4    2
