MODEL 1
REMARK VINA RESULT:      -7.6      0.000      0.000
REMARK SMILES CC(=O)CCc1ccc2c(c1)OCO2
REMARK SMILES IDX 4 1 2 2 1 3 3 4 5 5 6 6 7 7 11 8 8 9 10 10 9 11 12 12 14 13
REMARK SMILES IDX 13 14
REMARK H PARENT
REMARK Flexibility Score: inf
ROOT
ATOM      1  C   UNL     1       5.568   1.871   1.291  1.00  0.00     0.080 C 
ENDROOT
BRANCH   1   2
ATOM      2  C   UNL     1       5.117   0.652   2.018  1.00  0.00     0.130 C 
ATOM      3  C   UNL     1       6.006  -0.528   2.193  1.00  0.00     0.087 C 
ATOM      4  O   UNL     1       3.995   0.586   2.495  1.00  0.00    -0.300 OA
ENDBRANCH   1   2
BRANCH   1   5
ATOM      5  C   UNL     1       5.430   1.699  -0.209  1.00  0.00     0.043 C 
BRANCH   5   6
ATOM      6  C   UNL     1       6.590   0.999  -0.788  1.00  0.00    -0.044 A 
ATOM      7  C   UNL     1       7.900   1.440  -0.565  1.00  0.00     0.008 A 
ATOM      8  C   UNL     1       6.393  -0.119  -1.567  1.00  0.00     0.054 A 
ATOM      9  C   UNL     1       8.949   0.742  -1.133  1.00  0.00     0.051 A 
ATOM     10  C   UNL     1       7.458  -0.822  -2.139  1.00  0.00     0.166 A 
ATOM     11  C   UNL     1       8.746  -0.387  -1.921  1.00  0.00     0.165 A 
ATOM     12  O   UNL     1       7.522  -1.942  -2.940  1.00  0.00    -0.454 OA
ATOM     13  O   UNL     1       9.584  -1.260  -2.598  1.00  0.00    -0.454 OA
ATOM     14  C   UNL     1       8.855  -2.313  -3.182  1.00  0.00     0.468 C 
ENDBRANCH   5   6
ENDBRANCH   1   5
TORSDOF 3
ENDMDL
MODEL 2
REMARK VINA RESULT:      -7.4      1.938      2.421
REMARK SMILES CC(=O)CCc1ccc2c(c1)OCO2
REMARK SMILES IDX 4 1 2 2 1 3 3 4 5 5 6 6 7 7 11 8 8 9 10 10 9 11 12 12 14 13
REMARK SMILES IDX 13 14
REMARK H PARENT
REMARK Flexibility Score: inf
ROOT
ATOM      1  C   UNL     1       5.760   1.204  -0.317  1.00  0.00     0.080 C 
ENDROOT
BRANCH   1   2
ATOM      2  C   UNL     1       5.260   1.193   1.086  1.00  0.00     0.130 C 
ATOM      3  C   UNL     1       5.472   0.024   1.981  1.00  0.00     0.087 C 
ATOM      4  O   UNL     1       4.658   2.150   1.545  1.00  0.00    -0.300 OA
ENDBRANCH   1   2
BRANCH   1   5
ATOM      5  C   UNL     1       7.266   1.040  -0.367  1.00  0.00     0.043 C 
BRANCH   5   6
ATOM      6  C   UNL     1       7.655  -0.259  -0.942  1.00  0.00    -0.044 A 
ATOM      7  C   UNL     1       7.757  -0.448  -2.325  1.00  0.00     0.008 A 
ATOM      8  C   UNL     1       7.931  -1.319  -0.108  1.00  0.00     0.054 A 
ATOM      9  C   UNL     1       8.127  -1.690  -2.808  1.00  0.00     0.051 A 
ATOM     10  C   UNL     1       8.306  -2.573  -0.601  1.00  0.00     0.166 A 
ATOM     11  C   UNL     1       8.405  -2.760  -1.962  1.00  0.00     0.165 A 
ATOM     12  O   UNL     1       8.626  -3.766   0.011  1.00  0.00    -0.454 OA
ATOM     13  O   UNL     1       8.788  -4.077  -2.159  1.00  0.00    -0.454 OA
ATOM     14  C   UNL     1       9.028  -4.725  -0.932  1.00  0.00     0.468 C 
ENDBRANCH   5   6
ENDBRANCH   1   5
TORSDOF 3
ENDMDL
MODEL 3
REMARK VINA RESULT:      -7.3      2.059      2.623
REMARK SMILES CC(=O)CCc1ccc2c(c1)OCO2
REMARK SMILES IDX 4 1 2 2 1 3 3 4 5 5 6 6 7 7 11 8 8 9 10 10 9 11 12 12 14 13
REMARK SMILES IDX 13 14
REMARK H PARENT
REMARK Flexibility Score: inf
ROOT
ATOM      1  C   UNL     1       5.447  -0.059   2.005  1.00  0.00     0.080 C 
ENDROOT
BRANCH   1   2
ATOM      2  C   UNL     1       4.598   1.141   1.762  1.00  0.00     0.130 C 
ATOM      3  C   UNL     1       4.926   2.125   0.696  1.00  0.00     0.087 C 
ATOM      4  O   UNL     1       3.603   1.352   2.436  1.00  0.00    -0.300 OA
ENDBRANCH   1   2
BRANCH   1   5
ATOM      5  C   UNL     1       6.882   0.187   1.582  1.00  0.00     0.043 C 
BRANCH   5   6
ATOM      6  C   UNL     1       7.306  -0.746   0.523  1.00  0.00    -0.044 A 
ATOM      7  C   UNL     1       7.183  -0.420  -0.833  1.00  0.00     0.008 A 
ATOM      8  C   UNL     1       7.841  -1.967   0.863  1.00  0.00     0.054 A 
ATOM      9  C   UNL     1       7.599  -1.335  -1.783  1.00  0.00     0.051 A 
ATOM     10  C   UNL     1       8.262  -2.888  -0.102  1.00  0.00     0.166 A 
ATOM     11  C   UNL     1       8.139  -2.569  -1.436  1.00  0.00     0.165 A 
ATOM     12  O   UNL     1       8.816  -4.148  -0.020  1.00  0.00    -0.454 OA
ATOM     13  O   UNL     1       8.626  -3.650  -2.153  1.00  0.00    -0.454 OA
ATOM     14  C   UNL     1       9.150  -4.636  -1.294  1.00  0.00     0.468 C 
ENDBRANCH   5   6
ENDBRANCH   1   5
TORSDOF 3
ENDMDL
MODEL 4
REMARK VINA RESULT:      -7.1      2.000      2.549
REMARK SMILES CC(=O)CCc1ccc2c(c1)OCO2
REMARK SMILES IDX 4 1 2 2 1 3 3 4 5 5 6 6 7 7 11 8 8 9 10 10 9 11 12 12 14 13
REMARK SMILES IDX 13 14
REMARK H PARENT
REMARK Flexibility Score: inf
ROOT
ATOM      1  C   UNL     1       6.653   0.503   1.363  1.00  0.00     0.080 C 
ENDROOT
BRANCH   1   2
ATOM      2  C   UNL     1       5.279   1.058   1.512  1.00  0.00     0.130 C 
ATOM      3  C   UNL     1       4.777   2.148   0.632  1.00  0.00     0.087 C 
ATOM      4  O   UNL     1       4.520   0.631   2.367  1.00  0.00    -0.300 OA
ENDBRANCH   1   2
BRANCH   1   5
ATOM      5  C   UNL     1       7.216   0.790  -0.015  1.00  0.00     0.043 C 
BRANCH   5   6
ATOM      6  C   UNL     1       7.665  -0.442  -0.688  1.00  0.00    -0.044 A 
ATOM      7  C   UNL     1       7.856  -0.492  -2.074  1.00  0.00     0.008 A 
ATOM      8  C   UNL     1       7.909  -1.575   0.054  1.00  0.00     0.054 A 
ATOM      9  C   UNL     1       8.279  -1.676  -2.650  1.00  0.00     0.051 A 
ATOM     10  C   UNL     1       8.338  -2.769  -0.534  1.00  0.00     0.166 A 
ATOM     11  C   UNL     1       8.524  -2.820  -1.897  1.00  0.00     0.165 A 
ATOM     12  O   UNL     1       8.642  -4.013  -0.021  1.00  0.00    -0.454 OA
ATOM     13  O   UNL     1       8.944  -4.106  -2.197  1.00  0.00    -0.454 OA
ATOM     14  C   UNL     1       9.120  -4.869  -1.027  1.00  0.00     0.468 C 
ENDBRANCH   5   6
ENDBRANCH   1   5
TORSDOF 3
ENDMDL
MODEL 5
REMARK VINA RESULT:      -7.1      1.240      1.446
REMARK SMILES CC(=O)CCc1ccc2c(c1)OCO2
REMARK SMILES IDX 4 1 2 2 1 3 3 4 5 5 6 6 7 7 11 8 8 9 10 10 9 11 12 12 14 13
REMARK SMILES IDX 13 14
REMARK H PARENT
REMARK Flexibility Score: inf
ROOT
ATOM      1  C   UNL     1       6.405   1.201   0.919  1.00  0.00     0.080 C 
ENDROOT
BRANCH   1   2
ATOM      2  C   UNL     1       5.667   0.383   1.922  1.00  0.00     0.130 C 
ATOM      3  C   UNL     1       6.254  -0.854   2.504  1.00  0.00     0.087 C 
ATOM      4  O   UNL     1       4.552   0.706   2.296  1.00  0.00    -0.300 OA
ENDBRANCH   1   2
BRANCH   1   5
ATOM      5  C   UNL     1       5.900   0.936  -0.486  1.00  0.00     0.043 C 
BRANCH   5   6
ATOM      6  C   UNL     1       6.839   0.101  -1.255  1.00  0.00    -0.044 A 
ATOM      7  C   UNL     1       7.528   0.604  -2.365  1.00  0.00     0.008 A 
ATOM      8  C   UNL     1       7.054  -1.206  -0.881  1.00  0.00     0.054 A 
ATOM      9  C   UNL     1       8.398  -0.227  -3.048  1.00  0.00     0.051 A 
ATOM     10  C   UNL     1       7.934  -2.042  -1.574  1.00  0.00     0.166 A 
ATOM     11  C   UNL     1       8.612  -1.548  -2.667  1.00  0.00     0.165 A 
ATOM     12  O   UNL     1       8.313  -3.356  -1.404  1.00  0.00    -0.454 OA
ATOM     13  O   UNL     1       9.401  -2.580  -3.149  1.00  0.00    -0.454 OA
ATOM     14  C   UNL     1       9.311  -3.717  -2.324  1.00  0.00     0.468 C 
ENDBRANCH   5   6
ENDBRANCH   1   5
TORSDOF 3
ENDMDL
