@<TRIPOS>MOLECULE
/home/cewinharhar/GITHUB/reincatalyze/data/processed/docking_pred/2023-May-30-2130_sub9_nm5_bs15_s42_ex16_mel10_mts10000_k50_ec05_g099_lra3e-4_lrc3e-3/440c71a9d87327452c2c76e2e73f057a38f6e63a_ligand_9.pdbqt
 14 15 0 0 0
SMALL
GASTEIGER

@<TRIPOS>ATOM
      1  C          6.4050    1.2010    0.9190 C.3     1  UNL1        0.0800
      2  C          5.6670    0.3830    1.9220 C.2     1  UNL1        0.1300
      3  C          6.2540   -0.8540    2.5040 C.3     1  UNL1        0.0870
      4  O          4.5520    0.7060    2.2960 O.2     1  UNL1       -0.3000
      5  C          5.9000    0.9360   -0.4860 C.3     1  UNL1        0.0430
      6  C          6.8390    0.1010   -1.2550 C.2     1  UNL1       -0.0440
      7  C          7.5280    0.6040   -2.3650 C.2     1  UNL1        0.0080
      8  C          7.0540   -1.2060   -0.8810 C.2     1  UNL1        0.0540
      9  C          8.3980   -0.2270   -3.0480 C.2     1  UNL1        0.0510
     10  C          7.9340   -2.0420   -1.5740 C.2     1  UNL1        0.1660
     11  C          8.6120   -1.5480   -2.6670 C.2     1  UNL1        0.1650
     12  O          8.3130   -3.3560   -1.4040 O.2     1  UNL1       -0.4540
     13  O          9.4010   -2.5800   -3.1490 O.2     1  UNL1       -0.4540
     14  C          9.3110   -3.7170   -2.3240 C.3     1  UNL1        0.4680
@<TRIPOS>BOND
     1    13    11    1
     2    13    14    1
     3     9    11    2
     4     9     7    1
     5    11    10    1
     6     7     6    2
     7    14    12    1
     8    10    12    1
     9    10     8    2
    10     6     8    1
    11     6     5    1
    12     5     1    1
    13     1     2    1
    14     2     4    2
    15     2     3    1
