@<TRIPOS>MOLECULE
/home/cewinharhar/GITHUB/reincatalyze/data/processed/docking_pred/2023-May-30-2130_sub9_nm5_bs15_s42_ex16_mel10_mts10000_k50_ec05_g099_lra3e-4_lrc3e-3/440c71a9d87327452c2c76e2e73f057a38f6e63a_ligand_9.pdbqt
 14 15 0 0 0
SMALL
GASTEIGER

@<TRIPOS>ATOM
      1  C          6.6530    0.5030    1.3630 C.3     1  UNL1        0.0800
      2  C          5.2790    1.0580    1.5120 C.2     1  UNL1        0.1300
      3  C          4.7770    2.1480    0.6320 C.3     1  UNL1        0.0870
      4  O          4.5200    0.6310    2.3670 O.2     1  UNL1       -0.3000
      5  C          7.2160    0.7900   -0.0150 C.3     1  UNL1        0.0430
      6  C          7.6650   -0.4420   -0.6880 C.2     1  UNL1       -0.0440
      7  C          7.8560   -0.4920   -2.0740 C.2     1  UNL1        0.0080
      8  C          7.9090   -1.5750    0.0540 C.2     1  UNL1        0.0540
      9  C          8.2790   -1.6760   -2.6500 C.2     1  UNL1        0.0510
     10  C          8.3380   -2.7690   -0.5340 C.2     1  UNL1        0.1660
     11  C          8.5240   -2.8200   -1.8970 C.2     1  UNL1        0.1650
     12  O          8.6420   -4.0130   -0.0210 O.2     1  UNL1       -0.4540
     13  O          8.9440   -4.1060   -2.1970 O.2     1  UNL1       -0.4540
     14  C          9.1200   -4.8690   -1.0270 C.3     1  UNL1        0.4680
@<TRIPOS>BOND
     1     9     7    1
     2     9    11    2
     3    13    11    1
     4    13    14    1
     5     7     6    2
     6    11    10    1
     7    14    12    1
     8     6     5    1
     9     6     8    1
    10    10    12    1
    11    10     8    2
    12     5     1    1
    13     3     2    1
    14     1     2    1
    15     2     4    2
