@<TRIPOS>MOLECULE
/home/cewinharhar/GITHUB/reincatalyze/data/processed/docking_pred/2023-May-30-2130_sub9_nm5_bs15_s42_ex16_mel10_mts10000_k50_ec05_g099_lra3e-4_lrc3e-3/440c71a9d87327452c2c76e2e73f057a38f6e63a_ligand_9.pdbqt
 14 15 0 0 0
SMALL
GASTEIGER

@<TRIPOS>ATOM
      1  C          5.7600    1.2040   -0.3170 C.3     1  UNL1        0.0800
      2  C          5.2600    1.1930    1.0860 C.2     1  UNL1        0.1300
      3  C          5.4720    0.0240    1.9810 C.3     1  UNL1        0.0870
      4  O          4.6580    2.1500    1.5450 O.2     1  UNL1       -0.3000
      5  C          7.2660    1.0400   -0.3670 C.3     1  UNL1        0.0430
      6  C          7.6550   -0.2590   -0.9420 C.2     1  UNL1       -0.0440
      7  C          7.7570   -0.4480   -2.3250 C.2     1  UNL1        0.0080
      8  C          7.9310   -1.3190   -0.1080 C.2     1  UNL1        0.0540
      9  C          8.1270   -1.6900   -2.8080 C.2     1  UNL1        0.0510
     10  C          8.3060   -2.5730   -0.6010 C.2     1  UNL1        0.1660
     11  C          8.4050   -2.7600   -1.9620 C.2     1  UNL1        0.1650
     12  O          8.6260   -3.7660    0.0110 O.2     1  UNL1       -0.4540
     13  O          8.7880   -4.0770   -2.1590 O.2     1  UNL1       -0.4540
     14  C          9.0280   -4.7250   -0.9320 C.3     1  UNL1        0.4680
@<TRIPOS>BOND
     1     9     7    1
     2     9    11    2
     3     7     6    2
     4    13    11    1
     5    13    14    1
     6    11    10    1
     7     6     5    1
     8     6     8    1
     9    14    12    1
    10    10     8    2
    11    10    12    1
    12     5     1    1
    13     1     2    1
    14     2     4    2
    15     2     3    1
