@<TRIPOS>MOLECULE
/home/cewinharhar/GITHUB/reincatalyze/data/processed/docking_pred/2023-May-30-2130_sub9_nm5_bs15_s42_ex16_mel10_mts10000_k50_ec05_g099_lra3e-4_lrc3e-3/44bf36be1ccee3462d679cf400989bbed31f99fd_ligand_9.pdbqt
 14 15 0 0 0
SMALL
GASTEIGER

@<TRIPOS>ATOM
      1  C          5.5090    1.9260    1.2490 C.3     1  UNL1        0.0800
      2  C          5.0260    0.7270    1.9900 C.2     1  UNL1        0.1300
      3  C          5.8560   -0.5000    2.1160 C.3     1  UNL1        0.0870
      4  O          3.9250    0.7180    2.5180 O.2     1  UNL1       -0.3000
      5  C          5.3900    1.7310   -0.2490 C.3     1  UNL1        0.0430
      6  C          6.5620    1.0300   -0.8040 C.2     1  UNL1       -0.0440
      7  C          7.8670    1.4600   -0.5400 C.2     1  UNL1        0.0080
      8  C          6.3790   -0.0780   -1.6000 C.2     1  UNL1        0.0540
      9  C          8.9280    0.7620   -1.0870 C.2     1  UNL1        0.0510
     10  C          7.4550   -0.7810   -2.1510 C.2     1  UNL1        0.1660
     11  C          8.7400   -0.3580   -1.8930 C.2     1  UNL1        0.1650
     12  O          7.5340   -1.8940   -2.9620 O.2     1  UNL1       -0.4540
     13  O          9.5900   -1.2290   -2.5560 O.2     1  UNL1       -0.4540
     14  C          8.8710   -2.2710   -3.1710 C.3     1  UNL1        0.4680
@<TRIPOS>BOND
     1    14    12    1
     2    14    13    1
     3    12    10    1
     4    13    11    1
     5    10    11    2
     6    10     8    1
     7    11     9    1
     8     8     6    2
     9     9     7    2
    10     6     7    1
    11     6     5    1
    12     5     1    1
    13     1     2    1
    14     2     3    1
    15     2     4    2
