@<TRIPOS>MOLECULE
/home/cewinharhar/GITHUB/reincatalyze/data/processed/docking_pred/2023-May-30-2130_sub9_nm5_bs15_s42_ex16_mel10_mts10000_k50_ec05_g099_lra3e-4_lrc3e-3/46824fcf52dc560be674bfd6df7e039c48ea1670_ligand_9.pdbqt
 14 15 0 0 0
SMALL
GASTEIGER

@<TRIPOS>ATOM
      1  C          5.3160   -0.0620    1.9700 C.3     1  UNL1        0.0800
      2  C          4.4330    1.1230    1.7840 C.2     1  UNL1        0.1300
      3  C          4.7120    2.1490    0.7440 C.3     1  UNL1        0.0870
      4  O          3.4470    1.2860    2.4850 O.2     1  UNL1       -0.3000
      5  C          6.7800    0.3270    1.9070 C.3     1  UNL1        0.0430
      6  C          7.3850   -0.0300    0.6120 C.2     1  UNL1       -0.0440
      7  C          7.8800    0.9460   -0.2610 C.2     1  UNL1        0.0080
      8  C          7.4730   -1.3530    0.2420 C.2     1  UNL1        0.0540
      9  C          8.4390    0.5510   -1.4630 C.2     1  UNL1        0.0510
     10  C          8.0390   -1.7480   -0.9740 C.2     1  UNL1        0.1660
     11  C          8.5260   -0.7880   -1.8340 C.2     1  UNL1        0.1650
     12  O          8.2400   -2.9790   -1.5620 O.2     1  UNL1       -0.4540
     13  O          9.0200   -1.4560   -2.9430 O.2     1  UNL1       -0.4540
     14  C          8.9420   -2.8510   -2.7720 C.3     1  UNL1        0.4680
@<TRIPOS>BOND
     1    13    14    1
     2    13    11    1
     3    14    12    1
     4    11     9    2
     5    11    10    1
     6    12    10    1
     7     9     7    1
     8    10     8    2
     9     7     6    2
    10     8     6    1
    11     6     5    1
    12     3     2    1
    13     2     1    1
    14     2     4    2
    15     5     1    1
