@<TRIPOS>MOLECULE
/home/cewinharhar/GITHUB/reincatalyze/data/processed/docking_pred/2023-May-30-2130_sub9_nm5_bs15_s42_ex16_mel10_mts10000_k50_ec05_g099_lra3e-4_lrc3e-3/46861e00ed193d15618049a480e2ca269f83ce14_ligand_9.pdbqt
 14 15 0 0 0
SMALL
GASTEIGER

@<TRIPOS>ATOM
      1  C          6.8220    0.9070    1.4690 C.3     1  UNL1        0.0800
      2  C          5.3660    1.2210    1.4440 C.2     1  UNL1        0.1300
      3  C          4.7830    2.1430    0.4330 C.3     1  UNL1        0.0870
      4  O          4.6040    0.7260    2.2590 O.2     1  UNL1       -0.3000
      5  C          7.4550    1.1230    0.1090 C.3     1  UNL1        0.0430
      6  C          7.7230   -0.1540   -0.5780 C.2     1  UNL1       -0.0440
      7  C          7.6510   -0.2650   -1.9710 C.2     1  UNL1        0.0080
      8  C          8.0540   -1.2680    0.1590 C.2     1  UNL1        0.0540
      9  C          7.9140   -1.4890   -2.5600 C.2     1  UNL1        0.0510
     10  C          8.3190   -2.5030   -0.4420 C.2     1  UNL1        0.1660
     11  C          8.2480   -2.6140   -1.8130 C.2     1  UNL1        0.1650
     12  O          8.6630   -3.7390    0.0630 O.2     1  UNL1       -0.4540
     13  O          8.5540   -3.9290   -2.1240 O.2     1  UNL1       -0.4540
     14  C          8.9130   -4.6540   -0.9720 C.3     1  UNL1        0.4680
@<TRIPOS>BOND
     1     9     7    1
     2     9    11    2
     3    13    11    1
     4    13    14    1
     5     7     6    2
     6    11    10    1
     7    14    12    1
     8     6     5    1
     9     6     8    1
    10    10    12    1
    11    10     8    2
    12     5     1    1
    13     3     2    1
    14     2     1    1
    15     2     4    2
