@<TRIPOS>MOLECULE
/home/cewinharhar/GITHUB/reincatalyze/data/processed/docking_pred/2023-May-30-2130_sub9_nm5_bs15_s42_ex16_mel10_mts10000_k50_ec05_g099_lra3e-4_lrc3e-3/46861e00ed193d15618049a480e2ca269f83ce14_ligand_9.pdbqt
 14 15 0 0 0
SMALL
GASTEIGER

@<TRIPOS>ATOM
      1  C          5.5180    1.9260    1.2600 C.3     1  UNL1        0.0800
      2  C          5.0910    0.7080    2.0040 C.2     1  UNL1        0.1300
      3  C          5.9970   -0.4590    2.1770 C.3     1  UNL1        0.0870
      4  O          3.9760    0.6330    2.4960 O.2     1  UNL1       -0.3000
      5  C          5.3930    1.7280   -0.2370 C.3     1  UNL1        0.0430
      6  C          6.5620    1.0260   -0.7960 C.2     1  UNL1       -0.0440
      7  C          7.8680    1.4550   -0.5340 C.2     1  UNL1        0.0080
      8  C          6.3770   -0.0810   -1.5920 C.2     1  UNL1        0.0540
      9  C          8.9270    0.7570   -1.0850 C.2     1  UNL1        0.0510
     10  C          7.4510   -0.7840   -2.1460 C.2     1  UNL1        0.1660
     11  C          8.7360   -0.3620   -1.8900 C.2     1  UNL1        0.1650
     12  O          7.5270   -1.8960   -2.9580 O.2     1  UNL1       -0.4540
     13  O          9.5840   -1.2330   -2.5570 O.2     1  UNL1       -0.4540
     14  C          8.8630   -2.2740   -3.1710 C.3     1  UNL1        0.4680
@<TRIPOS>BOND
     1    14    12    1
     2    14    13    1
     3    12    10    1
     4    13    11    1
     5    10    11    2
     6    10     8    1
     7    11     9    1
     8     8     6    2
     9     9     7    2
    10     6     7    1
    11     6     5    1
    12     5     1    1
    13     1     2    1
    14     2     3    1
    15     2     4    2
