@<TRIPOS>MOLECULE
/home/cewinharhar/GITHUB/reincatalyze/data/processed/docking_pred/2023-May-30-2130_sub9_nm5_bs15_s42_ex16_mel10_mts10000_k50_ec05_g099_lra3e-4_lrc3e-3/46861e00ed193d15618049a480e2ca269f83ce14_ligand_9.pdbqt
 14 15 0 0 0
SMALL
GASTEIGER

@<TRIPOS>ATOM
      1  C          6.3810    1.1740    0.9620 C.3     1  UNL1        0.0800
      2  C          5.6400    0.3510    1.9580 C.2     1  UNL1        0.1300
      3  C          6.2320   -0.8760    2.5530 C.3     1  UNL1        0.0870
      4  O          4.5150    0.6630    2.3160 O.2     1  UNL1       -0.3000
      5  C          5.8750    0.9240   -0.4440 C.3     1  UNL1        0.0430
      6  C          6.8140    0.0980   -1.2240 C.2     1  UNL1       -0.0440
      7  C          7.4730    0.6030   -2.3510 C.2     1  UNL1        0.0080
      8  C          7.0580   -1.2020   -0.8430 C.2     1  UNL1        0.0540
      9  C          8.3440   -0.2180   -3.0430 C.2     1  UNL1        0.0510
     10  C          7.9400   -2.0280   -1.5460 C.2     1  UNL1        0.1660
     11  C          8.5880   -1.5320   -2.6560 C.2     1  UNL1        0.1650
     12  O          8.3440   -3.3340   -1.3720 O.2     1  UNL1       -0.4540
     13  O          9.3860   -2.5550   -3.1440 O.2     1  UNL1       -0.4540
     14  C          9.3310   -3.6860   -2.3080 C.3     1  UNL1        0.4680
@<TRIPOS>BOND
     1    13    11    1
     2    13    14    1
     3     9    11    2
     4     9     7    1
     5    11    10    1
     6     7     6    2
     7    14    12    1
     8    10    12    1
     9    10     8    2
    10     6     8    1
    11     6     5    1
    12     5     1    1
    13     1     2    1
    14     2     4    2
    15     2     3    1
