@<TRIPOS>MOLECULE
/home/cewinharhar/GITHUB/reincatalyze/data/processed/docking_pred/2023-May-30-2130_sub9_nm5_bs15_s42_ex16_mel10_mts10000_k50_ec05_g099_lra3e-4_lrc3e-3/47b44d15f3f2a188ad45a82117098c9a7423a2f0_ligand_9.pdbqt
 14 15 0 0 0
SMALL
GASTEIGER

@<TRIPOS>ATOM
      1  C          5.7410    1.1780   -0.3590 C.3     1  UNL1        0.0800
      2  C          5.2340    1.1950    1.0410 C.2     1  UNL1        0.1300
      3  C          5.4770    0.0610    1.9730 C.3     1  UNL1        0.0870
      4  O          4.5990    2.1460    1.4660 O.2     1  UNL1       -0.3000
      5  C          7.2520    1.0510   -0.3960 C.3     1  UNL1        0.0430
      6  C          7.6780   -0.2300   -0.9880 C.2     1  UNL1       -0.0440
      7  C          7.9060   -0.3610   -2.3630 C.2     1  UNL1        0.0080
      8  C          7.8600   -1.3280   -0.1790 C.2     1  UNL1        0.0540
      9  C          8.3060   -1.5880   -2.8620 C.2     1  UNL1        0.0510
     10  C          8.2650   -2.5660   -0.6890 C.2     1  UNL1        0.1660
     11  C          8.4890   -2.6960   -2.0410 C.2     1  UNL1        0.1650
     12  O          8.5110   -3.7880   -0.1020 O.2     1  UNL1       -0.4540
     13  O          8.8740   -4.0100   -2.2590 O.2     1  UNL1       -0.4540
     14  C          8.9890   -4.7140   -1.0450 C.3     1  UNL1        0.4680
@<TRIPOS>BOND
     1     9     7    1
     2     9    11    2
     3     7     6    2
     4    13    11    1
     5    13    14    1
     6    11    10    1
     7    14    12    1
     8     6     5    1
     9     6     8    1
    10    10     8    2
    11    10    12    1
    12     5     1    1
    13     1     2    1
    14     2     4    2
    15     2     3    1
