@<TRIPOS>MOLECULE
/home/cewinharhar/GITHUB/reincatalyze/data/processed/docking_pred/2023-May-30-2130_sub9_nm5_bs15_s42_ex16_mel10_mts10000_k50_ec05_g099_lra3e-4_lrc3e-3/47b44d15f3f2a188ad45a82117098c9a7423a2f0_ligand_9.pdbqt
 14 15 0 0 0
SMALL
GASTEIGER

@<TRIPOS>ATOM
      1  C          5.3700   -0.1010    1.9590 C.3     1  UNL1        0.0800
      2  C          5.2410    1.0970    1.0830 C.2     1  UNL1        0.1300
      3  C          5.9240    1.1760   -0.2360 C.3     1  UNL1        0.0870
      4  O          4.5670    2.0550    1.4260 O.2     1  UNL1       -0.3000
      5  C          6.1540   -1.2020    1.2740 C.3     1  UNL1        0.0430
      6  C          7.3880   -1.5320    2.0080 C.2     1  UNL1       -0.0440
      7  C          8.4130   -2.2820    1.4190 C.2     1  UNL1        0.0080
      8  C          7.5490   -1.0960    3.3030 C.2     1  UNL1        0.0540
      9  C          9.5500   -2.5600    2.1560 C.2     1  UNL1        0.0510
     10  C          8.7010   -1.3790    4.0440 C.2     1  UNL1        0.1660
     11  C          9.7090   -2.1170    3.4660 C.2     1  UNL1        0.1650
     12  O          9.0930   -1.0640    5.3280 O.2     1  UNL1       -0.4540
     13  O         10.7100   -2.2410    4.4160 O.2     1  UNL1       -0.4540
     14  C         10.4000   -1.5120    5.5800 C.3     1  UNL1        0.4680
@<TRIPOS>BOND
     1     3     2    1
     2     2     4    2
     3     2     1    1
     4     5     1    1
     5     5     6    1
     6     7     6    2
     7     7     9    1
     8     6     8    1
     9     9    11    2
    10     8    10    2
    11    11    10    1
    12    11    13    1
    13    10    12    1
    14    13    14    1
    15    12    14    1
