@<TRIPOS>MOLECULE
/home/cewinharhar/GITHUB/reincatalyze/data/processed/docking_pred/2023-May-30-2130_sub9_nm5_bs15_s42_ex16_mel10_mts10000_k50_ec05_g099_lra3e-4_lrc3e-3/47b44d15f3f2a188ad45a82117098c9a7423a2f0_ligand_9.pdbqt
 14 15 0 0 0
SMALL
GASTEIGER

@<TRIPOS>ATOM
      1  C          6.2550   -0.8400    2.5220 C.3     1  UNL1        0.0800
      2  C          5.4260    0.2100    1.8670 C.2     1  UNL1        0.1300
      3  C          5.7680    0.7490    0.5230 C.3     1  UNL1        0.0870
      4  O          4.4360    0.6620    2.4190 O.2     1  UNL1       -0.3000
      5  C          7.6040   -0.9780    1.8450 C.3     1  UNL1        0.0430
      6  C          8.6220   -1.5230    2.7610 C.2     1  UNL1       -0.0440
      7  C          8.5250   -1.3570    4.1470 C.2     1  UNL1        0.0080
      8  C          9.6970   -2.2160    2.2520 C.2     1  UNL1        0.0540
      9  C          9.5100   -1.8910    4.9580 C.2     1  UNL1        0.0510
     10  C         10.6900   -2.7550    3.0760 C.2     1  UNL1        0.1660
     11  C         10.5960   -2.5910    4.4400 C.2     1  UNL1        0.1650
     12  O         11.8380   -3.4720    2.8180 O.2     1  UNL1       -0.4540
     13  O         11.6990   -3.2180    4.9970 O.2     1  UNL1       -0.4540
     14  C         12.4650   -3.8680    4.0110 C.3     1  UNL1        0.4680
@<TRIPOS>BOND
     1     3     2    1
     2     5     1    1
     3     5     6    1
     4     2     4    2
     5     2     1    1
     6     8     6    2
     7     8    10    1
     8     6     7    1
     9    12    10    1
    10    12    14    1
    11    10    11    2
    12    14    13    1
    13     7     9    2
    14    11     9    1
    15    11    13    1
