@<TRIPOS>MOLECULE
/home/cewinharhar/GITHUB/reincatalyze/data/processed/docking_pred/2023-May-30-2130_sub9_nm5_bs15_s42_ex16_mel10_mts10000_k50_ec05_g099_lra3e-4_lrc3e-3/47b44d15f3f2a188ad45a82117098c9a7423a2f0_ligand_9.pdbqt
 14 15 0 0 0
SMALL
GASTEIGER

@<TRIPOS>ATOM
      1  C          5.5160   -0.0450    1.9790 C.3     1  UNL1        0.0800
      2  C          5.2630    1.0920    1.0510 C.2     1  UNL1        0.1300
      3  C          5.8480    1.1290   -0.3160 C.3     1  UNL1        0.0870
      4  O          4.5630    2.0330    1.3890 O.2     1  UNL1       -0.3000
      5  C          6.3580   -1.1180    1.3180 C.3     1  UNL1        0.0430
      6  C          7.5070   -1.5040    2.1570 C.2     1  UNL1       -0.0440
      7  C          7.5750   -1.1590    3.5110 C.2     1  UNL1        0.0080
      8  C          8.5430   -2.2240    1.6050 C.2     1  UNL1        0.0540
      9  C          8.6780   -1.5500    4.2490 C.2     1  UNL1        0.0510
     10  C          9.6550   -2.6180    2.3550 C.2     1  UNL1        0.1660
     11  C          9.7230   -2.2770    3.6880 C.2     1  UNL1        0.1650
     12  O         10.7960   -3.3260    2.0430 O.2     1  UNL1       -0.4540
     13  O         10.9170   -2.7900    4.1720 O.2     1  UNL1       -0.4540
     14  C         11.5850   -3.5400    3.1850 C.3     1  UNL1        0.4680
@<TRIPOS>BOND
     1     3     2    1
     2     2     4    2
     3     2     1    1
     4     5     1    1
     5     5     6    1
     6     8     6    2
     7     8    10    1
     8    12    10    1
     9    12    14    1
    10     6     7    1
    11    10    11    2
    12    14    13    1
    13     7     9    2
    14    11    13    1
    15    11     9    1
