@<TRIPOS>MOLECULE
/home/cewinharhar/GITHUB/reincatalyze/data/processed/docking_pred/2023-May-30-2130_sub9_nm5_bs15_s42_ex16_mel10_mts10000_k50_ec05_g099_lra3e-4_lrc3e-3/49b3117837231080fe644fe44c00424f4b8d2b91_ligand_9.pdbqt
 14 15 0 0 0
SMALL
GASTEIGER

@<TRIPOS>ATOM
      1  C          5.4430   -0.0510    2.0140 C.3     1  UNL1        0.0800
      2  C          4.5780    1.1360    1.7630 C.2     1  UNL1        0.1300
      3  C          4.9090    2.1350    0.7120 C.3     1  UNL1        0.0870
      4  O          3.5660    1.3240    2.4190 O.2     1  UNL1       -0.3000
      5  C          6.8720    0.2080    1.5800 C.3     1  UNL1        0.0430
      6  C          7.2960   -0.7180    0.5150 C.2     1  UNL1       -0.0440
      7  C          7.1810   -0.3810   -0.8380 C.2     1  UNL1        0.0080
      8  C          7.8210   -1.9460    0.8480 C.2     1  UNL1        0.0540
      9  C          7.5960   -1.2900   -1.7940 C.2     1  UNL1        0.0510
     10  C          8.2400   -2.8610   -0.1220 C.2     1  UNL1        0.1660
     11  C          8.1260   -2.5310   -1.4540 C.2     1  UNL1        0.1650
     12  O          8.7860   -4.1250   -0.0480 O.2     1  UNL1       -0.4540
     13  O          8.6100   -3.6090   -2.1770 O.2     1  UNL1       -0.4540
     14  C          9.1230   -4.6050   -1.3240 C.3     1  UNL1        0.4680
@<TRIPOS>BOND
     1    13    11    1
     2    13    14    1
     3     9    11    2
     4     9     7    1
     5    11    10    1
     6    14    12    1
     7     7     6    2
     8    10    12    1
     9    10     8    2
    10     6     8    1
    11     6     5    1
    12     3     2    1
    13     5     1    1
    14     2     1    1
    15     2     4    2
