@<TRIPOS>MOLECULE
/home/cewinharhar/GITHUB/reincatalyze/data/processed/docking_pred/2023-May-30-2130_sub9_nm5_bs15_s42_ex16_mel10_mts10000_k50_ec05_g099_lra3e-4_lrc3e-3/49b3117837231080fe644fe44c00424f4b8d2b91_ligand_9.pdbqt
 14 15 0 0 0
SMALL
GASTEIGER

@<TRIPOS>ATOM
      1  C          6.3800    1.1920    0.8980 C.3     1  UNL1        0.0800
      2  C          5.6710    0.3820    1.9280 C.2     1  UNL1        0.1300
      3  C          6.2680   -0.8570    2.4940 C.3     1  UNL1        0.0870
      4  O          4.5710    0.7150    2.3390 O.2     1  UNL1       -0.3000
      5  C          5.8630    0.8880   -0.4940 C.3     1  UNL1        0.0430
      6  C          6.8180    0.0740   -1.2660 C.2     1  UNL1       -0.0440
      7  C          7.5110    0.6000   -2.3620 C.2     1  UNL1        0.0080
      8  C          7.0450   -1.2360   -0.9070 C.2     1  UNL1        0.0540
      9  C          8.3960   -0.2110   -3.0480 C.2     1  UNL1        0.0510
     10  C          7.9420   -2.0510   -1.6040 C.2     1  UNL1        0.1660
     11  C          8.6230   -1.5340   -2.6840 C.2     1  UNL1        0.1650
     12  O          8.3350   -3.3630   -1.4480 O.2     1  UNL1       -0.4540
     13  O          9.4290   -2.5500   -3.1730 O.2     1  UNL1       -0.4540
     14  C          9.3450   -3.7000   -2.3640 C.3     1  UNL1        0.4680
@<TRIPOS>BOND
     1    13    11    1
     2    13    14    1
     3     9    11    2
     4     9     7    1
     5    11    10    1
     6    14    12    1
     7     7     6    2
     8    10    12    1
     9    10     8    2
    10     6     8    1
    11     6     5    1
    12     5     1    1
    13     1     2    1
    14     2     4    2
    15     2     3    1
