@<TRIPOS>MOLECULE
/home/cewinharhar/GITHUB/reincatalyze/data/processed/docking_pred/2023-May-30-2130_sub9_nm5_bs15_s42_ex16_mel10_mts10000_k50_ec05_g099_lra3e-4_lrc3e-3/49b3117837231080fe644fe44c00424f4b8d2b91_ligand_9.pdbqt
 14 15 0 0 0
SMALL
GASTEIGER

@<TRIPOS>ATOM
      1  C          5.5370    1.9070    1.2770 C.3     1  UNL1        0.0800
      2  C          5.0820    0.6900    2.0060 C.2     1  UNL1        0.1300
      3  C          5.9610   -0.4980    2.1670 C.3     1  UNL1        0.0870
      4  O          3.9650    0.6330    2.4940 O.2     1  UNL1       -0.3000
      5  C          5.4100    1.7300   -0.2230 C.3     1  UNL1        0.0430
      6  C          6.5750    1.0290   -0.7920 C.2     1  UNL1       -0.0440
      7  C          7.8820    1.4680   -0.5520 C.2     1  UNL1        0.0080
      8  C          6.3850   -0.0850   -1.5770 C.2     1  UNL1        0.0540
      9  C          8.9380    0.7700   -1.1110 C.2     1  UNL1        0.0510
     10  C          7.4560   -0.7880   -2.1390 C.2     1  UNL1        0.1660
     11  C          8.7420   -0.3560   -1.9050 C.2     1  UNL1        0.1650
     12  O          7.5270   -1.9060   -2.9420 O.2     1  UNL1       -0.4540
     13  O          9.5860   -1.2280   -2.5750 O.2     1  UNL1       -0.4540
     14  C          8.8620   -2.2780   -3.1710 C.3     1  UNL1        0.4680
@<TRIPOS>BOND
     1    14    12    1
     2    14    13    1
     3    12    10    1
     4    13    11    1
     5    10    11    2
     6    10     8    1
     7    11     9    1
     8     8     6    2
     9     9     7    2
    10     6     7    1
    11     6     5    1
    12     5     1    1
    13     1     2    1
    14     2     3    1
    15     2     4    2
