MODEL 1
REMARK VINA RESULT:      -7.6      0.000      0.000
REMARK SMILES CC(=O)CCc1ccc2c(c1)OCO2
REMARK SMILES IDX 4 1 2 2 1 3 3 4 5 5 6 6 7 7 11 8 8 9 10 10 9 11 12 12 14 13
REMARK SMILES IDX 13 14
REMARK H PARENT
REMARK Flexibility Score: inf
ROOT
ATOM      1  C   UNL     1       5.537   1.907   1.277  1.00  0.00     0.080 C 
ENDROOT
BRANCH   1   2
ATOM      2  C   UNL     1       5.082   0.690   2.006  1.00  0.00     0.130 C 
ATOM      3  C   UNL     1       5.961  -0.498   2.167  1.00  0.00     0.087 C 
ATOM      4  O   UNL     1       3.965   0.633   2.494  1.00  0.00    -0.300 OA
ENDBRANCH   1   2
BRANCH   1   5
ATOM      5  C   UNL     1       5.410   1.730  -0.223  1.00  0.00     0.043 C 
BRANCH   5   6
ATOM      6  C   UNL     1       6.575   1.029  -0.792  1.00  0.00    -0.044 A 
ATOM      7  C   UNL     1       7.882   1.468  -0.552  1.00  0.00     0.008 A 
ATOM      8  C   UNL     1       6.385  -0.085  -1.577  1.00  0.00     0.054 A 
ATOM      9  C   UNL     1       8.938   0.770  -1.111  1.00  0.00     0.051 A 
ATOM     10  C   UNL     1       7.456  -0.788  -2.139  1.00  0.00     0.166 A 
ATOM     11  C   UNL     1       8.742  -0.356  -1.905  1.00  0.00     0.165 A 
ATOM     12  O   UNL     1       7.527  -1.906  -2.942  1.00  0.00    -0.454 OA
ATOM     13  O   UNL     1       9.586  -1.228  -2.575  1.00  0.00    -0.454 OA
ATOM     14  C   UNL     1       8.862  -2.278  -3.171  1.00  0.00     0.468 C 
ENDBRANCH   5   6
ENDBRANCH   1   5
TORSDOF 3
ENDMDL
MODEL 2
REMARK VINA RESULT:      -7.4      1.944      2.441
REMARK SMILES CC(=O)CCc1ccc2c(c1)OCO2
REMARK SMILES IDX 4 1 2 2 1 3 3 4 5 5 6 6 7 7 11 8 8 9 10 10 9 11 12 12 14 13
REMARK SMILES IDX 13 14
REMARK H PARENT
REMARK Flexibility Score: inf
ROOT
ATOM      1  C   UNL     1       5.732   1.182  -0.313  1.00  0.00     0.080 C 
ENDROOT
BRANCH   1   2
ATOM      2  C   UNL     1       5.242   1.168   1.094  1.00  0.00     0.130 C 
ATOM      3  C   UNL     1       5.386  -0.033   1.960  1.00  0.00     0.087 C 
ATOM      4  O   UNL     1       4.703   2.150   1.579  1.00  0.00    -0.300 OA
ENDBRANCH   1   2
BRANCH   1   5
ATOM      5  C   UNL     1       7.239   1.026  -0.372  1.00  0.00     0.043 C 
BRANCH   5   6
ATOM      6  C   UNL     1       7.632  -0.271  -0.951  1.00  0.00    -0.044 A 
ATOM      7  C   UNL     1       7.695  -0.467  -2.335  1.00  0.00     0.008 A 
ATOM      8  C   UNL     1       7.948  -1.322  -0.119  1.00  0.00     0.054 A 
ATOM      9  C   UNL     1       8.071  -1.706  -2.821  1.00  0.00     0.051 A 
ATOM     10  C   UNL     1       8.329  -2.572  -0.615  1.00  0.00     0.166 A 
ATOM     11  C   UNL     1       8.390  -2.766  -1.977  1.00  0.00     0.165 A 
ATOM     12  O   UNL     1       8.686  -3.756  -0.006  1.00  0.00    -0.454 OA
ATOM     13  O   UNL     1       8.788  -4.078  -2.178  1.00  0.00    -0.454 OA
ATOM     14  C   UNL     1       9.074  -4.715  -0.955  1.00  0.00     0.468 C 
ENDBRANCH   5   6
ENDBRANCH   1   5
TORSDOF 3
ENDMDL
MODEL 3
REMARK VINA RESULT:      -7.2      2.045      2.611
REMARK SMILES CC(=O)CCc1ccc2c(c1)OCO2
REMARK SMILES IDX 4 1 2 2 1 3 3 4 5 5 6 6 7 7 11 8 8 9 10 10 9 11 12 12 14 13
REMARK SMILES IDX 13 14
REMARK H PARENT
REMARK Flexibility Score: inf
ROOT
ATOM      1  C   UNL     1       5.443  -0.051   2.014  1.00  0.00     0.080 C 
ENDROOT
BRANCH   1   2
ATOM      2  C   UNL     1       4.578   1.136   1.763  1.00  0.00     0.130 C 
ATOM      3  C   UNL     1       4.909   2.135   0.712  1.00  0.00     0.087 C 
ATOM      4  O   UNL     1       3.566   1.324   2.419  1.00  0.00    -0.300 OA
ENDBRANCH   1   2
BRANCH   1   5
ATOM      5  C   UNL     1       6.872   0.208   1.580  1.00  0.00     0.043 C 
BRANCH   5   6
ATOM      6  C   UNL     1       7.296  -0.718   0.515  1.00  0.00    -0.044 A 
ATOM      7  C   UNL     1       7.181  -0.381  -0.838  1.00  0.00     0.008 A 
ATOM      8  C   UNL     1       7.821  -1.946   0.848  1.00  0.00     0.054 A 
ATOM      9  C   UNL     1       7.596  -1.290  -1.794  1.00  0.00     0.051 A 
ATOM     10  C   UNL     1       8.240  -2.861  -0.122  1.00  0.00     0.166 A 
ATOM     11  C   UNL     1       8.126  -2.531  -1.454  1.00  0.00     0.165 A 
ATOM     12  O   UNL     1       8.786  -4.125  -0.048  1.00  0.00    -0.454 OA
ATOM     13  O   UNL     1       8.610  -3.609  -2.177  1.00  0.00    -0.454 OA
ATOM     14  C   UNL     1       9.123  -4.605  -1.324  1.00  0.00     0.468 C 
ENDBRANCH   5   6
ENDBRANCH   1   5
TORSDOF 3
ENDMDL
MODEL 4
REMARK VINA RESULT:      -7.1      1.955      2.513
REMARK SMILES CC(=O)CCc1ccc2c(c1)OCO2
REMARK SMILES IDX 4 1 2 2 1 3 3 4 5 5 6 6 7 7 11 8 8 9 10 10 9 11 12 12 14 13
REMARK SMILES IDX 13 14
REMARK H PARENT
REMARK Flexibility Score: inf
ROOT
ATOM      1  C   UNL     1       6.771   0.804   1.352  1.00  0.00     0.080 C 
ENDROOT
BRANCH   1   2
ATOM      2  C   UNL     1       5.335   1.182   1.467  1.00  0.00     0.130 C 
ATOM      3  C   UNL     1       4.705   2.150   0.529  1.00  0.00     0.087 C 
ATOM      4  O   UNL     1       4.629   0.706   2.342  1.00  0.00    -0.300 OA
ENDBRANCH   1   2
BRANCH   1   5
ATOM      5  C   UNL     1       7.287   1.022  -0.056  1.00  0.00     0.043 C 
BRANCH   5   6
ATOM      6  C   UNL     1       7.619  -0.250  -0.720  1.00  0.00    -0.044 A 
ATOM      7  C   UNL     1       7.616  -0.372  -2.115  1.00  0.00     0.008 A 
ATOM      8  C   UNL     1       7.944  -1.352   0.039  1.00  0.00     0.054 A 
ATOM      9  C   UNL     1       7.938  -1.592  -2.682  1.00  0.00     0.051 A 
ATOM     10  C   UNL     1       8.269  -2.582  -0.540  1.00  0.00     0.166 A 
ATOM     11  C   UNL     1       8.265  -2.703  -1.912  1.00  0.00     0.165 A 
ATOM     12  O   UNL     1       8.620  -3.806  -0.011  1.00  0.00    -0.454 OA
ATOM     13  O   UNL     1       8.619  -4.012  -2.199  1.00  0.00    -0.454 OA
ATOM     14  C   UNL     1       8.942  -4.721  -1.027  1.00  0.00     0.468 C 
ENDBRANCH   5   6
ENDBRANCH   1   5
TORSDOF 3
ENDMDL
MODEL 5
REMARK VINA RESULT:      -7.1      1.255      1.471
REMARK SMILES CC(=O)CCc1ccc2c(c1)OCO2
REMARK SMILES IDX 4 1 2 2 1 3 3 4 5 5 6 6 7 7 11 8 8 9 10 10 9 11 12 12 14 13
REMARK SMILES IDX 13 14
REMARK H PARENT
REMARK Flexibility Score: inf
ROOT
ATOM      1  C   UNL     1       6.380   1.192   0.898  1.00  0.00     0.080 C 
ENDROOT
BRANCH   1   2
ATOM      2  C   UNL     1       5.671   0.382   1.928  1.00  0.00     0.130 C 
ATOM      3  C   UNL     1       6.268  -0.857   2.494  1.00  0.00     0.087 C 
ATOM      4  O   UNL     1       4.571   0.715   2.339  1.00  0.00    -0.300 OA
ENDBRANCH   1   2
BRANCH   1   5
ATOM      5  C   UNL     1       5.863   0.888  -0.494  1.00  0.00     0.043 C 
BRANCH   5   6
ATOM      6  C   UNL     1       6.818   0.074  -1.266  1.00  0.00    -0.044 A 
ATOM      7  C   UNL     1       7.511   0.600  -2.362  1.00  0.00     0.008 A 
ATOM      8  C   UNL     1       7.045  -1.236  -0.907  1.00  0.00     0.054 A 
ATOM      9  C   UNL     1       8.396  -0.211  -3.048  1.00  0.00     0.051 A 
ATOM     10  C   UNL     1       7.942  -2.051  -1.604  1.00  0.00     0.166 A 
ATOM     11  C   UNL     1       8.623  -1.534  -2.684  1.00  0.00     0.165 A 
ATOM     12  O   UNL     1       8.335  -3.363  -1.448  1.00  0.00    -0.454 OA
ATOM     13  O   UNL     1       9.429  -2.550  -3.173  1.00  0.00    -0.454 OA
ATOM     14  C   UNL     1       9.345  -3.700  -2.364  1.00  0.00     0.468 C 
ENDBRANCH   5   6
ENDBRANCH   1   5
TORSDOF 3
ENDMDL
