@<TRIPOS>MOLECULE
/home/cewinharhar/GITHUB/reincatalyze/data/processed/docking_pred/2023-May-30-2130_sub9_nm5_bs15_s42_ex16_mel10_mts10000_k50_ec05_g099_lra3e-4_lrc3e-3/4a3a178b6a4326eb13634b12f3ce9c4ec26f8538_ligand_9.pdbqt
 14 15 0 0 0
SMALL
GASTEIGER

@<TRIPOS>ATOM
      1  C          8.3570    0.2280   -2.5920 C.3     1  UNL1        0.0800
      2  C          8.0340   -1.2220   -2.7030 C.2     1  UNL1        0.1300
      3  C          9.0800   -2.2340   -3.0130 C.3     1  UNL1        0.0870
      4  O          6.8930   -1.6240   -2.5430 O.2     1  UNL1       -0.3000
      5  C          8.8650    0.5730   -1.2060 C.3     1  UNL1        0.0430
      6  C          7.8100    0.4350   -0.1870 C.2     1  UNL1       -0.0440
      7  C          7.8900   -0.5270    0.8260 C.2     1  UNL1        0.0080
      8  C          6.7150    1.2690   -0.2210 C.2     1  UNL1        0.0540
      9  C          6.8700   -0.6090    1.7560 C.2     1  UNL1        0.0510
     10  C          5.6870    1.1820    0.7220 C.2     1  UNL1        0.1660
     11  C          5.7650    0.2350    1.7180 C.2     1  UNL1        0.1650
     12  O          4.5130    1.8840    0.8990 O.2     1  UNL1       -0.4540
     13  O          4.6260    0.3770    2.4960 O.2     1  UNL1       -0.4540
     14  C          3.8500    1.4700    2.0660 C.3     1  UNL1        0.4680
@<TRIPOS>BOND
     1     3     2    1
     2     2     1    1
     3     2     4    2
     4     1     5    1
     5     5     6    1
     6     8     6    2
     7     8    10    1
     8     6     7    1
     9    10    12    1
    10    10    11    2
    11     7     9    2
    12    12    14    1
    13    11     9    1
    14    11    13    1
    15    14    13    1
