@<TRIPOS>MOLECULE
/home/cewinharhar/GITHUB/reincatalyze/data/processed/docking_pred/2023-May-30-2130_sub9_nm5_bs15_s42_ex16_mel10_mts10000_k50_ec05_g099_lra3e-4_lrc3e-3/4a3a178b6a4326eb13634b12f3ce9c4ec26f8538_ligand_9.pdbqt
 14 15 0 0 0
SMALL
GASTEIGER

@<TRIPOS>ATOM
      1  C          5.7420    1.1550   -0.2810 C.3     1  UNL1        0.0800
      2  C          5.2440    1.1500    1.1230 C.2     1  UNL1        0.1300
      3  C          5.3310   -0.0650    1.9770 C.3     1  UNL1        0.0870
      4  O          4.7480    2.1500    1.6160 O.2     1  UNL1       -0.3000
      5  C          7.2480    0.9970   -0.3320 C.3     1  UNL1        0.0430
      6  C          7.6420   -0.2960   -0.9200 C.2     1  UNL1       -0.0440
      7  C          7.7350   -0.4740   -2.3050 C.2     1  UNL1        0.0080
      8  C          7.9300   -1.3600   -0.0960 C.2     1  UNL1        0.0540
      9  C          8.1100   -1.7100   -2.7990 C.2     1  UNL1        0.0510
     10  C          8.3100   -2.6080   -0.6000 C.2     1  UNL1        0.1660
     11  C          8.4000   -2.7840   -1.9630 C.2     1  UNL1        0.1650
     12  O          8.6420   -3.8030    0.0020 O.2     1  UNL1       -0.4540
     13  O          8.7910   -4.0980   -2.1720 O.2     1  UNL1       -0.4540
     14  C          9.0430   -4.7530   -0.9520 C.3     1  UNL1        0.4680
@<TRIPOS>BOND
     1     9     7    1
     2     9    11    2
     3     7     6    2
     4    13    11    1
     5    13    14    1
     6    11    10    1
     7    14    12    1
     8     6     5    1
     9     6     8    1
    10    10     8    2
    11    10    12    1
    12     5     1    1
    13     1     2    1
    14     2     4    2
    15     2     3    1
