MODEL 1
REMARK VINA RESULT:      -7.8      0.000      0.000
REMARK SMILES CC(=O)CCc1ccc2c(c1)OCO2
REMARK SMILES IDX 4 1 2 2 1 3 3 4 5 5 6 6 7 7 11 8 8 9 10 10 9 11 12 12 14 13
REMARK SMILES IDX 13 14
REMARK H PARENT
REMARK Flexibility Score: inf
ROOT
ATOM      1  C   UNL     1       5.510   1.922   1.246  1.00  0.00     0.080 C 
ENDROOT
BRANCH   1   2
ATOM      2  C   UNL     1       5.072   0.713   1.997  1.00  0.00     0.130 C 
ATOM      3  C   UNL     1       5.963  -0.466   2.167  1.00  0.00     0.087 C 
ATOM      4  O   UNL     1       3.960   0.654   2.496  1.00  0.00    -0.300 OA
ENDBRANCH   1   2
BRANCH   1   5
ATOM      5  C   UNL     1       5.386   1.716  -0.251  1.00  0.00     0.043 C 
BRANCH   5   6
ATOM      6  C   UNL     1       6.558   1.016  -0.806  1.00  0.00    -0.044 A 
ATOM      7  C   UNL     1       7.862   1.449  -0.544  1.00  0.00     0.008 A 
ATOM      8  C   UNL     1       6.376  -0.094  -1.600  1.00  0.00     0.054 A 
ATOM      9  C   UNL     1       8.924   0.751  -1.091  1.00  0.00     0.051 A 
ATOM     10  C   UNL     1       7.453  -0.796  -2.150  1.00  0.00     0.166 A 
ATOM     11  C   UNL     1       8.737  -0.370  -1.894  1.00  0.00     0.165 A 
ATOM     12  O   UNL     1       7.533  -1.910  -2.959  1.00  0.00    -0.454 OA
ATOM     13  O   UNL     1       9.588  -1.240  -2.557  1.00  0.00    -0.454 OA
ATOM     14  C   UNL     1       8.870  -2.285  -3.169  1.00  0.00     0.468 C 
ENDBRANCH   5   6
ENDBRANCH   1   5
TORSDOF 3
ENDMDL
MODEL 2
REMARK VINA RESULT:      -7.4      1.959      2.446
REMARK SMILES CC(=O)CCc1ccc2c(c1)OCO2
REMARK SMILES IDX 4 1 2 2 1 3 3 4 5 5 6 6 7 7 11 8 8 9 10 10 9 11 12 12 14 13
REMARK SMILES IDX 13 14
REMARK H PARENT
REMARK Flexibility Score: inf
ROOT
ATOM      1  C   UNL     1       5.742   1.155  -0.281  1.00  0.00     0.080 C 
ENDROOT
BRANCH   1   2
ATOM      2  C   UNL     1       5.244   1.150   1.123  1.00  0.00     0.130 C 
ATOM      3  C   UNL     1       5.331  -0.065   1.977  1.00  0.00     0.087 C 
ATOM      4  O   UNL     1       4.748   2.150   1.616  1.00  0.00    -0.300 OA
ENDBRANCH   1   2
BRANCH   1   5
ATOM      5  C   UNL     1       7.248   0.997  -0.332  1.00  0.00     0.043 C 
BRANCH   5   6
ATOM      6  C   UNL     1       7.642  -0.296  -0.920  1.00  0.00    -0.044 A 
ATOM      7  C   UNL     1       7.735  -0.474  -2.305  1.00  0.00     0.008 A 
ATOM      8  C   UNL     1       7.930  -1.360  -0.096  1.00  0.00     0.054 A 
ATOM      9  C   UNL     1       8.110  -1.710  -2.799  1.00  0.00     0.051 A 
ATOM     10  C   UNL     1       8.310  -2.608  -0.600  1.00  0.00     0.166 A 
ATOM     11  C   UNL     1       8.400  -2.784  -1.963  1.00  0.00     0.165 A 
ATOM     12  O   UNL     1       8.642  -3.803   0.002  1.00  0.00    -0.454 OA
ATOM     13  O   UNL     1       8.791  -4.098  -2.172  1.00  0.00    -0.454 OA
ATOM     14  C   UNL     1       9.043  -4.753  -0.952  1.00  0.00     0.468 C 
ENDBRANCH   5   6
ENDBRANCH   1   5
TORSDOF 3
ENDMDL
MODEL 3
REMARK VINA RESULT:      -7.2      2.093      2.625
REMARK SMILES CC(=O)CCc1ccc2c(c1)OCO2
REMARK SMILES IDX 4 1 2 2 1 3 3 4 5 5 6 6 7 7 11 8 8 9 10 10 9 11 12 12 14 13
REMARK SMILES IDX 13 14
REMARK H PARENT
REMARK Flexibility Score: inf
ROOT
ATOM      1  C   UNL     1       5.565   0.023   1.891  1.00  0.00     0.080 C 
ENDROOT
BRANCH   1   2
ATOM      2  C   UNL     1       4.675   1.180   1.594  1.00  0.00     0.130 C 
ATOM      3  C   UNL     1       4.985   2.144   0.505  1.00  0.00     0.087 C 
ATOM      4  O   UNL     1       3.659   1.372   2.243  1.00  0.00    -0.300 OA
ENDBRANCH   1   2
BRANCH   1   5
ATOM      5  C   UNL     1       6.977   0.275   1.402  1.00  0.00     0.043 C 
BRANCH   5   6
ATOM      6  C   UNL     1       7.383  -0.703   0.377  1.00  0.00    -0.044 A 
ATOM      7  C   UNL     1       7.271  -0.422  -0.990  1.00  0.00     0.008 A 
ATOM      8  C   UNL     1       7.889  -1.924   0.761  1.00  0.00     0.054 A 
ATOM      9  C   UNL     1       7.669  -1.378  -1.906  1.00  0.00     0.051 A 
ATOM     10  C   UNL     1       8.291  -2.887  -0.170  1.00  0.00     0.166 A 
ATOM     11  C   UNL     1       8.179  -2.612  -1.514  1.00  0.00     0.165 A 
ATOM     12  O   UNL     1       8.815  -4.155  -0.042  1.00  0.00    -0.454 OA
ATOM     13  O   UNL     1       8.644  -3.728  -2.192  1.00  0.00    -0.454 OA
ATOM     14  C   UNL     1       9.142  -4.695  -1.298  1.00  0.00     0.468 C 
ENDBRANCH   5   6
ENDBRANCH   1   5
TORSDOF 3
ENDMDL
MODEL 4
REMARK VINA RESULT:      -7.2      1.257      1.462
REMARK SMILES CC(=O)CCc1ccc2c(c1)OCO2
REMARK SMILES IDX 4 1 2 2 1 3 3 4 5 5 6 6 7 7 11 8 8 9 10 10 9 11 12 12 14 13
REMARK SMILES IDX 13 14
REMARK H PARENT
REMARK Flexibility Score: inf
ROOT
ATOM      1  C   UNL     1       6.397   1.215   0.934  1.00  0.00     0.080 C 
ENDROOT
BRANCH   1   2
ATOM      2  C   UNL     1       5.678   0.370   1.927  1.00  0.00     0.130 C 
ATOM      3  C   UNL     1       6.294  -0.856   2.501  1.00  0.00     0.087 C 
ATOM      4  O   UNL     1       4.553   0.662   2.300  1.00  0.00    -0.300 OA
ENDBRANCH   1   2
BRANCH   1   5
ATOM      5  C   UNL     1       5.894   0.960  -0.473  1.00  0.00     0.043 C 
BRANCH   5   6
ATOM      6  C   UNL     1       6.830   0.124  -1.245  1.00  0.00    -0.044 A 
ATOM      7  C   UNL     1       7.515   0.626  -2.358  1.00  0.00     0.008 A 
ATOM      8  C   UNL     1       7.046  -1.183  -0.871  1.00  0.00     0.054 A 
ATOM      9  C   UNL     1       8.382  -0.205  -3.044  1.00  0.00     0.051 A 
ATOM     10  C   UNL     1       7.924  -2.019  -1.567  1.00  0.00     0.166 A 
ATOM     11  C   UNL     1       8.597  -1.526  -2.662  1.00  0.00     0.165 A 
ATOM     12  O   UNL     1       8.303  -3.334  -1.397  1.00  0.00    -0.454 OA
ATOM     13  O   UNL     1       9.385  -2.559  -3.147  1.00  0.00    -0.454 OA
ATOM     14  C   UNL     1       9.298  -3.695  -2.320  1.00  0.00     0.468 C 
ENDBRANCH   5   6
ENDBRANCH   1   5
TORSDOF 3
ENDMDL
MODEL 5
REMARK VINA RESULT:      -6.9      1.186      5.176
REMARK SMILES CC(=O)CCc1ccc2c(c1)OCO2
REMARK SMILES IDX 4 1 2 2 1 3 3 4 5 5 6 6 7 7 11 8 8 9 10 10 9 11 12 12 14 13
REMARK SMILES IDX 13 14
REMARK H PARENT
REMARK Flexibility Score: inf
ROOT
ATOM      1  C   UNL     1       8.357   0.228  -2.592  1.00  0.00     0.080 C 
ENDROOT
BRANCH   1   2
ATOM      2  C   UNL     1       8.034  -1.222  -2.703  1.00  0.00     0.130 C 
ATOM      3  C   UNL     1       9.080  -2.234  -3.013  1.00  0.00     0.087 C 
ATOM      4  O   UNL     1       6.893  -1.624  -2.543  1.00  0.00    -0.300 OA
ENDBRANCH   1   2
BRANCH   1   5
ATOM      5  C   UNL     1       8.865   0.573  -1.206  1.00  0.00     0.043 C 
BRANCH   5   6
ATOM      6  C   UNL     1       7.810   0.435  -0.187  1.00  0.00    -0.044 A 
ATOM      7  C   UNL     1       7.890  -0.527   0.826  1.00  0.00     0.008 A 
ATOM      8  C   UNL     1       6.715   1.269  -0.221  1.00  0.00     0.054 A 
ATOM      9  C   UNL     1       6.870  -0.609   1.756  1.00  0.00     0.051 A 
ATOM     10  C   UNL     1       5.687   1.182   0.722  1.00  0.00     0.166 A 
ATOM     11  C   UNL     1       5.765   0.235   1.718  1.00  0.00     0.165 A 
ATOM     12  O   UNL     1       4.513   1.884   0.899  1.00  0.00    -0.454 OA
ATOM     13  O   UNL     1       4.626   0.377   2.496  1.00  0.00    -0.454 OA
ATOM     14  C   UNL     1       3.850   1.470   2.066  1.00  0.00     0.468 C 
ENDBRANCH   5   6
ENDBRANCH   1   5
TORSDOF 3
ENDMDL
