@<TRIPOS>MOLECULE
/home/cewinharhar/GITHUB/reincatalyze/data/processed/docking_pred/2023-May-30-2130_sub9_nm5_bs15_s42_ex16_mel10_mts10000_k50_ec05_g099_lra3e-4_lrc3e-3/4a90d25ec5fa32b29b4228be1320155ec4fb7054_ligand_9.pdbqt
 14 15 0 0 0
SMALL
GASTEIGER

@<TRIPOS>ATOM
      1  C          6.4020    1.2060    0.9320 C.3     1  UNL1        0.0800
      2  C          5.6660    0.3770    1.9260 C.2     1  UNL1        0.1300
      3  C          6.2600   -0.8570    2.5060 C.3     1  UNL1        0.0870
      4  O          4.5450    0.6890    2.2960 O.2     1  UNL1       -0.3000
      5  C          5.9010    0.9510   -0.4760 C.3     1  UNL1        0.0430
      6  C          6.8380    0.1110   -1.2450 C.2     1  UNL1       -0.0440
      7  C          7.5250    0.6100   -2.3580 C.2     1  UNL1        0.0080
      8  C          7.0510   -1.1950   -0.8670 C.2     1  UNL1        0.0540
      9  C          8.3920   -0.2240   -3.0400 C.2     1  UNL1        0.0510
     10  C          7.9290   -2.0340   -1.5600 C.2     1  UNL1        0.1660
     11  C          8.6050   -1.5440   -2.6560 C.2     1  UNL1        0.1650
     12  O          8.3070   -3.3480   -1.3860 O.2     1  UNL1       -0.4540
     13  O          9.3920   -2.5790   -3.1360 O.2     1  UNL1       -0.4540
     14  C          9.3020   -3.7130   -2.3070 C.3     1  UNL1        0.4680
@<TRIPOS>BOND
     1    13    11    1
     2    13    14    1
     3     9    11    2
     4     9     7    1
     5    11    10    1
     6     7     6    2
     7    14    12    1
     8    10    12    1
     9    10     8    2
    10     6     8    1
    11     6     5    1
    12     5     1    1
    13     1     2    1
    14     2     4    2
    15     2     3    1
