@<TRIPOS>MOLECULE
/home/cewinharhar/GITHUB/reincatalyze/data/processed/docking_pred/2023-May-30-2130_sub9_nm5_bs15_s42_ex16_mel10_mts10000_k50_ec05_g099_lra3e-4_lrc3e-3/4a90d25ec5fa32b29b4228be1320155ec4fb7054_ligand_9.pdbqt
 14 15 0 0 0
SMALL
GASTEIGER

@<TRIPOS>ATOM
      1  C          5.4580   -0.0060    1.9990 C.3     1  UNL1        0.0800
      2  C          4.5840    1.1720    1.7350 C.2     1  UNL1        0.1300
      3  C          4.8880    2.1410    0.6490 C.3     1  UNL1        0.0870
      4  O          3.5870    1.3750    2.4080 O.2     1  UNL1       -0.3000
      5  C          6.8810    0.2520    1.5450 C.3     1  UNL1        0.0430
      6  C          7.2960   -0.6880    0.4880 C.2     1  UNL1       -0.0440
      7  C          7.1680   -0.3690   -0.8680 C.2     1  UNL1        0.0080
      8  C          7.8270   -1.9100    0.8330 C.2     1  UNL1        0.0540
      9  C          7.5750   -1.2900   -1.8160 C.2     1  UNL1        0.0510
     10  C          8.2380   -2.8380   -0.1290 C.2     1  UNL1        0.1660
     11  C          8.1110   -2.5250   -1.4640 C.2     1  UNL1        0.1650
     12  O          8.7870   -4.0990   -0.0430 O.2     1  UNL1       -0.4540
     13  O          8.5900   -3.6130   -2.1780 O.2     1  UNL1       -0.4540
     14  C          9.1130   -4.5960   -1.3160 C.3     1  UNL1        0.4680
@<TRIPOS>BOND
     1    13    11    1
     2    13    14    1
     3     9    11    2
     4     9     7    1
     5    11    10    1
     6    14    12    1
     7     7     6    2
     8    10    12    1
     9    10     8    2
    10     6     8    1
    11     6     5    1
    12     3     2    1
    13     5     1    1
    14     2     1    1
    15     2     4    2
