@<TRIPOS>MOLECULE
/home/cewinharhar/GITHUB/reincatalyze/data/processed/docking_pred/2023-May-30-2130_sub9_nm5_bs15_s42_ex16_mel10_mts10000_k50_ec05_g099_lra3e-4_lrc3e-3/4a90d25ec5fa32b29b4228be1320155ec4fb7054_ligand_9.pdbqt
 14 15 0 0 0
SMALL
GASTEIGER

@<TRIPOS>ATOM
      1  C          5.6130    1.4330   -0.1950 C.3     1  UNL1        0.0800
      2  C          5.0280    1.2540    1.1630 C.2     1  UNL1        0.1300
      3  C          5.3680    0.0800    2.0110 C.3     1  UNL1        0.0870
      4  O          4.2460    2.0710    1.6210 O.2     1  UNL1       -0.3000
      5  C          7.1120    1.2140   -0.1820 C.3     1  UNL1        0.0430
      6  C          7.4820   -0.0760   -0.7910 C.2     1  UNL1       -0.0440
      7  C          7.4740   -0.2610   -2.1790 C.2     1  UNL1        0.0080
      8  C          7.8470   -1.1310    0.0140 C.2     1  UNL1        0.0540
      9  C          7.8300   -1.4940   -2.6940 C.2     1  UNL1        0.0510
     10  C          8.2070   -2.3760   -0.5120 C.2     1  UNL1        0.1660
     11  C          8.1980   -2.5580   -1.8770 C.2     1  UNL1        0.1650
     12  O          8.6010   -3.5630    0.0690 O.2     1  UNL1       -0.4540
     13  O          8.5930   -3.8670   -2.1090 O.2     1  UNL1       -0.4540
     14  C          8.9450   -4.5120   -0.9080 C.3     1  UNL1        0.4680
@<TRIPOS>BOND
     1     9     7    1
     2     9    11    2
     3     7     6    2
     4    13    11    1
     5    13    14    1
     6    11    10    1
     7    14    12    1
     8     6     5    1
     9     6     8    1
    10    10     8    2
    11    10    12    1
    12     1     5    1
    13     1     2    1
    14     2     4    2
    15     2     3    1
