MODEL 1
REMARK VINA RESULT:      -7.6      0.000      0.000
REMARK SMILES CC(=O)CCc1ccc2c(c1)OCO2
REMARK SMILES IDX 4 1 2 2 1 3 3 4 5 5 6 6 7 7 11 8 8 9 10 10 9 11 12 12 14 13
REMARK SMILES IDX 13 14
REMARK H PARENT
REMARK Flexibility Score: inf
ROOT
ATOM      1  C   UNL     1       5.551   1.912   1.276  1.00  0.00     0.080 C 
ENDROOT
BRANCH   1   2
ATOM      2  C   UNL     1       5.120   0.692   2.012  1.00  0.00     0.130 C 
ATOM      3  C   UNL     1       6.028  -0.472   2.194  1.00  0.00     0.087 C 
ATOM      4  O   UNL     1       4.000   0.611   2.490  1.00  0.00    -0.300 OA
ENDBRANCH   1   2
BRANCH   1   5
ATOM      5  C   UNL     1       5.418   1.727  -0.223  1.00  0.00     0.043 C 
BRANCH   5   6
ATOM      6  C   UNL     1       6.581   1.022  -0.791  1.00  0.00    -0.044 A 
ATOM      7  C   UNL     1       7.890   1.453  -0.548  1.00  0.00     0.008 A 
ATOM      8  C   UNL     1       6.386  -0.089  -1.580  1.00  0.00     0.054 A 
ATOM      9  C   UNL     1       8.942   0.751  -1.108  1.00  0.00     0.051 A 
ATOM     10  C   UNL     1       7.454  -0.796  -2.142  1.00  0.00     0.166 A 
ATOM     11  C   UNL     1       8.742  -0.372  -1.905  1.00  0.00     0.165 A 
ATOM     12  O   UNL     1       7.520  -1.912  -2.949  1.00  0.00    -0.454 OA
ATOM     13  O   UNL     1       9.582  -1.247  -2.576  1.00  0.00    -0.454 OA
ATOM     14  C   UNL     1       8.854  -2.291  -3.176  1.00  0.00     0.468 C 
ENDBRANCH   5   6
ENDBRANCH   1   5
TORSDOF 3
ENDMDL
MODEL 2
REMARK VINA RESULT:      -7.4      1.881      2.308
REMARK SMILES CC(=O)CCc1ccc2c(c1)OCO2
REMARK SMILES IDX 4 1 2 2 1 3 3 4 5 5 6 6 7 7 11 8 8 9 10 10 9 11 12 12 14 13
REMARK SMILES IDX 13 14
REMARK H PARENT
REMARK Flexibility Score: inf
ROOT
ATOM      1  C   UNL     1       5.613   1.433  -0.195  1.00  0.00     0.080 C 
ENDROOT
BRANCH   1   2
ATOM      2  C   UNL     1       5.028   1.254   1.163  1.00  0.00     0.130 C 
ATOM      3  C   UNL     1       5.368   0.080   2.011  1.00  0.00     0.087 C 
ATOM      4  O   UNL     1       4.246   2.071   1.621  1.00  0.00    -0.300 OA
ENDBRANCH   1   2
BRANCH   1   5
ATOM      5  C   UNL     1       7.112   1.214  -0.182  1.00  0.00     0.043 C 
BRANCH   5   6
ATOM      6  C   UNL     1       7.482  -0.076  -0.791  1.00  0.00    -0.044 A 
ATOM      7  C   UNL     1       7.474  -0.261  -2.179  1.00  0.00     0.008 A 
ATOM      8  C   UNL     1       7.847  -1.131   0.014  1.00  0.00     0.054 A 
ATOM      9  C   UNL     1       7.830  -1.494  -2.694  1.00  0.00     0.051 A 
ATOM     10  C   UNL     1       8.207  -2.376  -0.512  1.00  0.00     0.166 A 
ATOM     11  C   UNL     1       8.198  -2.558  -1.877  1.00  0.00     0.165 A 
ATOM     12  O   UNL     1       8.601  -3.563   0.069  1.00  0.00    -0.454 OA
ATOM     13  O   UNL     1       8.593  -3.867  -2.109  1.00  0.00    -0.454 OA
ATOM     14  C   UNL     1       8.945  -4.512  -0.908  1.00  0.00     0.468 C 
ENDBRANCH   5   6
ENDBRANCH   1   5
TORSDOF 3
ENDMDL
MODEL 3
REMARK VINA RESULT:      -7.2      2.043      2.602
REMARK SMILES CC(=O)CCc1ccc2c(c1)OCO2
REMARK SMILES IDX 4 1 2 2 1 3 3 4 5 5 6 6 7 7 11 8 8 9 10 10 9 11 12 12 14 13
REMARK SMILES IDX 13 14
REMARK H PARENT
REMARK Flexibility Score: inf
ROOT
ATOM      1  C   UNL     1       5.458  -0.006   1.999  1.00  0.00     0.080 C 
ENDROOT
BRANCH   1   2
ATOM      2  C   UNL     1       4.584   1.172   1.735  1.00  0.00     0.130 C 
ATOM      3  C   UNL     1       4.888   2.141   0.649  1.00  0.00     0.087 C 
ATOM      4  O   UNL     1       3.587   1.375   2.408  1.00  0.00    -0.300 OA
ENDBRANCH   1   2
BRANCH   1   5
ATOM      5  C   UNL     1       6.881   0.252   1.545  1.00  0.00     0.043 C 
BRANCH   5   6
ATOM      6  C   UNL     1       7.296  -0.688   0.488  1.00  0.00    -0.044 A 
ATOM      7  C   UNL     1       7.168  -0.369  -0.868  1.00  0.00     0.008 A 
ATOM      8  C   UNL     1       7.827  -1.910   0.833  1.00  0.00     0.054 A 
ATOM      9  C   UNL     1       7.575  -1.290  -1.816  1.00  0.00     0.051 A 
ATOM     10  C   UNL     1       8.238  -2.838  -0.129  1.00  0.00     0.166 A 
ATOM     11  C   UNL     1       8.111  -2.525  -1.464  1.00  0.00     0.165 A 
ATOM     12  O   UNL     1       8.787  -4.099  -0.043  1.00  0.00    -0.454 OA
ATOM     13  O   UNL     1       8.590  -3.613  -2.178  1.00  0.00    -0.454 OA
ATOM     14  C   UNL     1       9.113  -4.596  -1.316  1.00  0.00     0.468 C 
ENDBRANCH   5   6
ENDBRANCH   1   5
TORSDOF 3
ENDMDL
MODEL 4
REMARK VINA RESULT:      -7.1      1.252      1.463
REMARK SMILES CC(=O)CCc1ccc2c(c1)OCO2
REMARK SMILES IDX 4 1 2 2 1 3 3 4 5 5 6 6 7 7 11 8 8 9 10 10 9 11 12 12 14 13
REMARK SMILES IDX 13 14
REMARK H PARENT
REMARK Flexibility Score: inf
ROOT
ATOM      1  C   UNL     1       6.402   1.206   0.932  1.00  0.00     0.080 C 
ENDROOT
BRANCH   1   2
ATOM      2  C   UNL     1       5.666   0.377   1.926  1.00  0.00     0.130 C 
ATOM      3  C   UNL     1       6.260  -0.857   2.506  1.00  0.00     0.087 C 
ATOM      4  O   UNL     1       4.545   0.689   2.296  1.00  0.00    -0.300 OA
ENDBRANCH   1   2
BRANCH   1   5
ATOM      5  C   UNL     1       5.901   0.951  -0.476  1.00  0.00     0.043 C 
BRANCH   5   6
ATOM      6  C   UNL     1       6.838   0.111  -1.245  1.00  0.00    -0.044 A 
ATOM      7  C   UNL     1       7.525   0.610  -2.358  1.00  0.00     0.008 A 
ATOM      8  C   UNL     1       7.051  -1.195  -0.867  1.00  0.00     0.054 A 
ATOM      9  C   UNL     1       8.392  -0.224  -3.040  1.00  0.00     0.051 A 
ATOM     10  C   UNL     1       7.929  -2.034  -1.560  1.00  0.00     0.166 A 
ATOM     11  C   UNL     1       8.605  -1.544  -2.656  1.00  0.00     0.165 A 
ATOM     12  O   UNL     1       8.307  -3.348  -1.386  1.00  0.00    -0.454 OA
ATOM     13  O   UNL     1       9.392  -2.579  -3.136  1.00  0.00    -0.454 OA
ATOM     14  C   UNL     1       9.302  -3.713  -2.307  1.00  0.00     0.468 C 
ENDBRANCH   5   6
ENDBRANCH   1   5
TORSDOF 3
ENDMDL
MODEL 5
REMARK VINA RESULT:      -7.0      2.012      2.594
REMARK SMILES CC(=O)CCc1ccc2c(c1)OCO2
REMARK SMILES IDX 4 1 2 2 1 3 3 4 5 5 6 6 7 7 11 8 8 9 10 10 9 11 12 12 14 13
REMARK SMILES IDX 13 14
REMARK H PARENT
REMARK Flexibility Score: inf
ROOT
ATOM      1  C   UNL     1       6.723   0.517   1.299  1.00  0.00     0.080 C 
ENDROOT
BRANCH   1   2
ATOM      2  C   UNL     1       5.366   1.116   1.436  1.00  0.00     0.130 C 
ATOM      3  C   UNL     1       4.870   2.150   0.489  1.00  0.00     0.087 C 
ATOM      4  O   UNL     1       4.617   0.772   2.336  1.00  0.00    -0.300 OA
ENDBRANCH   1   2
BRANCH   1   5
ATOM      5  C   UNL     1       7.307   0.784  -0.074  1.00  0.00     0.043 C 
BRANCH   5   6
ATOM      6  C   UNL     1       7.735  -0.461  -0.737  1.00  0.00    -0.044 A 
ATOM      7  C   UNL     1       7.957  -0.517  -2.118  1.00  0.00     0.008 A 
ATOM      8  C   UNL     1       7.925  -1.601   0.010  1.00  0.00     0.054 A 
ATOM      9  C   UNL     1       8.358  -1.713  -2.685  1.00  0.00     0.051 A 
ATOM     10  C   UNL     1       8.332  -2.808  -0.568  1.00  0.00     0.166 A 
ATOM     11  C   UNL     1       8.550  -2.864  -1.927  1.00  0.00     0.165 A 
ATOM     12  O   UNL     1       8.585  -4.060  -0.050  1.00  0.00    -0.454 OA
ATOM     13  O   UNL     1       8.938  -4.163  -2.217  1.00  0.00    -0.454 OA
ATOM     14  C   UNL     1       9.061  -4.930  -1.044  1.00  0.00     0.468 C 
ENDBRANCH   5   6
ENDBRANCH   1   5
TORSDOF 3
ENDMDL
