@<TRIPOS>MOLECULE
/home/cewinharhar/GITHUB/reincatalyze/data/processed/docking_pred/2023-May-30-2130_sub9_nm5_bs15_s42_ex16_mel10_mts10000_k50_ec05_g099_lra3e-4_lrc3e-3/4a90d25ec5fa32b29b4228be1320155ec4fb7054_ligand_9.pdbqt
 14 15 0 0 0
SMALL
GASTEIGER

@<TRIPOS>ATOM
      1  C          6.7230    0.5170    1.2990 C.3     1  UNL1        0.0800
      2  C          5.3660    1.1160    1.4360 C.2     1  UNL1        0.1300
      3  C          4.8700    2.1500    0.4890 C.3     1  UNL1        0.0870
      4  O          4.6170    0.7720    2.3360 O.2     1  UNL1       -0.3000
      5  C          7.3070    0.7840   -0.0740 C.3     1  UNL1        0.0430
      6  C          7.7350   -0.4610   -0.7370 C.2     1  UNL1       -0.0440
      7  C          7.9570   -0.5170   -2.1180 C.2     1  UNL1        0.0080
      8  C          7.9250   -1.6010    0.0100 C.2     1  UNL1        0.0540
      9  C          8.3580   -1.7130   -2.6850 C.2     1  UNL1        0.0510
     10  C          8.3320   -2.8080   -0.5680 C.2     1  UNL1        0.1660
     11  C          8.5500   -2.8640   -1.9270 C.2     1  UNL1        0.1650
     12  O          8.5850   -4.0600   -0.0500 O.2     1  UNL1       -0.4540
     13  O          8.9380   -4.1630   -2.2170 O.2     1  UNL1       -0.4540
     14  C          9.0610   -4.9300   -1.0440 C.3     1  UNL1        0.4680
@<TRIPOS>BOND
     1     9     7    1
     2     9    11    2
     3    13    11    1
     4    13    14    1
     5     7     6    2
     6    11    10    1
     7    14    12    1
     8     6     5    1
     9     6     8    1
    10    10    12    1
    11    10     8    2
    12     5     1    1
    13     3     2    1
    14     1     2    1
    15     2     4    2
