MODEL 1
REMARK VINA RESULT:      -7.7      0.000      0.000
REMARK SMILES CC(=O)CCc1ccc2c(c1)OCO2
REMARK SMILES IDX 4 1 2 2 1 3 3 4 5 5 6 6 7 7 11 8 8 9 10 10 9 11 12 12 14 13
REMARK SMILES IDX 13 14
REMARK H PARENT
REMARK Flexibility Score: inf
ROOT
ATOM      1  C   UNL     1       5.496   1.929   1.252  1.00  0.00     0.080 C 
ENDROOT
BRANCH   1   2
ATOM      2  C   UNL     1       5.050   0.716   1.993  1.00  0.00     0.130 C 
ATOM      3  C   UNL     1       5.925  -0.477   2.137  1.00  0.00     0.087 C 
ATOM      4  O   UNL     1       3.944   0.668   2.507  1.00  0.00    -0.300 OA
ENDBRANCH   1   2
BRANCH   1   5
ATOM      5  C   UNL     1       5.378   1.732  -0.247  1.00  0.00     0.043 C 
BRANCH   5   6
ATOM      6  C   UNL     1       6.550   1.032  -0.801  1.00  0.00    -0.044 A 
ATOM      7  C   UNL     1       7.855   1.466  -0.537  1.00  0.00     0.008 A 
ATOM      8  C   UNL     1       6.370  -0.077  -1.595  1.00  0.00     0.054 A 
ATOM      9  C   UNL     1       8.917   0.769  -1.084  1.00  0.00     0.051 A 
ATOM     10  C   UNL     1       7.448  -0.778  -2.145  1.00  0.00     0.166 A 
ATOM     11  C   UNL     1       8.731  -0.352  -1.888  1.00  0.00     0.165 A 
ATOM     12  O   UNL     1       7.529  -1.892  -2.954  1.00  0.00    -0.454 OA
ATOM     13  O   UNL     1       9.583  -1.221  -2.550  1.00  0.00    -0.454 OA
ATOM     14  C   UNL     1       8.867  -2.266  -3.164  1.00  0.00     0.468 C 
ENDBRANCH   5   6
ENDBRANCH   1   5
TORSDOF 3
ENDMDL
MODEL 2
REMARK VINA RESULT:      -7.4      1.936      2.440
REMARK SMILES CC(=O)CCc1ccc2c(c1)OCO2
REMARK SMILES IDX 4 1 2 2 1 3 3 4 5 5 6 6 7 7 11 8 8 9 10 10 9 11 12 12 14 13
REMARK SMILES IDX 13 14
REMARK H PARENT
REMARK Flexibility Score: inf
ROOT
ATOM      1  C   UNL     1       5.749   1.167  -0.317  1.00  0.00     0.080 C 
ENDROOT
BRANCH   1   2
ATOM      2  C   UNL     1       5.293   1.176   1.101  1.00  0.00     0.130 C 
ATOM      3  C   UNL     1       5.503   0.006   1.996  1.00  0.00     0.087 C 
ATOM      4  O   UNL     1       4.729   2.150   1.572  1.00  0.00    -0.300 OA
ENDBRANCH   1   2
BRANCH   1   5
ATOM      5  C   UNL     1       7.256   1.035  -0.410  1.00  0.00     0.043 C 
BRANCH   5   6
ATOM      6  C   UNL     1       7.657  -0.263  -0.982  1.00  0.00    -0.044 A 
ATOM      7  C   UNL     1       7.772  -0.450  -2.364  1.00  0.00     0.008 A 
ATOM      8  C   UNL     1       7.929  -1.322  -0.147  1.00  0.00     0.054 A 
ATOM      9  C   UNL     1       8.152  -1.690  -2.844  1.00  0.00     0.051 A 
ATOM     10  C   UNL     1       8.315  -2.573  -0.637  1.00  0.00     0.166 A 
ATOM     11  C   UNL     1       8.427  -2.759  -1.997  1.00  0.00     0.165 A 
ATOM     12  O   UNL     1       8.635  -3.765  -0.022  1.00  0.00    -0.454 OA
ATOM     13  O   UNL     1       8.818  -4.074  -2.191  1.00  0.00    -0.454 OA
ATOM     14  C   UNL     1       9.049  -4.722  -0.963  1.00  0.00     0.468 C 
ENDBRANCH   5   6
ENDBRANCH   1   5
TORSDOF 3
ENDMDL
MODEL 3
REMARK VINA RESULT:      -7.2      2.065      2.633
REMARK SMILES CC(=O)CCc1ccc2c(c1)OCO2
REMARK SMILES IDX 4 1 2 2 1 3 3 4 5 5 6 6 7 7 11 8 8 9 10 10 9 11 12 12 14 13
REMARK SMILES IDX 13 14
REMARK H PARENT
REMARK Flexibility Score: inf
ROOT
ATOM      1  C   UNL     1       5.432  -0.043   2.000  1.00  0.00     0.080 C 
ENDROOT
BRANCH   1   2
ATOM      2  C   UNL     1       4.578   1.154   1.759  1.00  0.00     0.130 C 
ATOM      3  C   UNL     1       4.898   2.139   0.691  1.00  0.00     0.087 C 
ATOM      4  O   UNL     1       3.584   1.361   2.436  1.00  0.00    -0.300 OA
ENDBRANCH   1   2
BRANCH   1   5
ATOM      5  C   UNL     1       6.864   0.208   1.570  1.00  0.00     0.043 C 
BRANCH   5   6
ATOM      6  C   UNL     1       7.289  -0.728   0.513  1.00  0.00    -0.044 A 
ATOM      7  C   UNL     1       7.162  -0.408  -0.843  1.00  0.00     0.008 A 
ATOM      8  C   UNL     1       7.827  -1.947   0.858  1.00  0.00     0.054 A 
ATOM      9  C   UNL     1       7.579  -1.325  -1.791  1.00  0.00     0.051 A 
ATOM     10  C   UNL     1       8.247  -2.871  -0.104  1.00  0.00     0.166 A 
ATOM     11  C   UNL     1       8.122  -2.557  -1.439  1.00  0.00     0.165 A 
ATOM     12  O   UNL     1       8.805  -4.129  -0.018  1.00  0.00    -0.454 OA
ATOM     13  O   UNL     1       8.611  -3.640  -2.153  1.00  0.00    -0.454 OA
ATOM     14  C   UNL     1       9.137  -4.621  -1.291  1.00  0.00     0.468 C 
ENDBRANCH   5   6
ENDBRANCH   1   5
TORSDOF 3
ENDMDL
MODEL 4
REMARK VINA RESULT:      -7.1      1.264      1.483
REMARK SMILES CC(=O)CCc1ccc2c(c1)OCO2
REMARK SMILES IDX 4 1 2 2 1 3 3 4 5 5 6 6 7 7 11 8 8 9 10 10 9 11 12 12 14 13
REMARK SMILES IDX 13 14
REMARK H PARENT
REMARK Flexibility Score: inf
ROOT
ATOM      1  C   UNL     1       6.381   1.173   0.947  1.00  0.00     0.080 C 
ENDROOT
BRANCH   1   2
ATOM      2  C   UNL     1       5.659   0.348   1.956  1.00  0.00     0.130 C 
ATOM      3  C   UNL     1       6.260  -0.885   2.531  1.00  0.00     0.087 C 
ATOM      4  O   UNL     1       4.546   0.664   2.342  1.00  0.00    -0.300 OA
ENDBRANCH   1   2
BRANCH   1   5
ATOM      5  C   UNL     1       5.867   0.903  -0.453  1.00  0.00     0.043 C 
BRANCH   5   6
ATOM      6  C   UNL     1       6.812   0.086  -1.235  1.00  0.00    -0.044 A 
ATOM      7  C   UNL     1       7.485   0.606  -2.347  1.00  0.00     0.008 A 
ATOM      8  C   UNL     1       7.049  -1.220  -0.870  1.00  0.00     0.054 A 
ATOM      9  C   UNL     1       8.362  -0.207  -3.041  1.00  0.00     0.051 A 
ATOM     10  C   UNL     1       7.936  -2.038  -1.575  1.00  0.00     0.166 A 
ATOM     11  C   UNL     1       8.598  -1.527  -2.670  1.00  0.00     0.165 A 
ATOM     12  O   UNL     1       8.336  -3.348  -1.416  1.00  0.00    -0.454 OA
ATOM     13  O   UNL     1       9.399  -2.545  -3.165  1.00  0.00    -0.454 OA
ATOM     14  C   UNL     1       9.332  -3.688  -2.346  1.00  0.00     0.468 C 
ENDBRANCH   5   6
ENDBRANCH   1   5
TORSDOF 3
ENDMDL
MODEL 5
REMARK VINA RESULT:      -7.1      1.990      2.563
REMARK SMILES CC(=O)CCc1ccc2c(c1)OCO2
REMARK SMILES IDX 4 1 2 2 1 3 3 4 5 5 6 6 7 7 11 8 8 9 10 10 9 11 12 12 14 13
REMARK SMILES IDX 13 14
REMARK H PARENT
REMARK Flexibility Score: inf
ROOT
ATOM      1  C   UNL     1       6.747   0.714   1.353  1.00  0.00     0.080 C 
ENDROOT
BRANCH   1   2
ATOM      2  C   UNL     1       5.318   1.126   1.422  1.00  0.00     0.130 C 
ATOM      3  C   UNL     1       4.754   2.148   0.499  1.00  0.00     0.087 C 
ATOM      4  O   UNL     1       4.563   0.634   2.245  1.00  0.00    -0.300 OA
ENDBRANCH   1   2
BRANCH   1   5
ATOM      5  C   UNL     1       7.320   0.942  -0.032  1.00  0.00     0.043 C 
BRANCH   5   6
ATOM      6  C   UNL     1       7.649  -0.328  -0.703  1.00  0.00    -0.044 A 
ATOM      7  C   UNL     1       7.652  -0.440  -2.099  1.00  0.00     0.008 A 
ATOM      8  C   UNL     1       7.965  -1.436   0.049  1.00  0.00     0.054 A 
ATOM      9  C   UNL     1       7.969  -1.657  -2.673  1.00  0.00     0.051 A 
ATOM     10  C   UNL     1       8.286  -2.664  -0.536  1.00  0.00     0.166 A 
ATOM     11  C   UNL     1       8.288  -2.775  -1.909  1.00  0.00     0.165 A 
ATOM     12  O   UNL     1       8.630  -3.893  -0.014  1.00  0.00    -0.454 OA
ATOM     13  O   UNL     1       8.637  -4.084  -2.204  1.00  0.00    -0.454 OA
ATOM     14  C   UNL     1       8.951  -4.802  -1.035  1.00  0.00     0.468 C 
ENDBRANCH   5   6
ENDBRANCH   1   5
TORSDOF 3
ENDMDL
