@<TRIPOS>MOLECULE
/home/cewinharhar/GITHUB/reincatalyze/data/processed/docking_pred/2023-May-30-2130_sub9_nm5_bs15_s42_ex16_mel10_mts10000_k50_ec05_g099_lra3e-4_lrc3e-3/4bd4f81152b1bdf0b1c74c36e0a7b56f2e48fda8_ligand_9.pdbqt
 14 15 0 0 0
SMALL
GASTEIGER

@<TRIPOS>ATOM
      1  C          6.3810    1.1730    0.9470 C.3     1  UNL1        0.0800
      2  C          5.6590    0.3480    1.9560 C.2     1  UNL1        0.1300
      3  C          6.2600   -0.8850    2.5310 C.3     1  UNL1        0.0870
      4  O          4.5460    0.6640    2.3420 O.2     1  UNL1       -0.3000
      5  C          5.8670    0.9030   -0.4530 C.3     1  UNL1        0.0430
      6  C          6.8120    0.0860   -1.2350 C.2     1  UNL1       -0.0440
      7  C          7.4850    0.6060   -2.3470 C.2     1  UNL1        0.0080
      8  C          7.0490   -1.2200   -0.8700 C.2     1  UNL1        0.0540
      9  C          8.3620   -0.2070   -3.0410 C.2     1  UNL1        0.0510
     10  C          7.9360   -2.0380   -1.5750 C.2     1  UNL1        0.1660
     11  C          8.5980   -1.5270   -2.6700 C.2     1  UNL1        0.1650
     12  O          8.3360   -3.3480   -1.4160 O.2     1  UNL1       -0.4540
     13  O          9.3990   -2.5450   -3.1650 O.2     1  UNL1       -0.4540
     14  C          9.3320   -3.6880   -2.3460 C.3     1  UNL1        0.4680
@<TRIPOS>BOND
     1    13    11    1
     2    13    14    1
     3     9    11    2
     4     9     7    1
     5    11    10    1
     6     7     6    2
     7    14    12    1
     8    10    12    1
     9    10     8    2
    10     6     8    1
    11     6     5    1
    12     5     1    1
    13     1     2    1
    14     2     4    2
    15     2     3    1
