@<TRIPOS>MOLECULE
/home/cewinharhar/GITHUB/reincatalyze/data/processed/docking_pred/2023-May-30-2130_sub9_nm5_bs15_s42_ex16_mel10_mts10000_k50_ec05_g099_lra3e-4_lrc3e-3/4bd4f81152b1bdf0b1c74c36e0a7b56f2e48fda8_ligand_9.pdbqt
 14 15 0 0 0
SMALL
GASTEIGER

@<TRIPOS>ATOM
      1  C          6.7470    0.7140    1.3530 C.3     1  UNL1        0.0800
      2  C          5.3180    1.1260    1.4220 C.2     1  UNL1        0.1300
      3  C          4.7540    2.1480    0.4990 C.3     1  UNL1        0.0870
      4  O          4.5630    0.6340    2.2450 O.2     1  UNL1       -0.3000
      5  C          7.3200    0.9420   -0.0320 C.3     1  UNL1        0.0430
      6  C          7.6490   -0.3280   -0.7030 C.2     1  UNL1       -0.0440
      7  C          7.6520   -0.4400   -2.0990 C.2     1  UNL1        0.0080
      8  C          7.9650   -1.4360    0.0490 C.2     1  UNL1        0.0540
      9  C          7.9690   -1.6570   -2.6730 C.2     1  UNL1        0.0510
     10  C          8.2860   -2.6640   -0.5360 C.2     1  UNL1        0.1660
     11  C          8.2880   -2.7750   -1.9090 C.2     1  UNL1        0.1650
     12  O          8.6300   -3.8930   -0.0140 O.2     1  UNL1       -0.4540
     13  O          8.6370   -4.0840   -2.2040 O.2     1  UNL1       -0.4540
     14  C          8.9510   -4.8020   -1.0350 C.3     1  UNL1        0.4680
@<TRIPOS>BOND
     1     9     7    1
     2     9    11    2
     3    13    11    1
     4    13    14    1
     5     7     6    2
     6    11    10    1
     7    14    12    1
     8     6     5    1
     9     6     8    1
    10    10    12    1
    11    10     8    2
    12     5     1    1
    13     3     2    1
    14     1     2    1
    15     2     4    2
