@<TRIPOS>MOLECULE
/home/cewinharhar/GITHUB/reincatalyze/data/processed/docking_pred/2023-May-30-2130_sub9_nm5_bs15_s42_ex16_mel10_mts10000_k50_ec05_g099_lra3e-4_lrc3e-3/4bd4f81152b1bdf0b1c74c36e0a7b56f2e48fda8_ligand_9.pdbqt
 14 15 0 0 0
SMALL
GASTEIGER

@<TRIPOS>ATOM
      1  C          5.4320   -0.0430    2.0000 C.3     1  UNL1        0.0800
      2  C          4.5780    1.1540    1.7590 C.2     1  UNL1        0.1300
      3  C          4.8980    2.1390    0.6910 C.3     1  UNL1        0.0870
      4  O          3.5840    1.3610    2.4360 O.2     1  UNL1       -0.3000
      5  C          6.8640    0.2080    1.5700 C.3     1  UNL1        0.0430
      6  C          7.2890   -0.7280    0.5130 C.2     1  UNL1       -0.0440
      7  C          7.1620   -0.4080   -0.8430 C.2     1  UNL1        0.0080
      8  C          7.8270   -1.9470    0.8580 C.2     1  UNL1        0.0540
      9  C          7.5790   -1.3250   -1.7910 C.2     1  UNL1        0.0510
     10  C          8.2470   -2.8710   -0.1040 C.2     1  UNL1        0.1660
     11  C          8.1220   -2.5570   -1.4390 C.2     1  UNL1        0.1650
     12  O          8.8050   -4.1290   -0.0180 O.2     1  UNL1       -0.4540
     13  O          8.6110   -3.6400   -2.1530 O.2     1  UNL1       -0.4540
     14  C          9.1370   -4.6210   -1.2910 C.3     1  UNL1        0.4680
@<TRIPOS>BOND
     1    13    11    1
     2    13    14    1
     3     9    11    2
     4     9     7    1
     5    11    10    1
     6    14    12    1
     7     7     6    2
     8    10    12    1
     9    10     8    2
    10     6     8    1
    11     6     5    1
    12     3     2    1
    13     5     1    1
    14     2     1    1
    15     2     4    2
