@<TRIPOS>MOLECULE
/home/cewinharhar/GITHUB/reincatalyze/data/processed/docking_pred/2023-May-30-2130_sub9_nm5_bs15_s42_ex16_mel10_mts10000_k50_ec05_g099_lra3e-4_lrc3e-3/4bd4f81152b1bdf0b1c74c36e0a7b56f2e48fda8_ligand_9.pdbqt
 14 15 0 0 0
SMALL
GASTEIGER

@<TRIPOS>ATOM
      1  C          5.4960    1.9290    1.2520 C.3     1  UNL1        0.0800
      2  C          5.0500    0.7160    1.9930 C.2     1  UNL1        0.1300
      3  C          5.9250   -0.4770    2.1370 C.3     1  UNL1        0.0870
      4  O          3.9440    0.6680    2.5070 O.2     1  UNL1       -0.3000
      5  C          5.3780    1.7320   -0.2470 C.3     1  UNL1        0.0430
      6  C          6.5500    1.0320   -0.8010 C.2     1  UNL1       -0.0440
      7  C          7.8550    1.4660   -0.5370 C.2     1  UNL1        0.0080
      8  C          6.3700   -0.0770   -1.5950 C.2     1  UNL1        0.0540
      9  C          8.9170    0.7690   -1.0840 C.2     1  UNL1        0.0510
     10  C          7.4480   -0.7780   -2.1450 C.2     1  UNL1        0.1660
     11  C          8.7310   -0.3520   -1.8880 C.2     1  UNL1        0.1650
     12  O          7.5290   -1.8920   -2.9540 O.2     1  UNL1       -0.4540
     13  O          9.5830   -1.2210   -2.5500 O.2     1  UNL1       -0.4540
     14  C          8.8670   -2.2660   -3.1640 C.3     1  UNL1        0.4680
@<TRIPOS>BOND
     1    14    12    1
     2    14    13    1
     3    12    10    1
     4    13    11    1
     5    10    11    2
     6    10     8    1
     7    11     9    1
     8     8     6    2
     9     9     7    2
    10     6     7    1
    11     6     5    1
    12     5     1    1
    13     1     2    1
    14     2     3    1
    15     2     4    2
