@<TRIPOS>MOLECULE
/home/cewinharhar/GITHUB/reincatalyze/data/processed/docking_pred/2023-May-30-2130_sub9_nm5_bs15_s42_ex16_mel10_mts10000_k50_ec05_g099_lra3e-4_lrc3e-3/4c3a486d5bbb1ad3c8ce5b6da142191fd088767a_ligand_9.pdbqt
 14 15 0 0 0
SMALL
GASTEIGER

@<TRIPOS>ATOM
      1  C          5.5610    1.9170    1.2750 C.3     1  UNL1        0.0800
      2  C          5.1270    0.7040    2.0230 C.2     1  UNL1        0.1300
      3  C          6.0310   -0.4630    2.2080 C.3     1  UNL1        0.0870
      4  O          4.0100    0.6330    2.5080 O.2     1  UNL1       -0.3000
      5  C          5.4210    1.7210   -0.2220 C.3     1  UNL1        0.0430
      6  C          6.5860    1.0190   -0.7910 C.2     1  UNL1       -0.0440
      7  C          7.8940    1.4530   -0.5490 C.2     1  UNL1        0.0080
      8  C          6.3930   -0.0930   -1.5790 C.2     1  UNL1        0.0540
      9  C          8.9470    0.7530   -1.1090 C.2     1  UNL1        0.0510
     10  C          7.4620   -0.7970   -2.1430 C.2     1  UNL1        0.1660
     11  C          8.7490   -0.3700   -1.9060 C.2     1  UNL1        0.1650
     12  O          7.5310   -1.9130   -2.9490 O.2     1  UNL1       -0.4540
     13  O          9.5910   -1.2420   -2.5780 O.2     1  UNL1       -0.4540
     14  C          8.8650   -2.2890   -3.1780 C.3     1  UNL1        0.4680
@<TRIPOS>BOND
     1    14    12    1
     2    14    13    1
     3    12    10    1
     4    13    11    1
     5    10    11    2
     6    10     8    1
     7    11     9    1
     8     8     6    2
     9     9     7    2
    10     6     7    1
    11     6     5    1
    12     5     1    1
    13     1     2    1
    14     2     3    1
    15     2     4    2
