@<TRIPOS>MOLECULE
/home/cewinharhar/GITHUB/reincatalyze/data/processed/docking_pred/2023-May-30-2130_sub9_nm5_bs15_s42_ex16_mel10_mts10000_k50_ec05_g099_lra3e-4_lrc3e-3/4c3a486d5bbb1ad3c8ce5b6da142191fd088767a_ligand_9.pdbqt
 14 15 0 0 0
SMALL
GASTEIGER

@<TRIPOS>ATOM
      1  C          8.3060    0.1650   -2.7440 C.3     1  UNL1        0.0800
      2  C          8.0530   -1.3010   -2.8060 C.2     1  UNL1        0.1300
      3  C          9.1560   -2.2750   -3.0260 C.3     1  UNL1        0.0870
      4  O          6.9250   -1.7490   -2.6780 O.2     1  UNL1       -0.3000
      5  C          8.8510    0.5730   -1.3900 C.3     1  UNL1        0.0430
      6  C          7.8390    0.4280   -0.3280 C.2     1  UNL1       -0.0440
      7  C          7.9770   -0.5220    0.6910 C.2     1  UNL1        0.0080
      8  C          6.7300    1.2420   -0.3260 C.2     1  UNL1        0.0540
      9  C          6.9960   -0.6120    1.6620 C.2     1  UNL1        0.0510
     10  C          5.7410    1.1480    0.6580 C.2     1  UNL1        0.1660
     11  C          5.8760    0.2130    1.6600 C.2     1  UNL1        0.1650
     12  O          4.5630    1.8310    0.8750 O.2     1  UNL1       -0.4540
     13  O          4.7670    0.3430    2.4810 O.2     1  UNL1       -0.4540
     14  C          3.9540    1.4170    2.0720 C.3     1  UNL1        0.4680
@<TRIPOS>BOND
     1     3     2    1
     2     2     1    1
     3     2     4    2
     4     1     5    1
     5     5     6    1
     6     6     8    2
     7     6     7    1
     8     8    10    1
     9    10    12    1
    10    10    11    2
    11     7     9    2
    12    12    14    1
    13    11     9    1
    14    11    13    1
    15    14    13    1
