@<TRIPOS>MOLECULE
/home/cewinharhar/GITHUB/reincatalyze/data/processed/docking_pred/2023-May-30-2130_sub9_nm5_bs15_s42_ex16_mel10_mts10000_k50_ec05_g099_lra3e-4_lrc3e-3/4c3a486d5bbb1ad3c8ce5b6da142191fd088767a_ligand_9.pdbqt
 14 15 0 0 0
SMALL
GASTEIGER

@<TRIPOS>ATOM
      1  C          5.8050    1.4560   -0.3130 C.3     1  UNL1        0.0800
      2  C          5.1330    1.3340    1.0100 C.2     1  UNL1        0.1300
      3  C          5.4460    0.2200    1.9450 C.3     1  UNL1        0.0870
      4  O          4.2990    2.1500    1.3670 O.2     1  UNL1       -0.3000
      5  C          7.2890    1.1650   -0.2060 C.3     1  UNL1        0.0430
      6  C          7.6410   -0.1200   -0.8370 C.2     1  UNL1       -0.0440
      7  C          7.6740   -0.2680   -2.2290 C.2     1  UNL1        0.0080
      8  C          7.9480   -1.2060   -0.0490 C.2     1  UNL1        0.0540
      9  C          8.0120   -1.4980   -2.7650 C.2     1  UNL1        0.0510
     10  C          8.2890   -2.4460   -0.5960 C.2     1  UNL1        0.1660
     11  C          8.3210   -2.5930   -1.9650 C.2     1  UNL1        0.1650
     12  O          8.6290   -3.6590   -0.0350 O.2     1  UNL1       -0.4540
     13  O          8.6850   -3.9070   -2.2180 O.2     1  UNL1       -0.4540
     14  C          8.9780   -4.5920   -1.0240 C.3     1  UNL1        0.4680
@<TRIPOS>BOND
     1     9     7    1
     2     9    11    2
     3     7     6    2
     4    13    11    1
     5    13    14    1
     6    11    10    1
     7    14    12    1
     8     6     5    1
     9     6     8    1
    10    10     8    2
    11    10    12    1
    12     1     5    1
    13     1     2    1
    14     2     4    2
    15     2     3    1
