MODEL 1
REMARK VINA RESULT:      -7.6      0.000      0.000
REMARK SMILES CC(=O)CCc1ccc2c(c1)OCO2
REMARK SMILES IDX 4 1 2 2 1 3 3 4 5 5 6 6 7 7 11 8 8 9 10 10 9 11 12 12 14 13
REMARK SMILES IDX 13 14
REMARK H PARENT
REMARK Flexibility Score: inf
ROOT
ATOM      1  C   UNL     1       5.545   1.916   1.275  1.00  0.00     0.080 C 
ENDROOT
BRANCH   1   2
ATOM      2  C   UNL     1       5.106   0.697   2.009  1.00  0.00     0.130 C 
ATOM      3  C   UNL     1       6.007  -0.473   2.188  1.00  0.00     0.087 C 
ATOM      4  O   UNL     1       3.986   0.623   2.489  1.00  0.00    -0.300 OA
ENDBRANCH   1   2
BRANCH   1   5
ATOM      5  C   UNL     1       5.415   1.732  -0.224  1.00  0.00     0.043 C 
BRANCH   5   6
ATOM      6  C   UNL     1       6.579   1.028  -0.791  1.00  0.00    -0.044 A 
ATOM      7  C   UNL     1       7.888   1.458  -0.543  1.00  0.00     0.008 A 
ATOM      8  C   UNL     1       6.387  -0.082  -1.582  1.00  0.00     0.054 A 
ATOM      9  C   UNL     1       8.942   0.757  -1.101  1.00  0.00     0.051 A 
ATOM     10  C   UNL     1       7.455  -0.787  -2.143  1.00  0.00     0.166 A 
ATOM     11  C   UNL     1       8.743  -0.364  -1.901  1.00  0.00     0.165 A 
ATOM     12  O   UNL     1       7.524  -1.902  -2.952  1.00  0.00    -0.454 OA
ATOM     13  O   UNL     1       9.585  -1.238  -2.572  1.00  0.00    -0.454 OA
ATOM     14  C   UNL     1       8.858  -2.281  -3.176  1.00  0.00     0.468 C 
ENDBRANCH   5   6
ENDBRANCH   1   5
TORSDOF 3
ENDMDL
MODEL 2
REMARK VINA RESULT:      -7.5      1.917      2.382
REMARK SMILES CC(=O)CCc1ccc2c(c1)OCO2
REMARK SMILES IDX 4 1 2 2 1 3 3 4 5 5 6 6 7 7 11 8 8 9 10 10 9 11 12 12 14 13
REMARK SMILES IDX 13 14
REMARK H PARENT
REMARK Flexibility Score: inf
ROOT
ATOM      1  C   UNL     1       5.695   1.267  -0.307  1.00  0.00     0.080 C 
ENDROOT
BRANCH   1   2
ATOM      2  C   UNL     1       5.131   1.237   1.072  1.00  0.00     0.130 C 
ATOM      3  C   UNL     1       5.391   0.101   1.996  1.00  0.00     0.087 C 
ATOM      4  O   UNL     1       4.435   2.150   1.484  1.00  0.00    -0.300 OA
ENDBRANCH   1   2
BRANCH   1   5
ATOM      5  C   UNL     1       7.199   1.078  -0.291  1.00  0.00     0.043 C 
BRANCH   5   6
ATOM      6  C   UNL     1       7.594  -0.206  -0.896  1.00  0.00    -0.044 A 
ATOM      7  C   UNL     1       7.692  -0.364  -2.283  1.00  0.00     0.008 A 
ATOM      8  C   UNL     1       7.880  -1.282  -0.087  1.00  0.00     0.054 A 
ATOM      9  C   UNL     1       8.069  -1.592  -2.794  1.00  0.00     0.051 A 
ATOM     10  C   UNL     1       8.261  -2.522  -0.608  1.00  0.00     0.166 A 
ATOM     11  C   UNL     1       8.356  -2.679  -1.973  1.00  0.00     0.165 A 
ATOM     12  O   UNL     1       8.591  -3.726  -0.023  1.00  0.00    -0.454 OA
ATOM     13  O   UNL     1       8.747  -3.989  -2.201  1.00  0.00    -0.454 OA
ATOM     14  C   UNL     1       8.995  -4.662  -0.990  1.00  0.00     0.468 C 
ENDBRANCH   5   6
ENDBRANCH   1   5
TORSDOF 3
ENDMDL
MODEL 3
REMARK VINA RESULT:      -7.2      2.061      2.622
REMARK SMILES CC(=O)CCc1ccc2c(c1)OCO2
REMARK SMILES IDX 4 1 2 2 1 3 3 4 5 5 6 6 7 7 11 8 8 9 10 10 9 11 12 12 14 13
REMARK SMILES IDX 13 14
REMARK H PARENT
REMARK Flexibility Score: inf
ROOT
ATOM      1  C   UNL     1       5.454  -0.020   1.998  1.00  0.00     0.080 C 
ENDROOT
BRANCH   1   2
ATOM      2  C   UNL     1       4.581   1.157   1.731  1.00  0.00     0.130 C 
ATOM      3  C   UNL     1       4.883   2.123   0.642  1.00  0.00     0.087 C 
ATOM      4  O   UNL     1       3.585   1.363   2.406  1.00  0.00    -0.300 OA
ENDBRANCH   1   2
BRANCH   1   5
ATOM      5  C   UNL     1       6.878   0.237   1.545  1.00  0.00     0.043 C 
BRANCH   5   6
ATOM      6  C   UNL     1       7.296  -0.707   0.493  1.00  0.00    -0.044 A 
ATOM      7  C   UNL     1       7.162  -0.397  -0.865  1.00  0.00     0.008 A 
ATOM      8  C   UNL     1       7.834  -1.924   0.843  1.00  0.00     0.054 A 
ATOM      9  C   UNL     1       7.573  -1.322  -1.808  1.00  0.00     0.051 A 
ATOM     10  C   UNL     1       8.248  -2.856  -0.114  1.00  0.00     0.166 A 
ATOM     11  C   UNL     1       8.115  -2.552  -1.450  1.00  0.00     0.165 A 
ATOM     12  O   UNL     1       8.803  -4.114  -0.021  1.00  0.00    -0.454 OA
ATOM     13  O   UNL     1       8.599  -3.641  -2.158  1.00  0.00    -0.454 OA
ATOM     14  C   UNL     1       9.128  -4.616  -1.292  1.00  0.00     0.468 C 
ENDBRANCH   5   6
ENDBRANCH   1   5
TORSDOF 3
ENDMDL
MODEL 4
REMARK VINA RESULT:      -7.1      1.257      1.479
REMARK SMILES CC(=O)CCc1ccc2c(c1)OCO2
REMARK SMILES IDX 4 1 2 2 1 3 3 4 5 5 6 6 7 7 11 8 8 9 10 10 9 11 12 12 14 13
REMARK SMILES IDX 13 14
REMARK H PARENT
REMARK Flexibility Score: inf
ROOT
ATOM      1  C   UNL     1       6.381   1.181   0.907  1.00  0.00     0.080 C 
ENDROOT
BRANCH   1   2
ATOM      2  C   UNL     1       5.669   0.365   1.929  1.00  0.00     0.130 C 
ATOM      3  C   UNL     1       6.272  -0.867   2.503  1.00  0.00     0.087 C 
ATOM      4  O   UNL     1       4.561   0.687   2.327  1.00  0.00    -0.300 OA
ENDBRANCH   1   2
BRANCH   1   5
ATOM      5  C   UNL     1       5.869   0.885  -0.489  1.00  0.00     0.043 C 
BRANCH   5   6
ATOM      6  C   UNL     1       6.822   0.067  -1.259  1.00  0.00    -0.044 A 
ATOM      7  C   UNL     1       7.513   0.587  -2.359  1.00  0.00     0.008 A 
ATOM      8  C   UNL     1       7.049  -1.241  -0.894  1.00  0.00     0.054 A 
ATOM      9  C   UNL     1       8.396  -0.227  -3.044  1.00  0.00     0.051 A 
ATOM     10  C   UNL     1       7.943  -2.060  -1.589  1.00  0.00     0.166 A 
ATOM     11  C   UNL     1       8.622  -1.549  -2.673  1.00  0.00     0.165 A 
ATOM     12  O   UNL     1       8.336  -3.372  -1.427  1.00  0.00    -0.454 OA
ATOM     13  O   UNL     1       9.427  -2.568  -3.158  1.00  0.00    -0.454 OA
ATOM     14  C   UNL     1       9.344  -3.713  -2.344  1.00  0.00     0.468 C 
ENDBRANCH   5   6
ENDBRANCH   1   5
TORSDOF 3
ENDMDL
MODEL 5
REMARK VINA RESULT:      -7.1      1.972      2.605
REMARK SMILES CC(=O)CCc1ccc2c(c1)OCO2
REMARK SMILES IDX 4 1 2 2 1 3 3 4 5 5 6 6 7 7 11 8 8 9 10 10 9 11 12 12 14 13
REMARK SMILES IDX 13 14
REMARK H PARENT
REMARK Flexibility Score: inf
ROOT
ATOM      1  C   UNL     1       6.482   0.898   1.165  1.00  0.00     0.080 C 
ENDROOT
BRANCH   1   2
ATOM      2  C   UNL     1       5.228   1.619   0.814  1.00  0.00     0.130 C 
ATOM      3  C   UNL     1       4.989   2.150  -0.555  1.00  0.00     0.087 C 
ATOM      4  O   UNL     1       4.353   1.797   1.646  1.00  0.00    -0.300 OA
ENDBRANCH   1   2
BRANCH   1   5
ATOM      5  C   UNL     1       7.538   1.073   0.091  1.00  0.00     0.043 C 
BRANCH   5   6
ATOM      6  C   UNL     1       7.825  -0.194  -0.604  1.00  0.00    -0.044 A 
ATOM      7  C   UNL     1       7.863  -0.271  -2.001  1.00  0.00     0.008 A 
ATOM      8  C   UNL     1       8.066  -1.335   0.127  1.00  0.00     0.054 A 
ATOM      9  C   UNL     1       8.139  -1.487  -2.599  1.00  0.00     0.051 A 
ATOM     10  C   UNL     1       8.344  -2.562  -0.482  1.00  0.00     0.166 A 
ATOM     11  C   UNL     1       8.381  -2.639  -1.856  1.00  0.00     0.165 A 
ATOM     12  O   UNL     1       8.613  -3.819   0.017  1.00  0.00    -0.454 OA
ATOM     13  O   UNL     1       8.675  -3.955  -2.177  1.00  0.00    -0.454 OA
ATOM     14  C   UNL     1       8.920  -4.717  -1.019  1.00  0.00     0.468 C 
ENDBRANCH   5   6
ENDBRANCH   1   5
TORSDOF 3
ENDMDL
