@<TRIPOS>MOLECULE
/home/cewinharhar/GITHUB/reincatalyze/data/processed/docking_pred/2023-May-30-2130_sub9_nm5_bs15_s42_ex16_mel10_mts10000_k50_ec05_g099_lra3e-4_lrc3e-3/4c842af59bf464cb96158b81e4442e4de3681d81_ligand_9.pdbqt
 14 15 0 0 0
SMALL
GASTEIGER

@<TRIPOS>ATOM
      1  C          5.4500   -0.0420    1.9980 C.3     1  UNL1        0.0800
      2  C          4.5980    1.1530    1.7470 C.2     1  UNL1        0.1300
      3  C          4.9210    2.1310    0.6740 C.3     1  UNL1        0.0870
      4  O          3.6040    1.3670    2.4220 O.2     1  UNL1       -0.3000
      5  C          6.8830    0.2030    1.5680 C.3     1  UNL1        0.0430
      6  C          7.3040   -0.7330    0.5100 C.2     1  UNL1       -0.0440
      7  C          7.1720   -0.4130   -0.8470 C.2     1  UNL1        0.0080
      8  C          7.8430   -1.9520    0.8520 C.2     1  UNL1        0.0540
      9  C          7.5850   -1.3300   -1.7960 C.2     1  UNL1        0.0510
     10  C          8.2590   -2.8760   -0.1120 C.2     1  UNL1        0.1660
     11  C          8.1290   -2.5620   -1.4460 C.2     1  UNL1        0.1650
     12  O          8.8160   -4.1340   -0.0280 O.2     1  UNL1       -0.4540
     13  O          8.6150   -3.6450   -2.1620 O.2     1  UNL1       -0.4540
     14  C          9.1440   -4.6260   -1.3020 C.3     1  UNL1        0.4680
@<TRIPOS>BOND
     1    13    11    1
     2    13    14    1
     3     9    11    2
     4     9     7    1
     5    11    10    1
     6    14    12    1
     7     7     6    2
     8    10    12    1
     9    10     8    2
    10     6     8    1
    11     6     5    1
    12     3     2    1
    13     5     1    1
    14     2     1    1
    15     2     4    2
