@<TRIPOS>MOLECULE
/home/cewinharhar/GITHUB/reincatalyze/data/processed/docking_pred/2023-May-30-2130_sub9_nm5_bs15_s42_ex16_mel10_mts10000_k50_ec05_g099_lra3e-4_lrc3e-3/4c842af59bf464cb96158b81e4442e4de3681d81_ligand_9.pdbqt
 14 15 0 0 0
SMALL
GASTEIGER

@<TRIPOS>ATOM
      1  C          6.3770    1.2020    0.9500 C.3     1  UNL1        0.0800
      2  C          5.6630    0.3580    1.9470 C.2     1  UNL1        0.1300
      3  C          6.2840   -0.8670    2.5200 C.3     1  UNL1        0.0870
      4  O          4.5400    0.6490    2.3250 O.2     1  UNL1       -0.3000
      5  C          5.8710    0.9410   -0.4550 C.3     1  UNL1        0.0430
      6  C          6.8160    0.1200   -1.2330 C.2     1  UNL1       -0.0440
      7  C          7.5070    0.6400   -2.3330 C.2     1  UNL1        0.0080
      8  C          7.0340   -1.1910   -0.8760 C.2     1  UNL1        0.0540
      9  C          8.3820   -0.1780   -3.0240 C.2     1  UNL1        0.0510
     10  C          7.9200   -2.0140   -1.5770 C.2     1  UNL1        0.1660
     11  C          8.5990   -1.5030   -2.6610 C.2     1  UNL1        0.1650
     12  O          8.3030   -3.3300   -1.4240 O.2     1  UNL1       -0.4540
     13  O          9.3940   -2.5260   -3.1540 O.2     1  UNL1       -0.4540
     14  C          9.3050   -3.6740   -2.3450 C.3     1  UNL1        0.4680
@<TRIPOS>BOND
     1    13    11    1
     2    13    14    1
     3     9    11    2
     4     9     7    1
     5    11    10    1
     6    14    12    1
     7     7     6    2
     8    10    12    1
     9    10     8    2
    10     6     8    1
    11     6     5    1
    12     5     1    1
    13     1     2    1
    14     2     4    2
    15     2     3    1
