@<TRIPOS>MOLECULE
/home/cewinharhar/GITHUB/reincatalyze/data/processed/docking_pred/2023-May-30-2130_sub9_nm5_bs15_s42_ex16_mel10_mts10000_k50_ec05_g099_lra3e-4_lrc3e-3/4c842af59bf464cb96158b81e4442e4de3681d81_ligand_9.pdbqt
 14 15 0 0 0
SMALL
GASTEIGER

@<TRIPOS>ATOM
      1  C          5.6080    1.6030   -0.0060 C.3     1  UNL1        0.0800
      2  C          4.9620    1.2430    1.2870 C.2     1  UNL1        0.1300
      3  C          5.3980    0.0600    2.0760 C.3     1  UNL1        0.0870
      4  O          4.0480    1.9150    1.7390 O.2     1  UNL1       -0.3000
      5  C          7.1000    1.3380    0.0330 C.3     1  UNL1        0.0430
      6  C          7.4540    0.1000   -0.6860 C.2     1  UNL1       -0.0440
      7  C          7.4110    0.0260   -2.0830 C.2     1  UNL1        0.0080
      8  C          7.8400   -1.0140    0.0240 C.2     1  UNL1        0.0540
      9  C          7.7550   -1.1620   -2.7020 C.2     1  UNL1        0.0510
     10  C          8.1870   -2.2120   -0.6070 C.2     1  UNL1        0.1660
     11  C          8.1440   -2.2870   -1.9810 C.2     1  UNL1        0.1650
     12  O          8.5960   -3.4400   -0.1320 O.2     1  UNL1       -0.4540
     13  O          8.5330   -3.5720   -2.3250 O.2     1  UNL1       -0.4540
     14  C          8.9150   -4.3090   -1.1880 C.3     1  UNL1        0.4680
@<TRIPOS>BOND
     1     9     7    1
     2     9    11    2
     3    13    11    1
     4    13    14    1
     5     7     6    2
     6    11    10    1
     7    14    12    1
     8     6     8    1
     9     6     5    1
    10    10    12    1
    11    10     8    2
    12     1     5    1
    13     1     2    1
    14     2     4    2
    15     2     3    1
