MODEL 1
REMARK VINA RESULT:      -7.6      0.000      0.000
REMARK SMILES CC(=O)CCc1ccc2c(c1)OCO2
REMARK SMILES IDX 4 1 2 2 1 3 3 4 5 5 6 6 7 7 11 8 8 9 10 10 9 11 12 12 14 13
REMARK SMILES IDX 13 14
REMARK H PARENT
REMARK Flexibility Score: inf
ROOT
ATOM      1  C   UNL     1       5.551   1.883   1.297  1.00  0.00     0.080 C 
ENDROOT
BRANCH   1   2
ATOM      2  C   UNL     1       5.118   0.664   2.036  1.00  0.00     0.130 C 
ATOM      3  C   UNL     1       6.016  -0.510   2.200  1.00  0.00     0.087 C 
ATOM      4  O   UNL     1       4.005   0.594   2.531  1.00  0.00    -0.300 OA
ENDBRANCH   1   2
BRANCH   1   5
ATOM      5  C   UNL     1       5.408   1.697  -0.201  1.00  0.00     0.043 C 
BRANCH   5   6
ATOM      6  C   UNL     1       6.574   1.005  -0.779  1.00  0.00    -0.044 A 
ATOM      7  C   UNL     1       7.880   1.453  -0.552  1.00  0.00     0.008 A 
ATOM      8  C   UNL     1       6.385  -0.112  -1.561  1.00  0.00     0.054 A 
ATOM      9  C   UNL     1       8.935   0.762  -1.120  1.00  0.00     0.051 A 
ATOM     10  C   UNL     1       7.455  -0.807  -2.132  1.00  0.00     0.166 A 
ATOM     11  C   UNL     1       8.740  -0.366  -1.910  1.00  0.00     0.165 A 
ATOM     12  O   UNL     1       7.527  -1.926  -2.935  1.00  0.00    -0.454 OA
ATOM     13  O   UNL     1       9.584  -1.233  -2.587  1.00  0.00    -0.454 OA
ATOM     14  C   UNL     1       8.862  -2.289  -3.175  1.00  0.00     0.468 C 
ENDBRANCH   5   6
ENDBRANCH   1   5
TORSDOF 3
ENDMDL
MODEL 2
REMARK VINA RESULT:      -7.3      1.743      2.120
REMARK SMILES CC(=O)CCc1ccc2c(c1)OCO2
REMARK SMILES IDX 4 1 2 2 1 3 3 4 5 5 6 6 7 7 11 8 8 9 10 10 9 11 12 12 14 13
REMARK SMILES IDX 13 14
REMARK H PARENT
REMARK Flexibility Score: inf
ROOT
ATOM      1  C   UNL     1       5.608   1.603  -0.006  1.00  0.00     0.080 C 
ENDROOT
BRANCH   1   2
ATOM      2  C   UNL     1       4.962   1.243   1.287  1.00  0.00     0.130 C 
ATOM      3  C   UNL     1       5.398   0.060   2.076  1.00  0.00     0.087 C 
ATOM      4  O   UNL     1       4.048   1.915   1.739  1.00  0.00    -0.300 OA
ENDBRANCH   1   2
BRANCH   1   5
ATOM      5  C   UNL     1       7.100   1.338   0.033  1.00  0.00     0.043 C 
BRANCH   5   6
ATOM      6  C   UNL     1       7.454   0.100  -0.686  1.00  0.00    -0.044 A 
ATOM      7  C   UNL     1       7.411   0.026  -2.083  1.00  0.00     0.008 A 
ATOM      8  C   UNL     1       7.840  -1.014   0.024  1.00  0.00     0.054 A 
ATOM      9  C   UNL     1       7.755  -1.162  -2.702  1.00  0.00     0.051 A 
ATOM     10  C   UNL     1       8.187  -2.212  -0.607  1.00  0.00     0.166 A 
ATOM     11  C   UNL     1       8.144  -2.287  -1.981  1.00  0.00     0.165 A 
ATOM     12  O   UNL     1       8.596  -3.440  -0.132  1.00  0.00    -0.454 OA
ATOM     13  O   UNL     1       8.533  -3.572  -2.325  1.00  0.00    -0.454 OA
ATOM     14  C   UNL     1       8.915  -4.309  -1.188  1.00  0.00     0.468 C 
ENDBRANCH   5   6
ENDBRANCH   1   5
TORSDOF 3
ENDMDL
MODEL 3
REMARK VINA RESULT:      -7.2      2.058      2.623
REMARK SMILES CC(=O)CCc1ccc2c(c1)OCO2
REMARK SMILES IDX 4 1 2 2 1 3 3 4 5 5 6 6 7 7 11 8 8 9 10 10 9 11 12 12 14 13
REMARK SMILES IDX 13 14
REMARK H PARENT
REMARK Flexibility Score: inf
ROOT
ATOM      1  C   UNL     1       5.450  -0.042   1.998  1.00  0.00     0.080 C 
ENDROOT
BRANCH   1   2
ATOM      2  C   UNL     1       4.598   1.153   1.747  1.00  0.00     0.130 C 
ATOM      3  C   UNL     1       4.921   2.131   0.674  1.00  0.00     0.087 C 
ATOM      4  O   UNL     1       3.604   1.367   2.422  1.00  0.00    -0.300 OA
ENDBRANCH   1   2
BRANCH   1   5
ATOM      5  C   UNL     1       6.883   0.203   1.568  1.00  0.00     0.043 C 
BRANCH   5   6
ATOM      6  C   UNL     1       7.304  -0.733   0.510  1.00  0.00    -0.044 A 
ATOM      7  C   UNL     1       7.172  -0.413  -0.847  1.00  0.00     0.008 A 
ATOM      8  C   UNL     1       7.843  -1.952   0.852  1.00  0.00     0.054 A 
ATOM      9  C   UNL     1       7.585  -1.330  -1.796  1.00  0.00     0.051 A 
ATOM     10  C   UNL     1       8.259  -2.876  -0.112  1.00  0.00     0.166 A 
ATOM     11  C   UNL     1       8.129  -2.562  -1.446  1.00  0.00     0.165 A 
ATOM     12  O   UNL     1       8.816  -4.134  -0.028  1.00  0.00    -0.454 OA
ATOM     13  O   UNL     1       8.615  -3.645  -2.162  1.00  0.00    -0.454 OA
ATOM     14  C   UNL     1       9.144  -4.626  -1.302  1.00  0.00     0.468 C 
ENDBRANCH   5   6
ENDBRANCH   1   5
TORSDOF 3
ENDMDL
MODEL 4
REMARK VINA RESULT:      -7.1      1.234      1.429
REMARK SMILES CC(=O)CCc1ccc2c(c1)OCO2
REMARK SMILES IDX 4 1 2 2 1 3 3 4 5 5 6 6 7 7 11 8 8 9 10 10 9 11 12 12 14 13
REMARK SMILES IDX 13 14
REMARK H PARENT
REMARK Flexibility Score: inf
ROOT
ATOM      1  C   UNL     1       6.377   1.202   0.950  1.00  0.00     0.080 C 
ENDROOT
BRANCH   1   2
ATOM      2  C   UNL     1       5.663   0.358   1.947  1.00  0.00     0.130 C 
ATOM      3  C   UNL     1       6.284  -0.867   2.520  1.00  0.00     0.087 C 
ATOM      4  O   UNL     1       4.540   0.649   2.325  1.00  0.00    -0.300 OA
ENDBRANCH   1   2
BRANCH   1   5
ATOM      5  C   UNL     1       5.871   0.941  -0.455  1.00  0.00     0.043 C 
BRANCH   5   6
ATOM      6  C   UNL     1       6.816   0.120  -1.233  1.00  0.00    -0.044 A 
ATOM      7  C   UNL     1       7.507   0.640  -2.333  1.00  0.00     0.008 A 
ATOM      8  C   UNL     1       7.034  -1.191  -0.876  1.00  0.00     0.054 A 
ATOM      9  C   UNL     1       8.382  -0.178  -3.024  1.00  0.00     0.051 A 
ATOM     10  C   UNL     1       7.920  -2.014  -1.577  1.00  0.00     0.166 A 
ATOM     11  C   UNL     1       8.599  -1.503  -2.661  1.00  0.00     0.165 A 
ATOM     12  O   UNL     1       8.303  -3.330  -1.424  1.00  0.00    -0.454 OA
ATOM     13  O   UNL     1       9.394  -2.526  -3.154  1.00  0.00    -0.454 OA
ATOM     14  C   UNL     1       9.305  -3.674  -2.345  1.00  0.00     0.468 C 
ENDBRANCH   5   6
ENDBRANCH   1   5
TORSDOF 3
ENDMDL
MODEL 5
REMARK VINA RESULT:      -7.0      1.987      2.595
REMARK SMILES CC(=O)CCc1ccc2c(c1)OCO2
REMARK SMILES IDX 4 1 2 2 1 3 3 4 5 5 6 6 7 7 11 8 8 9 10 10 9 11 12 12 14 13
REMARK SMILES IDX 13 14
REMARK H PARENT
REMARK Flexibility Score: inf
ROOT
ATOM      1  C   UNL     1       6.909   0.751   1.166  1.00  0.00     0.080 C 
ENDROOT
BRANCH   1   2
ATOM      2  C   UNL     1       5.494   1.151   1.403  1.00  0.00     0.130 C 
ATOM      3  C   UNL     1       4.810   2.150   0.539  1.00  0.00     0.087 C 
ATOM      4  O   UNL     1       4.851   0.667   2.320  1.00  0.00    -0.300 OA
ENDBRANCH   1   2
BRANCH   1   5
ATOM      5  C   UNL     1       7.287   0.904  -0.294  1.00  0.00     0.043 C 
BRANCH   5   6
ATOM      6  C   UNL     1       7.681  -0.383  -0.894  1.00  0.00    -0.044 A 
ATOM      7  C   UNL     1       7.777  -0.547  -2.281  1.00  0.00     0.008 A 
ATOM      8  C   UNL     1       7.967  -1.456  -0.080  1.00  0.00     0.054 A 
ATOM      9  C   UNL     1       8.152  -1.778  -2.787  1.00  0.00     0.051 A 
ATOM     10  C   UNL     1       8.347  -2.698  -0.597  1.00  0.00     0.166 A 
ATOM     11  C   UNL     1       8.440  -2.861  -1.961  1.00  0.00     0.165 A 
ATOM     12  O   UNL     1       8.677  -3.900  -0.007  1.00  0.00    -0.454 OA
ATOM     13  O   UNL     1       8.830  -4.172  -2.183  1.00  0.00    -0.454 OA
ATOM     14  C   UNL     1       9.080  -4.840  -0.970  1.00  0.00     0.468 C 
ENDBRANCH   5   6
ENDBRANCH   1   5
TORSDOF 3
ENDMDL
