@<TRIPOS>MOLECULE
/home/cewinharhar/GITHUB/reincatalyze/data/processed/docking_pred/2023-May-30-2130_sub9_nm5_bs15_s42_ex16_mel10_mts10000_k50_ec05_g099_lra3e-4_lrc3e-3/4dfe2a4ebf2cd2c58b23ebebd9c83ff91bb12173_ligand_9.pdbqt
 14 15 0 0 0
SMALL
GASTEIGER

@<TRIPOS>ATOM
      1  C          5.2790   -0.1330    2.2990 C.3     1  UNL1        0.0800
      2  C          4.3590    0.9860    1.9540 C.2     1  UNL1        0.1300
      3  C          4.6280    1.8930    0.8070 C.3     1  UNL1        0.0870
      4  O          3.3500    1.1930    2.6100 O.2     1  UNL1       -0.3000
      5  C          6.7150    0.2080    1.9540 C.3     1  UNL1        0.0430
      6  C          7.2600   -0.6960    0.9260 C.2     1  UNL1       -0.0440
      7  C          7.5540   -2.0350    1.2090 C.2     1  UNL1        0.0080
      8  C          7.4870   -0.2240   -0.3460 C.2     1  UNL1        0.0540
      9  C          8.0630   -2.8370    0.2040 C.2     1  UNL1        0.0510
     10  C          8.0020   -1.0390   -1.3590 C.2     1  UNL1        0.1660
     11  C          8.2920   -2.3560   -1.0820 C.2     1  UNL1        0.1650
     12  O          8.3130   -0.8100   -2.6830 O.2     1  UNL1       -0.4540
     13  O          8.7790   -2.9140   -2.2530 O.2     1  UNL1       -0.4540
     14  C          8.7240   -1.9940   -3.3170 C.3     1  UNL1        0.4680
@<TRIPOS>BOND
     1    14    12    1
     2    14    13    1
     3    12    10    1
     4    13    11    1
     5    10    11    2
     6    10     8    1
     7    11     9    1
     8     8     6    2
     9     9     7    2
    10     3     2    1
    11     6     7    1
    12     6     5    1
    13     2     1    1
    14     2     4    2
    15     5     1    1
