@<TRIPOS>MOLECULE
/home/cewinharhar/GITHUB/reincatalyze/data/processed/docking_pred/2023-May-30-2130_sub9_nm5_bs15_s42_ex16_mel10_mts10000_k50_ec05_g099_lra3e-4_lrc3e-3/4dfe2a4ebf2cd2c58b23ebebd9c83ff91bb12173_ligand_9.pdbqt
 14 15 0 0 0
SMALL
GASTEIGER

@<TRIPOS>ATOM
      1  C          8.7710   -3.9060   -0.3760 C.3     1  UNL1        0.0800
      2  C          9.2890   -4.8050   -1.4450 C.2     1  UNL1        0.1300
      3  C          8.9020   -6.2390   -1.5140 C.3     1  UNL1        0.0870
      4  O         10.0520   -4.3860   -2.3010 O.2     1  UNL1       -0.3000
      5  C          8.3040   -2.5820   -0.9490 C.3     1  UNL1        0.0430
      6  C          7.4710   -1.8360    0.0110 C.2     1  UNL1       -0.0440
      7  C          7.4110   -2.1930    1.3630 C.2     1  UNL1        0.0080
      8  C          6.7320   -0.7580   -0.4220 C.2     1  UNL1        0.0540
      9  C          6.6130   -1.4540    2.2170 C.2     1  UNL1        0.0510
     10  C          5.9260   -0.0150    0.4460 C.2     1  UNL1        0.1660
     11  C          5.8660   -0.3660    1.7770 C.2     1  UNL1        0.1650
     12  O          5.1090    1.0810    0.2640 O.2     1  UNL1       -0.4540
     13  O          5.0050    0.5310    2.3900 O.2     1  UNL1       -0.4540
     14  C          4.5740    1.5200    1.4860 C.3     1  UNL1        0.4680
@<TRIPOS>BOND
     1     4     2    2
     2     3     2    1
     3     2     1    1
     4     5     1    1
     5     5     6    1
     6     8     6    2
     7     8    10    1
     8     6     7    1
     9    12    10    1
    10    12    14    1
    11    10    11    2
    12     7     9    2
    13    14    13    1
    14    11     9    1
    15    11    13    1
