@<TRIPOS>MOLECULE
/home/cewinharhar/GITHUB/reincatalyze/data/processed/docking_pred/2023-May-30-2130_sub9_nm5_bs15_s42_ex16_mel10_mts10000_k50_ec05_g099_lra3e-4_lrc3e-3/4dfe2a4ebf2cd2c58b23ebebd9c83ff91bb12173_ligand_9.pdbqt
 14 15 0 0 0
SMALL
GASTEIGER

@<TRIPOS>ATOM
      1  C          5.4480   -0.2660    2.1570 C.3     1  UNL1        0.0800
      2  C          4.5010    0.8620    1.9330 C.2     1  UNL1        0.1300
      3  C          4.6980    1.8390    0.8280 C.3     1  UNL1        0.0870
      4  O          3.5300    1.0180    2.6550 O.2     1  UNL1       -0.3000
      5  C          6.8370    0.0720    1.6510 C.3     1  UNL1        0.0430
      6  C          7.2650   -0.8430    0.5780 C.2     1  UNL1       -0.0440
      7  C          7.0970   -0.5180   -0.7720 C.2     1  UNL1        0.0080
      8  C          7.8480   -2.0470    0.9010 C.2     1  UNL1        0.0540
      9  C          7.5200   -1.4150   -1.7360 C.2     1  UNL1        0.0510
     10  C          8.2740   -2.9510   -0.0770 C.2     1  UNL1        0.1660
     11  C          8.1080   -2.6330   -1.4060 C.2     1  UNL1        0.1650
     12  O          8.8710   -4.1920   -0.0130 O.2     1  UNL1       -0.4540
     13  O          8.6130   -3.6950   -2.1390 O.2     1  UNL1       -0.4540
     14  C          9.1890   -4.6650   -1.2970 C.3     1  UNL1        0.4680
@<TRIPOS>BOND
     1    13    11    1
     2    13    14    1
     3     9    11    2
     4     9     7    1
     5    11    10    1
     6    14    12    1
     7     7     6    2
     8    10    12    1
     9    10     8    2
    10     6     8    1
    11     6     5    1
    12     3     2    1
    13     5     1    1
    14     2     1    1
    15     2     4    2
