MODEL 1
REMARK VINA RESULT:      -6.6      0.000      0.000
REMARK SMILES CC(=O)CCc1ccc2c(c1)OCO2
REMARK SMILES IDX 4 1 2 2 1 3 3 4 5 5 6 6 7 7 11 8 8 9 10 10 9 11 12 12 14 13
REMARK SMILES IDX 13 14
REMARK H PARENT
REMARK Flexibility Score: inf
ROOT
ATOM      1  C   UNL     1       5.448  -0.266   2.157  1.00  0.00     0.080 C 
ENDROOT
BRANCH   1   2
ATOM      2  C   UNL     1       4.501   0.862   1.933  1.00  0.00     0.130 C 
ATOM      3  C   UNL     1       4.698   1.839   0.828  1.00  0.00     0.087 C 
ATOM      4  O   UNL     1       3.530   1.018   2.655  1.00  0.00    -0.300 OA
ENDBRANCH   1   2
BRANCH   1   5
ATOM      5  C   UNL     1       6.837   0.072   1.651  1.00  0.00     0.043 C 
BRANCH   5   6
ATOM      6  C   UNL     1       7.265  -0.843   0.578  1.00  0.00    -0.044 A 
ATOM      7  C   UNL     1       7.097  -0.518  -0.772  1.00  0.00     0.008 A 
ATOM      8  C   UNL     1       7.848  -2.047   0.901  1.00  0.00     0.054 A 
ATOM      9  C   UNL     1       7.520  -1.415  -1.736  1.00  0.00     0.051 A 
ATOM     10  C   UNL     1       8.274  -2.951  -0.077  1.00  0.00     0.166 A 
ATOM     11  C   UNL     1       8.108  -2.633  -1.406  1.00  0.00     0.165 A 
ATOM     12  O   UNL     1       8.871  -4.192  -0.013  1.00  0.00    -0.454 OA
ATOM     13  O   UNL     1       8.613  -3.695  -2.139  1.00  0.00    -0.454 OA
ATOM     14  C   UNL     1       9.189  -4.665  -1.297  1.00  0.00     0.468 C 
ENDBRANCH   5   6
ENDBRANCH   1   5
TORSDOF 3
ENDMDL
MODEL 2
REMARK VINA RESULT:      -5.9      1.054      1.973
REMARK SMILES CC(=O)CCc1ccc2c(c1)OCO2
REMARK SMILES IDX 4 1 2 2 1 3 3 4 5 5 6 6 7 7 11 8 8 9 10 10 9 11 12 12 14 13
REMARK SMILES IDX 13 14
REMARK H PARENT
REMARK Flexibility Score: inf
ROOT
ATOM      1  C   UNL     1       5.279  -0.133   2.299  1.00  0.00     0.080 C 
ENDROOT
BRANCH   1   2
ATOM      2  C   UNL     1       4.359   0.986   1.954  1.00  0.00     0.130 C 
ATOM      3  C   UNL     1       4.628   1.893   0.807  1.00  0.00     0.087 C 
ATOM      4  O   UNL     1       3.350   1.193   2.610  1.00  0.00    -0.300 OA
ENDBRANCH   1   2
BRANCH   1   5
ATOM      5  C   UNL     1       6.715   0.208   1.954  1.00  0.00     0.043 C 
BRANCH   5   6
ATOM      6  C   UNL     1       7.260  -0.696   0.926  1.00  0.00    -0.044 A 
ATOM      7  C   UNL     1       7.554  -2.035   1.209  1.00  0.00     0.008 A 
ATOM      8  C   UNL     1       7.487  -0.224  -0.346  1.00  0.00     0.054 A 
ATOM      9  C   UNL     1       8.063  -2.837   0.204  1.00  0.00     0.051 A 
ATOM     10  C   UNL     1       8.002  -1.039  -1.359  1.00  0.00     0.166 A 
ATOM     11  C   UNL     1       8.292  -2.356  -1.082  1.00  0.00     0.165 A 
ATOM     12  O   UNL     1       8.313  -0.810  -2.683  1.00  0.00    -0.454 OA
ATOM     13  O   UNL     1       8.779  -2.914  -2.253  1.00  0.00    -0.454 OA
ATOM     14  C   UNL     1       8.724  -1.994  -3.317  1.00  0.00     0.468 C 
ENDBRANCH   5   6
ENDBRANCH   1   5
TORSDOF 3
ENDMDL
MODEL 3
REMARK VINA RESULT:      -5.9      1.014      1.014
REMARK SMILES CC(=O)CCc1ccc2c(c1)OCO2
REMARK SMILES IDX 4 1 2 2 1 3 3 4 5 5 6 6 7 7 11 8 8 9 10 10 9 11 12 12 14 13
REMARK SMILES IDX 13 14
REMARK H PARENT
REMARK Flexibility Score: inf
ROOT
ATOM      1  C   UNL     1       5.492  -0.352   1.892  1.00  0.00     0.080 C 
ENDROOT
BRANCH   1   2
ATOM      2  C   UNL     1       5.468   1.126   1.708  1.00  0.00     0.130 C 
ATOM      3  C   UNL     1       4.309   1.817   1.082  1.00  0.00     0.087 C 
ATOM      4  O   UNL     1       6.408   1.818   2.068  1.00  0.00    -0.300 OA
ENDBRANCH   1   2
BRANCH   1   5
ATOM      5  C   UNL     1       6.910  -0.865   2.041  1.00  0.00     0.043 C 
BRANCH   5   6
ATOM      6  C   UNL     1       7.387  -1.519   0.809  1.00  0.00    -0.044 A 
ATOM      7  C   UNL     1       7.160  -0.958  -0.453  1.00  0.00     0.008 A 
ATOM      8  C   UNL     1       8.074  -2.709   0.890  1.00  0.00     0.054 A 
ATOM      9  C   UNL     1       7.631  -1.616  -1.575  1.00  0.00     0.051 A 
ATOM     10  C   UNL     1       8.549  -3.370  -0.247  1.00  0.00     0.166 A 
ATOM     11  C   UNL     1       8.325  -2.820  -1.489  1.00  0.00     0.165 A 
ATOM     12  O   UNL     1       9.247  -4.545  -0.427  1.00  0.00    -0.454 OA
ATOM     13  O   UNL     1       8.898  -3.676  -2.416  1.00  0.00    -0.454 OA
ATOM     14  C   UNL     1       9.571  -4.736  -1.781  1.00  0.00     0.468 C 
ENDBRANCH   5   6
ENDBRANCH   1   5
TORSDOF 3
ENDMDL
MODEL 4
REMARK VINA RESULT:      -5.8      1.337      6.113
REMARK SMILES CC(=O)CCc1ccc2c(c1)OCO2
REMARK SMILES IDX 4 1 2 2 1 3 3 4 5 5 6 6 7 7 11 8 8 9 10 10 9 11 12 12 14 13
REMARK SMILES IDX 13 14
REMARK H PARENT
REMARK Flexibility Score: inf
ROOT
ATOM      1  C   UNL     1       8.771  -3.906  -0.376  1.00  0.00     0.080 C 
ENDROOT
BRANCH   1   2
ATOM      2  C   UNL     1       9.289  -4.805  -1.445  1.00  0.00     0.130 C 
ATOM      3  C   UNL     1       8.902  -6.239  -1.514  1.00  0.00     0.087 C 
ATOM      4  O   UNL     1      10.052  -4.386  -2.301  1.00  0.00    -0.300 OA
ENDBRANCH   1   2
BRANCH   1   5
ATOM      5  C   UNL     1       8.304  -2.582  -0.949  1.00  0.00     0.043 C 
BRANCH   5   6
ATOM      6  C   UNL     1       7.471  -1.836   0.011  1.00  0.00    -0.044 A 
ATOM      7  C   UNL     1       7.411  -2.193   1.363  1.00  0.00     0.008 A 
ATOM      8  C   UNL     1       6.732  -0.758  -0.422  1.00  0.00     0.054 A 
ATOM      9  C   UNL     1       6.613  -1.454   2.217  1.00  0.00     0.051 A 
ATOM     10  C   UNL     1       5.926  -0.015   0.446  1.00  0.00     0.166 A 
ATOM     11  C   UNL     1       5.866  -0.366   1.777  1.00  0.00     0.165 A 
ATOM     12  O   UNL     1       5.109   1.081   0.264  1.00  0.00    -0.454 OA
ATOM     13  O   UNL     1       5.005   0.531   2.390  1.00  0.00    -0.454 OA
ATOM     14  C   UNL     1       4.574   1.520   1.486  1.00  0.00     0.468 C 
ENDBRANCH   5   6
ENDBRANCH   1   5
TORSDOF 3
ENDMDL
MODEL 5
REMARK VINA RESULT:      -5.8      1.849      5.423
REMARK SMILES CC(=O)CCc1ccc2c(c1)OCO2
REMARK SMILES IDX 4 1 2 2 1 3 3 4 5 5 6 6 7 7 11 8 8 9 10 10 9 11 12 12 14 13
REMARK SMILES IDX 13 14
REMARK H PARENT
REMARK Flexibility Score: inf
ROOT
ATOM      1  C   UNL     1       8.044  -1.787  -2.315  1.00  0.00     0.080 C 
ENDROOT
BRANCH   1   2
ATOM      2  C   UNL     1       8.739  -0.472  -2.391  1.00  0.00     0.130 C 
ATOM      3  C   UNL     1       8.184   0.660  -3.179  1.00  0.00     0.087 C 
ATOM      4  O   UNL     1       9.793  -0.286  -1.805  1.00  0.00    -0.300 OA
ENDBRANCH   1   2
BRANCH   1   5
ATOM      5  C   UNL     1       8.151  -2.387  -0.927  1.00  0.00     0.043 C 
BRANCH   5   6
ATOM      6  C   UNL     1       7.324  -1.656   0.050  1.00  0.00    -0.044 A 
ATOM      7  C   UNL     1       7.267  -2.039   1.395  1.00  0.00     0.008 A 
ATOM      8  C   UNL     1       6.587  -0.568  -0.359  1.00  0.00     0.054 A 
ATOM      9  C   UNL     1       6.474  -1.315   2.266  1.00  0.00     0.051 A 
ATOM     10  C   UNL     1       5.786   0.161   0.525  1.00  0.00     0.166 A 
ATOM     11  C   UNL     1       5.729  -0.216   1.849  1.00  0.00     0.165 A 
ATOM     12  O   UNL     1       4.972   1.262   0.366  1.00  0.00    -0.454 OA
ATOM     13  O   UNL     1       4.873   0.671   2.481  1.00  0.00    -0.454 OA
ATOM     14  C   UNL     1       4.442   1.679   1.598  1.00  0.00     0.468 C 
ENDBRANCH   5   6
ENDBRANCH   1   5
TORSDOF 3
ENDMDL
