@<TRIPOS>MOLECULE
/home/cewinharhar/GITHUB/reincatalyze/data/processed/docking_pred/2023-May-30-2130_sub9_nm5_bs15_s42_ex16_mel10_mts10000_k50_ec05_g099_lra3e-4_lrc3e-3/4dfe2a4ebf2cd2c58b23ebebd9c83ff91bb12173_ligand_9.pdbqt
 14 15 0 0 0
SMALL
GASTEIGER

@<TRIPOS>ATOM
      1  C          8.0440   -1.7870   -2.3150 C.3     1  UNL1        0.0800
      2  C          8.7390   -0.4720   -2.3910 C.2     1  UNL1        0.1300
      3  C          8.1840    0.6600   -3.1790 C.3     1  UNL1        0.0870
      4  O          9.7930   -0.2860   -1.8050 O.2     1  UNL1       -0.3000
      5  C          8.1510   -2.3870   -0.9270 C.3     1  UNL1        0.0430
      6  C          7.3240   -1.6560    0.0500 C.2     1  UNL1       -0.0440
      7  C          7.2670   -2.0390    1.3950 C.2     1  UNL1        0.0080
      8  C          6.5870   -0.5680   -0.3590 C.2     1  UNL1        0.0540
      9  C          6.4740   -1.3150    2.2660 C.2     1  UNL1        0.0510
     10  C          5.7860    0.1610    0.5250 C.2     1  UNL1        0.1660
     11  C          5.7290   -0.2160    1.8490 C.2     1  UNL1        0.1650
     12  O          4.9720    1.2620    0.3660 O.2     1  UNL1       -0.4540
     13  O          4.8730    0.6710    2.4810 O.2     1  UNL1       -0.4540
     14  C          4.4420    1.6790    1.5980 C.3     1  UNL1        0.4680
@<TRIPOS>BOND
     1     3     2    1
     2     2     1    1
     3     2     4    2
     4     1     5    1
     5     5     6    1
     6     8     6    2
     7     8    10    1
     8     6     7    1
     9    12    10    1
    10    12    14    1
    11    10    11    2
    12     7     9    2
    13    14    13    1
    14    11     9    1
    15    11    13    1
