@<TRIPOS>MOLECULE
/home/cewinharhar/GITHUB/reincatalyze/data/processed/docking_pred/2023-May-30-2130_sub9_nm5_bs15_s42_ex16_mel10_mts10000_k50_ec05_g099_lra3e-4_lrc3e-3/4dfe2a4ebf2cd2c58b23ebebd9c83ff91bb12173_ligand_9.pdbqt
 14 15 0 0 0
SMALL
GASTEIGER

@<TRIPOS>ATOM
      1  C          5.4920   -0.3520    1.8920 C.3     1  UNL1        0.0800
      2  C          5.4680    1.1260    1.7080 C.2     1  UNL1        0.1300
      3  C          4.3090    1.8170    1.0820 C.3     1  UNL1        0.0870
      4  O          6.4080    1.8180    2.0680 O.2     1  UNL1       -0.3000
      5  C          6.9100   -0.8650    2.0410 C.3     1  UNL1        0.0430
      6  C          7.3870   -1.5190    0.8090 C.2     1  UNL1       -0.0440
      7  C          7.1600   -0.9580   -0.4530 C.2     1  UNL1        0.0080
      8  C          8.0740   -2.7090    0.8900 C.2     1  UNL1        0.0540
      9  C          7.6310   -1.6160   -1.5750 C.2     1  UNL1        0.0510
     10  C          8.5490   -3.3700   -0.2470 C.2     1  UNL1        0.1660
     11  C          8.3250   -2.8200   -1.4890 C.2     1  UNL1        0.1650
     12  O          9.2470   -4.5450   -0.4270 O.2     1  UNL1       -0.4540
     13  O          8.8980   -3.6760   -2.4160 O.2     1  UNL1       -0.4540
     14  C          9.5710   -4.7360   -1.7810 C.3     1  UNL1        0.4680
@<TRIPOS>BOND
     1    13    14    1
     2    13    11    1
     3    14    12    1
     4     9    11    2
     5     9     7    1
     6    11    10    1
     7     7     6    2
     8    12    10    1
     9    10     8    2
    10     6     8    1
    11     6     5    1
    12     3     2    1
    13     2     1    1
    14     2     4    2
    15     1     5    1
