@<TRIPOS>MOLECULE
/home/cewinharhar/GITHUB/reincatalyze/data/processed/docking_pred/2023-May-30-2130_sub9_nm5_bs15_s42_ex16_mel10_mts10000_k50_ec05_g099_lra3e-4_lrc3e-3/4e2e003c692afcef440410ba16f5bc8e831af6c9_ligand_9.pdbqt
 14 15 0 0 0
SMALL
GASTEIGER

@<TRIPOS>ATOM
      1  C          5.5240    1.9370    1.2540 C.3     1  UNL1        0.0800
      2  C          5.0980    0.7230    2.0030 C.2     1  UNL1        0.1300
      3  C          6.0080   -0.4400    2.1880 C.3     1  UNL1        0.0870
      4  O          3.9820    0.6460    2.4900 O.2     1  UNL1       -0.3000
      5  C          5.3930    1.7350   -0.2430 C.3     1  UNL1        0.0430
      6  C          6.5620    1.0340   -0.8040 C.2     1  UNL1       -0.0440
      7  C          7.8680    1.4700   -0.5540 C.2     1  UNL1        0.0080
      8  C          6.3760   -0.0790   -1.5920 C.2     1  UNL1        0.0540
      9  C          8.9260    0.7720   -1.1060 C.2     1  UNL1        0.0510
     10  C          7.4490   -0.7810   -2.1480 C.2     1  UNL1        0.1660
     11  C          8.7350   -0.3520   -1.9040 C.2     1  UNL1        0.1650
     12  O          7.5250   -1.8980   -2.9540 O.2     1  UNL1       -0.4540
     13  O          9.5820   -1.2240   -2.5700 O.2     1  UNL1       -0.4540
     14  C          8.8610   -2.2710   -3.1730 C.3     1  UNL1        0.4680
@<TRIPOS>BOND
     1    14    12    1
     2    14    13    1
     3    12    10    1
     4    13    11    1
     5    10    11    2
     6    10     8    1
     7    11     9    1
     8     8     6    2
     9     9     7    2
    10     6     7    1
    11     6     5    1
    12     5     1    1
    13     1     2    1
    14     2     3    1
    15     2     4    2
