@<TRIPOS>MOLECULE
/home/cewinharhar/GITHUB/reincatalyze/data/processed/docking_pred/2023-May-30-2130_sub9_nm5_bs15_s42_ex16_mel10_mts10000_k50_ec05_g099_lra3e-4_lrc3e-3/4f8485ffa73320ccf1b94cd7b1ea99ef776c762b_ligand_9.pdbqt
 14 15 0 0 0
SMALL
GASTEIGER

@<TRIPOS>ATOM
      1  C          5.4170   -0.0660    1.9210 C.3     1  UNL1        0.0800
      2  C          5.2390    1.1300    1.0520 C.2     1  UNL1        0.1300
      3  C          5.8950    1.2330   -0.2790 C.3     1  UNL1        0.0870
      4  O          4.5450    2.0670    1.4110 O.2     1  UNL1       -0.3000
      5  C          6.2940   -1.1060    1.2520 C.3     1  UNL1        0.0430
      6  C          7.4410   -1.4800    2.1000 C.2     1  UNL1       -0.0440
      7  C          7.4970   -1.1300    3.4530 C.2     1  UNL1        0.0080
      8  C          8.4860   -2.1940    1.5580 C.2     1  UNL1        0.0540
      9  C          8.5980   -1.5090    4.2000 C.2     1  UNL1        0.0510
     10  C          9.5960   -2.5750    2.3160 C.2     1  UNL1        0.1660
     11  C          9.6530   -2.2290    3.6480 C.2     1  UNL1        0.1650
     12  O         10.7450   -3.2750    2.0150 O.2     1  UNL1       -0.4540
     13  O         10.8470   -2.7310    4.1420 O.2     1  UNL1       -0.4540
     14  C         11.5280   -3.4790    3.1630 C.3     1  UNL1        0.4680
@<TRIPOS>BOND
     1     3     2    1
     2     2     4    2
     3     2     1    1
     4     5     1    1
     5     5     6    1
     6     8     6    2
     7     8    10    1
     8    12    10    1
     9    12    14    1
    10     6     7    1
    11    10    11    2
    12    14    13    1
    13     7     9    2
    14    11    13    1
    15    11     9    1
