@<TRIPOS>MOLECULE
/home/cewinharhar/GITHUB/reincatalyze/data/processed/docking_pred/2023-May-30-2130_sub9_nm5_bs15_s42_ex16_mel10_mts10000_k50_ec05_g099_lra3e-4_lrc3e-3/4f8485ffa73320ccf1b94cd7b1ea99ef776c762b_ligand_9.pdbqt
 14 15 0 0 0
SMALL
GASTEIGER

@<TRIPOS>ATOM
      1  C          5.7020    1.4960   -0.2470 C.3     1  UNL1        0.0800
      2  C          5.0970    1.2900    1.0990 C.2     1  UNL1        0.1300
      3  C          5.4810    0.1380    1.9590 C.3     1  UNL1        0.0870
      4  O          4.2640    2.0660    1.5370 O.2     1  UNL1       -0.3000
      5  C          7.1990    1.2580   -0.2200 C.3     1  UNL1        0.0430
      6  C          7.5610   -0.0180   -0.8620 C.2     1  UNL1       -0.0440
      7  C          7.5940   -0.1550   -2.2550 C.2     1  UNL1        0.0080
      8  C          7.8800   -1.1070   -0.0830 C.2     1  UNL1        0.0540
      9  C          7.9420   -1.3770   -2.8010 C.2     1  UNL1        0.0510
     10  C          8.2320   -2.3400   -0.6410 C.2     1  UNL1        0.1660
     11  C          8.2630   -2.4760   -2.0110 C.2     1  UNL1        0.1650
     12  O          8.5840   -3.5540   -0.0900 O.2     1  UNL1       -0.4540
     13  O          8.6380   -3.7840   -2.2760 O.2     1  UNL1       -0.4540
     14  C          8.9400   -4.4760   -1.0880 C.3     1  UNL1        0.4680
@<TRIPOS>BOND
     1     9     7    1
     2     9    11    2
     3    13    11    1
     4    13    14    1
     5     7     6    2
     6    11    10    1
     7    14    12    1
     8     6     5    1
     9     6     8    1
    10    10    12    1
    11    10     8    2
    12     1     5    1
    13     1     2    1
    14     2     4    2
    15     2     3    1
