@<TRIPOS>MOLECULE
/home/cewinharhar/GITHUB/reincatalyze/data/processed/docking_pred/2023-May-30-2130_sub9_nm5_bs15_s42_ex16_mel10_mts10000_k50_ec05_g099_lra3e-4_lrc3e-3/4f8485ffa73320ccf1b94cd7b1ea99ef776c762b_ligand_9.pdbqt
 14 15 0 0 0
SMALL
GASTEIGER

@<TRIPOS>ATOM
      1  C          6.8910    0.2400    1.8690 C.3     1  UNL1        0.0800
      2  C          5.5450    0.7910    1.5470 C.2     1  UNL1        0.1300
      3  C          5.3020    1.5900    0.3170 C.3     1  UNL1        0.0870
      4  O          4.5960    0.6000    2.2910 O.2     1  UNL1       -0.3000
      5  C          6.7900   -1.1590    2.4450 C.3     1  UNL1        0.0430
      6  C          8.0530   -1.5820    3.0760 C.2     1  UNL1       -0.0440
      7  C          8.3170   -1.3310    4.4270 C.2     1  UNL1        0.0080
      8  C          9.0010   -2.2420    2.3290 C.2     1  UNL1        0.0540
      9  C          9.5190   -1.7530    4.9660 C.2     1  UNL1        0.0510
     10  C         10.2150   -2.6670    2.8770 C.2     1  UNL1        0.1660
     11  C         10.4760   -2.4200    4.2070 C.2     1  UNL1        0.1650
     12  O         11.3030   -3.3310    2.3520 O.2     1  UNL1       -0.4540
     13  O         11.7310   -2.9430    4.4730 O.2     1  UNL1       -0.4540
     14  C         12.2530   -3.6100    3.3480 C.3     1  UNL1        0.4680
@<TRIPOS>BOND
     1     3     2    1
     2     2     1    1
     3     2     4    2
     4     1     5    1
     5     8    10    1
     6     8     6    2
     7    12    10    1
     8    12    14    1
     9     5     6    1
    10    10    11    2
    11     6     7    1
    12    14    13    1
    13    11    13    1
    14    11     9    1
    15     7     9    2
