MODEL 1
REMARK VINA RESULT:      -7.5      0.000      0.000
REMARK SMILES CC(=O)CCc1ccc2c(c1)OCO2
REMARK SMILES IDX 4 1 2 2 1 3 3 4 5 5 6 6 7 7 11 8 8 9 10 10 9 11 12 12 14 13
REMARK SMILES IDX 13 14
REMARK H PARENT
REMARK Flexibility Score: inf
ROOT
ATOM      1  C   UNL     1       5.417  -0.066   1.921  1.00  0.00     0.080 C 
ENDROOT
BRANCH   1   2
ATOM      2  C   UNL     1       5.239   1.130   1.052  1.00  0.00     0.130 C 
ATOM      3  C   UNL     1       5.895   1.233  -0.279  1.00  0.00     0.087 C 
ATOM      4  O   UNL     1       4.545   2.067   1.411  1.00  0.00    -0.300 OA
ENDBRANCH   1   2
BRANCH   1   5
ATOM      5  C   UNL     1       6.294  -1.106   1.252  1.00  0.00     0.043 C 
BRANCH   5   6
ATOM      6  C   UNL     1       7.441  -1.480   2.100  1.00  0.00    -0.044 A 
ATOM      7  C   UNL     1       7.497  -1.130   3.453  1.00  0.00     0.008 A 
ATOM      8  C   UNL     1       8.486  -2.194   1.558  1.00  0.00     0.054 A 
ATOM      9  C   UNL     1       8.598  -1.509   4.200  1.00  0.00     0.051 A 
ATOM     10  C   UNL     1       9.596  -2.575   2.316  1.00  0.00     0.166 A 
ATOM     11  C   UNL     1       9.653  -2.229   3.648  1.00  0.00     0.165 A 
ATOM     12  O   UNL     1      10.745  -3.275   2.015  1.00  0.00    -0.454 OA
ATOM     13  O   UNL     1      10.847  -2.731   4.142  1.00  0.00    -0.454 OA
ATOM     14  C   UNL     1      11.528  -3.479   3.163  1.00  0.00     0.468 C 
ENDBRANCH   5   6
ENDBRANCH   1   5
TORSDOF 3
ENDMDL
MODEL 2
REMARK VINA RESULT:      -7.3      3.714      4.759
REMARK SMILES CC(=O)CCc1ccc2c(c1)OCO2
REMARK SMILES IDX 4 1 2 2 1 3 3 4 5 5 6 6 7 7 11 8 8 9 10 10 9 11 12 12 14 13
REMARK SMILES IDX 13 14
REMARK H PARENT
REMARK Flexibility Score: inf
ROOT
ATOM      1  C   UNL     1       5.494   1.954   1.239  1.00  0.00     0.080 C 
ENDROOT
BRANCH   1   2
ATOM      2  C   UNL     1       5.025   0.753   1.985  1.00  0.00     0.130 C 
ATOM      3  C   UNL     1       5.873  -0.461   2.124  1.00  0.00     0.087 C 
ATOM      4  O   UNL     1       3.922   0.731   2.506  1.00  0.00    -0.300 OA
ENDBRANCH   1   2
BRANCH   1   5
ATOM      5  C   UNL     1       5.378   1.752  -0.259  1.00  0.00     0.043 C 
BRANCH   5   6
ATOM      6  C   UNL     1       6.551   1.050  -0.808  1.00  0.00    -0.044 A 
ATOM      7  C   UNL     1       7.856   1.478  -0.537  1.00  0.00     0.008 A 
ATOM      8  C   UNL     1       6.372  -0.056  -1.608  1.00  0.00     0.054 A 
ATOM      9  C   UNL     1       8.918   0.779  -1.079  1.00  0.00     0.051 A 
ATOM     10  C   UNL     1       7.450  -0.760  -2.154  1.00  0.00     0.166 A 
ATOM     11  C   UNL     1       8.733  -0.338  -1.888  1.00  0.00     0.165 A 
ATOM     12  O   UNL     1       7.532  -1.871  -2.966  1.00  0.00    -0.454 OA
ATOM     13  O   UNL     1       9.586  -1.209  -2.548  1.00  0.00    -0.454 OA
ATOM     14  C   UNL     1       8.869  -2.249  -3.169  1.00  0.00     0.468 C 
ENDBRANCH   5   6
ENDBRANCH   1   5
TORSDOF 3
ENDMDL
MODEL 3
REMARK VINA RESULT:      -7.2      0.982      1.108
REMARK SMILES CC(=O)CCc1ccc2c(c1)OCO2
REMARK SMILES IDX 4 1 2 2 1 3 3 4 5 5 6 6 7 7 11 8 8 9 10 10 9 11 12 12 14 13
REMARK SMILES IDX 13 14
REMARK H PARENT
REMARK Flexibility Score: inf
ROOT
ATOM      1  C   UNL     1       6.891   0.240   1.869  1.00  0.00     0.080 C 
ENDROOT
BRANCH   1   2
ATOM      2  C   UNL     1       5.545   0.791   1.547  1.00  0.00     0.130 C 
ATOM      3  C   UNL     1       5.302   1.590   0.317  1.00  0.00     0.087 C 
ATOM      4  O   UNL     1       4.596   0.600   2.291  1.00  0.00    -0.300 OA
ENDBRANCH   1   2
BRANCH   1   5
ATOM      5  C   UNL     1       6.790  -1.159   2.445  1.00  0.00     0.043 C 
BRANCH   5   6
ATOM      6  C   UNL     1       8.053  -1.582   3.076  1.00  0.00    -0.044 A 
ATOM      7  C   UNL     1       8.317  -1.331   4.427  1.00  0.00     0.008 A 
ATOM      8  C   UNL     1       9.001  -2.242   2.329  1.00  0.00     0.054 A 
ATOM      9  C   UNL     1       9.519  -1.753   4.966  1.00  0.00     0.051 A 
ATOM     10  C   UNL     1      10.215  -2.667   2.877  1.00  0.00     0.166 A 
ATOM     11  C   UNL     1      10.476  -2.420   4.207  1.00  0.00     0.165 A 
ATOM     12  O   UNL     1      11.303  -3.331   2.352  1.00  0.00    -0.454 OA
ATOM     13  O   UNL     1      11.731  -2.943   4.473  1.00  0.00    -0.454 OA
ATOM     14  C   UNL     1      12.253  -3.610   3.348  1.00  0.00     0.468 C 
ENDBRANCH   5   6
ENDBRANCH   1   5
TORSDOF 3
ENDMDL
MODEL 4
REMARK VINA RESULT:      -7.0      2.992      4.203
REMARK SMILES CC(=O)CCc1ccc2c(c1)OCO2
REMARK SMILES IDX 4 1 2 2 1 3 3 4 5 5 6 6 7 7 11 8 8 9 10 10 9 11 12 12 14 13
REMARK SMILES IDX 13 14
REMARK H PARENT
REMARK Flexibility Score: inf
ROOT
ATOM      1  C   UNL     1       5.702   1.496  -0.247  1.00  0.00     0.080 C 
ENDROOT
BRANCH   1   2
ATOM      2  C   UNL     1       5.097   1.290   1.099  1.00  0.00     0.130 C 
ATOM      3  C   UNL     1       5.481   0.138   1.959  1.00  0.00     0.087 C 
ATOM      4  O   UNL     1       4.264   2.066   1.537  1.00  0.00    -0.300 OA
ENDBRANCH   1   2
BRANCH   1   5
ATOM      5  C   UNL     1       7.199   1.258  -0.220  1.00  0.00     0.043 C 
BRANCH   5   6
ATOM      6  C   UNL     1       7.561  -0.018  -0.862  1.00  0.00    -0.044 A 
ATOM      7  C   UNL     1       7.594  -0.155  -2.255  1.00  0.00     0.008 A 
ATOM      8  C   UNL     1       7.880  -1.107  -0.083  1.00  0.00     0.054 A 
ATOM      9  C   UNL     1       7.942  -1.377  -2.801  1.00  0.00     0.051 A 
ATOM     10  C   UNL     1       8.232  -2.340  -0.641  1.00  0.00     0.166 A 
ATOM     11  C   UNL     1       8.263  -2.476  -2.011  1.00  0.00     0.165 A 
ATOM     12  O   UNL     1       8.584  -3.554  -0.090  1.00  0.00    -0.454 OA
ATOM     13  O   UNL     1       8.638  -3.784  -2.276  1.00  0.00    -0.454 OA
ATOM     14  C   UNL     1       8.940  -4.476  -1.088  1.00  0.00     0.468 C 
ENDBRANCH   5   6
ENDBRANCH   1   5
TORSDOF 3
ENDMDL
MODEL 5
REMARK VINA RESULT:      -7.0      0.914      1.902
REMARK SMILES CC(=O)CCc1ccc2c(c1)OCO2
REMARK SMILES IDX 4 1 2 2 1 3 3 4 5 5 6 6 7 7 11 8 8 9 10 10 9 11 12 12 14 13
REMARK SMILES IDX 13 14
REMARK H PARENT
REMARK Flexibility Score: inf
ROOT
ATOM      1  C   UNL     1       5.414   0.038   2.000  1.00  0.00     0.080 C 
ENDROOT
BRANCH   1   2
ATOM      2  C   UNL     1       5.239   1.142   1.014  1.00  0.00     0.130 C 
ATOM      3  C   UNL     1       5.890   1.105  -0.322  1.00  0.00     0.087 C 
ATOM      4  O   UNL     1       4.550   2.114   1.279  1.00  0.00    -0.300 OA
ENDBRANCH   1   2
BRANCH   1   5
ATOM      5  C   UNL     1       6.066  -1.172   1.361  1.00  0.00     0.043 C 
BRANCH   5   6
ATOM      6  C   UNL     1       7.329  -1.530   2.031  1.00  0.00    -0.044 A 
ATOM      7  C   UNL     1       8.335  -2.243   1.368  1.00  0.00     0.008 A 
ATOM      8  C   UNL     1       7.537  -1.156   3.339  1.00  0.00     0.054 A 
ATOM      9  C   UNL     1       9.499  -2.549   2.047  1.00  0.00     0.051 A 
ATOM     10  C   UNL     1       8.716  -1.469   4.022  1.00  0.00     0.166 A 
ATOM     11  C   UNL     1       9.706  -2.171   3.371  1.00  0.00     0.165 A 
ATOM     12  O   UNL     1       9.155  -1.215   5.304  1.00  0.00    -0.454 OA
ATOM     13  O   UNL     1      10.743  -2.336   4.275  1.00  0.00    -0.454 OA
ATOM     14  C   UNL     1      10.473  -1.667   5.484  1.00  0.00     0.468 C 
ENDBRANCH   5   6
ENDBRANCH   1   5
TORSDOF 3
ENDMDL
