MODEL 1
REMARK VINA RESULT:      -7.6      0.000      0.000
REMARK SMILES CC(=O)CCc1ccc2c(c1)OCO2
REMARK SMILES IDX 4 1 2 2 1 3 3 4 5 5 6 6 7 7 11 8 8 9 10 10 9 11 12 12 14 13
REMARK SMILES IDX 13 14
REMARK H PARENT
REMARK Flexibility Score: inf
ROOT
ATOM      1  C   UNL     1       5.509   1.925   1.256  1.00  0.00     0.080 C 
ENDROOT
BRANCH   1   2
ATOM      2  C   UNL     1       5.081   0.705   1.996  1.00  0.00     0.130 C 
ATOM      3  C   UNL     1       5.986  -0.463   2.165  1.00  0.00     0.087 C 
ATOM      4  O   UNL     1       3.967   0.629   2.487  1.00  0.00    -0.300 OA
ENDBRANCH   1   2
BRANCH   1   5
ATOM      5  C   UNL     1       5.389   1.730  -0.243  1.00  0.00     0.043 C 
BRANCH   5   6
ATOM      6  C   UNL     1       6.558   1.025  -0.798  1.00  0.00    -0.044 A 
ATOM      7  C   UNL     1       7.865   1.452  -0.534  1.00  0.00     0.008 A 
ATOM      8  C   UNL     1       6.373  -0.082  -1.594  1.00  0.00     0.054 A 
ATOM      9  C   UNL     1       8.923   0.751  -1.082  1.00  0.00     0.051 A 
ATOM     10  C   UNL     1       7.446  -0.788  -2.145  1.00  0.00     0.166 A 
ATOM     11  C   UNL     1       8.732  -0.368  -1.887  1.00  0.00     0.165 A 
ATOM     12  O   UNL     1       7.522  -1.901  -2.956  1.00  0.00    -0.454 OA
ATOM     13  O   UNL     1       9.580  -1.241  -2.551  1.00  0.00    -0.454 OA
ATOM     14  C   UNL     1       8.858  -2.281  -3.166  1.00  0.00     0.468 C 
ENDBRANCH   5   6
ENDBRANCH   1   5
TORSDOF 3
ENDMDL
MODEL 2
REMARK VINA RESULT:      -7.5      1.931      2.402
REMARK SMILES CC(=O)CCc1ccc2c(c1)OCO2
REMARK SMILES IDX 4 1 2 2 1 3 3 4 5 5 6 6 7 7 11 8 8 9 10 10 9 11 12 12 14 13
REMARK SMILES IDX 13 14
REMARK H PARENT
REMARK Flexibility Score: inf
ROOT
ATOM      1  C   UNL     1       5.714   1.237  -0.308  1.00  0.00     0.080 C 
ENDROOT
BRANCH   1   2
ATOM      2  C   UNL     1       5.146   1.211   1.069  1.00  0.00     0.130 C 
ATOM      3  C   UNL     1       5.380   0.065   1.988  1.00  0.00     0.087 C 
ATOM      4  O   UNL     1       4.467   2.135   1.484  1.00  0.00    -0.300 OA
ENDBRANCH   1   2
BRANCH   1   5
ATOM      5  C   UNL     1       7.217   1.045  -0.287  1.00  0.00     0.043 C 
BRANCH   5   6
ATOM      6  C   UNL     1       7.612  -0.240  -0.893  1.00  0.00    -0.044 A 
ATOM      7  C   UNL     1       7.723  -0.393  -2.280  1.00  0.00     0.008 A 
ATOM      8  C   UNL     1       7.883  -1.320  -0.085  1.00  0.00     0.054 A 
ATOM      9  C   UNL     1       8.099  -1.622  -2.791  1.00  0.00     0.051 A 
ATOM     10  C   UNL     1       8.263  -2.561  -0.607  1.00  0.00     0.166 A 
ATOM     11  C   UNL     1       8.371  -2.712  -1.971  1.00  0.00     0.165 A 
ATOM     12  O   UNL     1       8.580  -3.769  -0.023  1.00  0.00    -0.454 OA
ATOM     13  O   UNL     1       8.757  -4.024  -2.199  1.00  0.00    -0.454 OA
ATOM     14  C   UNL     1       8.989  -4.703  -0.988  1.00  0.00     0.468 C 
ENDBRANCH   5   6
ENDBRANCH   1   5
TORSDOF 3
ENDMDL
MODEL 3
REMARK VINA RESULT:      -7.2      2.094      2.641
REMARK SMILES CC(=O)CCc1ccc2c(c1)OCO2
REMARK SMILES IDX 4 1 2 2 1 3 3 4 5 5 6 6 7 7 11 8 8 9 10 10 9 11 12 12 14 13
REMARK SMILES IDX 13 14
REMARK H PARENT
REMARK Flexibility Score: inf
ROOT
ATOM      1  C   UNL     1       5.524  -0.019   1.914  1.00  0.00     0.080 C 
ENDROOT
BRANCH   1   2
ATOM      2  C   UNL     1       4.654   1.154   1.623  1.00  0.00     0.130 C 
ATOM      3  C   UNL     1       4.970   2.107   0.525  1.00  0.00     0.087 C 
ATOM      4  O   UNL     1       3.649   1.368   2.282  1.00  0.00    -0.300 OA
ENDBRANCH   1   2
BRANCH   1   5
ATOM      5  C   UNL     1       6.948   0.224   1.456  1.00  0.00     0.043 C 
BRANCH   5   6
ATOM      6  C   UNL     1       7.361  -0.739   0.419  1.00  0.00    -0.044 A 
ATOM      7  C   UNL     1       7.239  -0.445  -0.944  1.00  0.00     0.008 A 
ATOM      8  C   UNL     1       7.883  -1.957   0.789  1.00  0.00     0.054 A 
ATOM      9  C   UNL     1       7.643  -1.387  -1.872  1.00  0.00     0.051 A 
ATOM     10  C   UNL     1       8.291  -2.906  -0.153  1.00  0.00     0.166 A 
ATOM     11  C   UNL     1       8.170  -2.619  -1.495  1.00  0.00     0.165 A 
ATOM     12  O   UNL     1       8.831  -4.170  -0.041  1.00  0.00    -0.454 OA
ATOM     13  O   UNL     1       8.644  -3.723  -2.186  1.00  0.00    -0.454 OA
ATOM     14  C   UNL     1       9.157  -4.692  -1.304  1.00  0.00     0.468 C 
ENDBRANCH   5   6
ENDBRANCH   1   5
TORSDOF 3
ENDMDL
MODEL 4
REMARK VINA RESULT:      -7.1      1.254      1.467
REMARK SMILES CC(=O)CCc1ccc2c(c1)OCO2
REMARK SMILES IDX 4 1 2 2 1 3 3 4 5 5 6 6 7 7 11 8 8 9 10 10 9 11 12 12 14 13
REMARK SMILES IDX 13 14
REMARK H PARENT
REMARK Flexibility Score: inf
ROOT
ATOM      1  C   UNL     1       6.377   1.191   0.932  1.00  0.00     0.080 C 
ENDROOT
BRANCH   1   2
ATOM      2  C   UNL     1       5.658   0.370   1.946  1.00  0.00     0.130 C 
ATOM      3  C   UNL     1       6.262  -0.858   2.527  1.00  0.00     0.087 C 
ATOM      4  O   UNL     1       4.543   0.685   2.330  1.00  0.00    -0.300 OA
ENDBRANCH   1   2
BRANCH   1   5
ATOM      5  C   UNL     1       5.864   0.913  -0.467  1.00  0.00     0.043 C 
BRANCH   5   6
ATOM      6  C   UNL     1       6.812   0.096  -1.244  1.00  0.00    -0.044 A 
ATOM      7  C   UNL     1       7.491   0.616  -2.352  1.00  0.00     0.008 A 
ATOM      8  C   UNL     1       7.046  -1.211  -0.880  1.00  0.00     0.054 A 
ATOM      9  C   UNL     1       8.370  -0.198  -3.043  1.00  0.00     0.051 A 
ATOM     10  C   UNL     1       7.936  -2.029  -1.582  1.00  0.00     0.166 A 
ATOM     11  C   UNL     1       8.603  -1.518  -2.673  1.00  0.00     0.165 A 
ATOM     12  O   UNL     1       8.333  -3.340  -1.421  1.00  0.00    -0.454 OA
ATOM     13  O   UNL     1       9.406  -2.536  -3.164  1.00  0.00    -0.454 OA
ATOM     14  C   UNL     1       9.334  -3.680  -2.347  1.00  0.00     0.468 C 
ENDBRANCH   5   6
ENDBRANCH   1   5
TORSDOF 3
ENDMDL
MODEL 5
REMARK VINA RESULT:      -6.8      1.971      2.743
REMARK SMILES CC(=O)CCc1ccc2c(c1)OCO2
REMARK SMILES IDX 4 1 2 2 1 3 3 4 5 5 6 6 7 7 11 8 8 9 10 10 9 11 12 12 14 13
REMARK SMILES IDX 13 14
REMARK H PARENT
REMARK Flexibility Score: inf
ROOT
ATOM      1  C   UNL     1       6.746   0.827   0.697  1.00  0.00     0.080 C 
ENDROOT
BRANCH   1   2
ATOM      2  C   UNL     1       5.436   1.536   0.676  1.00  0.00     0.130 C 
ATOM      3  C   UNL     1       4.901   2.150  -0.569  1.00  0.00     0.087 C 
ATOM      4  O   UNL     1       4.760   1.635   1.687  1.00  0.00    -0.300 OA
ENDBRANCH   1   2
BRANCH   1   5
ATOM      5  C   UNL     1       7.452   0.934  -0.640  1.00  0.00     0.043 C 
BRANCH   5   6
ATOM      6  C   UNL     1       7.856  -0.387  -1.152  1.00  0.00    -0.044 A 
ATOM      7  C   UNL     1       8.111  -0.599  -2.512  1.00  0.00     0.008 A 
ATOM      8  C   UNL     1       7.993  -1.444  -0.281  1.00  0.00     0.054 A 
ATOM      9  C   UNL     1       8.488  -1.861  -2.935  1.00  0.00     0.051 A 
ATOM     10  C   UNL     1       8.375  -2.717  -0.713  1.00  0.00     0.166 A 
ATOM     11  C   UNL     1       8.624  -2.928  -2.051  1.00  0.00     0.165 A 
ATOM     12  O   UNL     1       8.576  -3.912  -0.055  1.00  0.00    -0.454 OA
ATOM     13  O   UNL     1       8.978  -4.261  -2.188  1.00  0.00    -0.454 OA
ATOM     14  C   UNL     1       9.048  -4.899  -0.936  1.00  0.00     0.468 C 
ENDBRANCH   5   6
ENDBRANCH   1   5
TORSDOF 3
ENDMDL
