@<TRIPOS>MOLECULE
/home/cewinharhar/GITHUB/reincatalyze/data/processed/docking_pred/2023-May-30-2130_sub9_nm5_bs15_s42_ex16_mel10_mts10000_k50_ec05_g099_lra3e-4_lrc3e-3/4fd116288ae20ad94bf91d23a53b6bc9c92e4cae_ligand_9.pdbqt
 14 15 0 0 0
SMALL
GASTEIGER

@<TRIPOS>ATOM
      1  C          5.5240   -0.0190    1.9140 C.3     1  UNL1        0.0800
      2  C          4.6540    1.1540    1.6230 C.2     1  UNL1        0.1300
      3  C          4.9700    2.1070    0.5250 C.3     1  UNL1        0.0870
      4  O          3.6490    1.3680    2.2820 O.2     1  UNL1       -0.3000
      5  C          6.9480    0.2240    1.4560 C.3     1  UNL1        0.0430
      6  C          7.3610   -0.7390    0.4190 C.2     1  UNL1       -0.0440
      7  C          7.2390   -0.4450   -0.9440 C.2     1  UNL1        0.0080
      8  C          7.8830   -1.9570    0.7890 C.2     1  UNL1        0.0540
      9  C          7.6430   -1.3870   -1.8720 C.2     1  UNL1        0.0510
     10  C          8.2910   -2.9060   -0.1530 C.2     1  UNL1        0.1660
     11  C          8.1700   -2.6190   -1.4950 C.2     1  UNL1        0.1650
     12  O          8.8310   -4.1700   -0.0410 O.2     1  UNL1       -0.4540
     13  O          8.6440   -3.7230   -2.1860 O.2     1  UNL1       -0.4540
     14  C          9.1570   -4.6920   -1.3040 C.3     1  UNL1        0.4680
@<TRIPOS>BOND
     1    13    11    1
     2    13    14    1
     3     9    11    2
     4     9     7    1
     5    11    10    1
     6    14    12    1
     7     7     6    2
     8    10    12    1
     9    10     8    2
    10     6     8    1
    11     6     5    1
    12     3     2    1
    13     5     1    1
    14     2     1    1
    15     2     4    2
