MODEL 1
REMARK VINA RESULT:      -7.6      0.000      0.000
REMARK SMILES CC(=O)CCc1ccc2c(c1)OCO2
REMARK SMILES IDX 4 1 2 2 1 3 3 4 5 5 6 6 7 7 11 8 8 9 10 10 9 11 12 12 14 13
REMARK SMILES IDX 13 14
REMARK H PARENT
REMARK Flexibility Score: inf
ROOT
ATOM      1  C   UNL     1       5.596   1.884   1.328  1.00  0.00     0.080 C 
ENDROOT
BRANCH   1   2
ATOM      2  C   UNL     1       5.141   0.659   2.043  1.00  0.00     0.130 C 
ATOM      3  C   UNL     1       6.031  -0.520   2.217  1.00  0.00     0.087 C 
ATOM      4  O   UNL     1       4.016   0.587   2.510  1.00  0.00    -0.300 OA
ENDBRANCH   1   2
BRANCH   1   5
ATOM      5  C   UNL     1       5.452   1.730  -0.173  1.00  0.00     0.043 C 
BRANCH   5   6
ATOM      6  C   UNL     1       6.606   1.028  -0.764  1.00  0.00    -0.044 A 
ATOM      7  C   UNL     1       7.918   1.467  -0.551  1.00  0.00     0.008 A 
ATOM      8  C   UNL     1       6.400  -0.088  -1.542  1.00  0.00     0.054 A 
ATOM      9  C   UNL     1       8.961   0.768  -1.130  1.00  0.00     0.051 A 
ATOM     10  C   UNL     1       7.459  -0.792  -2.124  1.00  0.00     0.166 A 
ATOM     11  C   UNL     1       8.750  -0.360  -1.917  1.00  0.00     0.165 A 
ATOM     12  O   UNL     1       7.514  -1.912  -2.926  1.00  0.00    -0.454 OA
ATOM     13  O   UNL     1       9.580  -1.233  -2.602  1.00  0.00    -0.454 OA
ATOM     14  C   UNL     1       8.844  -2.284  -3.181  1.00  0.00     0.468 C 
ENDBRANCH   5   6
ENDBRANCH   1   5
TORSDOF 3
ENDMDL
MODEL 2
REMARK VINA RESULT:      -7.4      1.927      2.397
REMARK SMILES CC(=O)CCc1ccc2c(c1)OCO2
REMARK SMILES IDX 4 1 2 2 1 3 3 4 5 5 6 6 7 7 11 8 8 9 10 10 9 11 12 12 14 13
REMARK SMILES IDX 13 14
REMARK H PARENT
REMARK Flexibility Score: inf
ROOT
ATOM      1  C   UNL     1       5.745   1.292  -0.294  1.00  0.00     0.080 C 
ENDROOT
BRANCH   1   2
ATOM      2  C   UNL     1       5.168   1.226   1.078  1.00  0.00     0.130 C 
ATOM      3  C   UNL     1       5.369   0.039   1.952  1.00  0.00     0.087 C 
ATOM      4  O   UNL     1       4.510   2.150   1.527  1.00  0.00    -0.300 OA
ENDBRANCH   1   2
BRANCH   1   5
ATOM      5  C   UNL     1       7.245   1.078  -0.271  1.00  0.00     0.043 C 
BRANCH   5   6
ATOM      6  C   UNL     1       7.622  -0.213  -0.875  1.00  0.00    -0.044 A 
ATOM      7  C   UNL     1       7.707  -0.376  -2.263  1.00  0.00     0.008 A 
ATOM      8  C   UNL     1       7.902  -1.289  -0.065  1.00  0.00     0.054 A 
ATOM      9  C   UNL     1       8.066  -1.610  -2.772  1.00  0.00     0.051 A 
ATOM     10  C   UNL     1       8.265  -2.535  -0.585  1.00  0.00     0.166 A 
ATOM     11  C   UNL     1       8.348  -2.697  -1.950  1.00  0.00     0.165 A 
ATOM     12  O   UNL     1       8.586  -3.741   0.002  1.00  0.00    -0.454 OA
ATOM     13  O   UNL     1       8.723  -4.012  -2.176  1.00  0.00    -0.454 OA
ATOM     14  C   UNL     1       8.973  -4.684  -0.964  1.00  0.00     0.468 C 
ENDBRANCH   5   6
ENDBRANCH   1   5
TORSDOF 3
ENDMDL
MODEL 3
REMARK VINA RESULT:      -7.1      2.060      2.616
REMARK SMILES CC(=O)CCc1ccc2c(c1)OCO2
REMARK SMILES IDX 4 1 2 2 1 3 3 4 5 5 6 6 7 7 11 8 8 9 10 10 9 11 12 12 14 13
REMARK SMILES IDX 13 14
REMARK H PARENT
REMARK Flexibility Score: inf
ROOT
ATOM      1  C   UNL     1       5.444  -0.036   1.977  1.00  0.00     0.080 C 
ENDROOT
BRANCH   1   2
ATOM      2  C   UNL     1       4.591   1.156   1.707  1.00  0.00     0.130 C 
ATOM      3  C   UNL     1       4.918   2.120   0.623  1.00  0.00     0.087 C 
ATOM      4  O   UNL     1       3.593   1.376   2.374  1.00  0.00    -0.300 OA
ENDBRANCH   1   2
BRANCH   1   5
ATOM      5  C   UNL     1       6.880   0.210   1.561  1.00  0.00     0.043 C 
BRANCH   5   6
ATOM      6  C   UNL     1       7.310  -0.722   0.503  1.00  0.00    -0.044 A 
ATOM      7  C   UNL     1       7.204  -0.390  -0.852  1.00  0.00     0.008 A 
ATOM      8  C   UNL     1       7.831  -1.949   0.845  1.00  0.00     0.054 A 
ATOM      9  C   UNL     1       7.625  -1.304  -1.801  1.00  0.00     0.051 A 
ATOM     10  C   UNL     1       8.255  -2.869  -0.118  1.00  0.00     0.166 A 
ATOM     11  C   UNL     1       8.151  -2.544  -1.452  1.00  0.00     0.165 A 
ATOM     12  O   UNL     1       8.799  -4.133  -0.035  1.00  0.00    -0.454 OA
ATOM     13  O   UNL     1       8.638  -3.627  -2.168  1.00  0.00    -0.454 OA
ATOM     14  C   UNL     1       9.144  -4.619  -1.307  1.00  0.00     0.468 C 
ENDBRANCH   5   6
ENDBRANCH   1   5
TORSDOF 3
ENDMDL
MODEL 4
REMARK VINA RESULT:      -7.0      1.245      1.454
REMARK SMILES CC(=O)CCc1ccc2c(c1)OCO2
REMARK SMILES IDX 4 1 2 2 1 3 3 4 5 5 6 6 7 7 11 8 8 9 10 10 9 11 12 12 14 13
REMARK SMILES IDX 13 14
REMARK H PARENT
REMARK Flexibility Score: inf
ROOT
ATOM      1  C   UNL     1       6.337   1.228   0.876  1.00  0.00     0.080 C 
ENDROOT
BRANCH   1   2
ATOM      2  C   UNL     1       5.671   0.389   1.912  1.00  0.00     0.130 C 
ATOM      3  C   UNL     1       6.325  -0.821   2.476  1.00  0.00     0.087 C 
ATOM      4  O   UNL     1       4.560   0.675   2.329  1.00  0.00    -0.300 OA
ENDBRANCH   1   2
BRANCH   1   5
ATOM      5  C   UNL     1       5.830   0.893  -0.513  1.00  0.00     0.043 C 
BRANCH   5   6
ATOM      6  C   UNL     1       6.799   0.076  -1.266  1.00  0.00    -0.044 A 
ATOM      7  C   UNL     1       7.508   0.597  -2.353  1.00  0.00     0.008 A 
ATOM      8  C   UNL     1       7.020  -1.232  -0.897  1.00  0.00     0.054 A 
ATOM      9  C   UNL     1       8.405  -0.218  -3.022  1.00  0.00     0.051 A 
ATOM     10  C   UNL     1       7.928  -2.051  -1.575  1.00  0.00     0.166 A 
ATOM     11  C   UNL     1       8.626  -1.539  -2.647  1.00  0.00     0.165 A 
ATOM     12  O   UNL     1       8.318  -3.362  -1.406  1.00  0.00    -0.454 OA
ATOM     13  O   UNL     1       9.439  -2.558  -3.118  1.00  0.00    -0.454 OA
ATOM     14  C   UNL     1       9.343  -3.703  -2.304  1.00  0.00     0.468 C 
ENDBRANCH   5   6
ENDBRANCH   1   5
TORSDOF 3
ENDMDL
MODEL 5
REMARK VINA RESULT:      -7.0      1.890      2.447
REMARK SMILES CC(=O)CCc1ccc2c(c1)OCO2
REMARK SMILES IDX 4 1 2 2 1 3 3 4 5 5 6 6 7 7 11 8 8 9 10 10 9 11 12 12 14 13
REMARK SMILES IDX 13 14
REMARK H PARENT
REMARK Flexibility Score: inf
ROOT
ATOM      1  C   UNL     1       6.837   1.016   1.290  1.00  0.00     0.080 C 
ENDROOT
BRANCH   1   2
ATOM      2  C   UNL     1       5.368   1.233   1.409  1.00  0.00     0.130 C 
ATOM      3  C   UNL     1       4.637   2.150   0.493  1.00  0.00     0.087 C 
ATOM      4  O   UNL     1       4.718   0.661   2.268  1.00  0.00    -0.300 OA
ENDBRANCH   1   2
BRANCH   1   5
ATOM      5  C   UNL     1       7.306   1.199  -0.140  1.00  0.00     0.043 C 
BRANCH   5   6
ATOM      6  C   UNL     1       7.633  -0.090  -0.777  1.00  0.00    -0.044 A 
ATOM      7  C   UNL     1       7.627  -0.243  -2.168  1.00  0.00     0.008 A 
ATOM      8  C   UNL     1       7.957  -1.175   0.006  1.00  0.00     0.054 A 
ATOM      9  C   UNL     1       7.943  -1.476  -2.709  1.00  0.00     0.051 A 
ATOM     10  C   UNL     1       8.276  -2.419  -0.546  1.00  0.00     0.166 A 
ATOM     11  C   UNL     1       8.269  -2.571  -1.914  1.00  0.00     0.165 A 
ATOM     12  O   UNL     1       8.626  -3.631   0.010  1.00  0.00    -0.454 OA
ATOM     13  O   UNL     1       8.619  -3.886  -2.174  1.00  0.00    -0.454 OA
ATOM     14  C   UNL     1       8.942  -4.570  -0.986  1.00  0.00     0.468 C 
ENDBRANCH   5   6
ENDBRANCH   1   5
TORSDOF 3
ENDMDL
