@<TRIPOS>MOLECULE
/home/cewinharhar/GITHUB/reincatalyze/data/processed/docking_pred/2023-May-30-2130_sub9_nm5_bs15_s42_ex16_mel10_mts10000_k50_ec05_g099_lra3e-4_lrc3e-3/5131ba4422f83928eab452067adeb3f7f7723c60_ligand_9.pdbqt
 14 15 0 0 0
SMALL
GASTEIGER

@<TRIPOS>ATOM
      1  C          5.5960    1.8840    1.3280 C.3     1  UNL1        0.0800
      2  C          5.1410    0.6590    2.0430 C.2     1  UNL1        0.1300
      3  C          6.0310   -0.5200    2.2170 C.3     1  UNL1        0.0870
      4  O          4.0160    0.5870    2.5100 O.2     1  UNL1       -0.3000
      5  C          5.4520    1.7300   -0.1730 C.3     1  UNL1        0.0430
      6  C          6.6060    1.0280   -0.7640 C.2     1  UNL1       -0.0440
      7  C          7.9180    1.4670   -0.5510 C.2     1  UNL1        0.0080
      8  C          6.4000   -0.0880   -1.5420 C.2     1  UNL1        0.0540
      9  C          8.9610    0.7680   -1.1300 C.2     1  UNL1        0.0510
     10  C          7.4590   -0.7920   -2.1240 C.2     1  UNL1        0.1660
     11  C          8.7500   -0.3600   -1.9170 C.2     1  UNL1        0.1650
     12  O          7.5140   -1.9120   -2.9260 O.2     1  UNL1       -0.4540
     13  O          9.5800   -1.2330   -2.6020 O.2     1  UNL1       -0.4540
     14  C          8.8440   -2.2840   -3.1810 C.3     1  UNL1        0.4680
@<TRIPOS>BOND
     1    14    12    1
     2    14    13    1
     3    12    10    1
     4    13    11    1
     5    10    11    2
     6    10     8    1
     7    11     9    1
     8     8     6    2
     9     9     7    2
    10     6     7    1
    11     6     5    1
    12     5     1    1
    13     1     2    1
    14     2     3    1
    15     2     4    2
