@<TRIPOS>MOLECULE
/home/cewinharhar/GITHUB/reincatalyze/data/processed/docking_pred/2023-May-30-2130_sub9_nm5_bs15_s42_ex16_mel10_mts10000_k50_ec05_g099_lra3e-4_lrc3e-3/51335195432d6c3c52ef841bfe8bb9323d602809_ligand_9.pdbqt
 14 15 0 0 0
SMALL
GASTEIGER

@<TRIPOS>ATOM
      1  C          5.6970    1.2610   -0.3050 C.3     1  UNL1        0.0800
      2  C          5.1630    1.2270    1.0850 C.2     1  UNL1        0.1300
      3  C          5.4190    0.0770    1.9930 C.3     1  UNL1        0.0870
      4  O          4.4930    2.1500    1.5210 O.2     1  UNL1       -0.3000
      5  C          7.2040    1.0990   -0.3190 C.3     1  UNL1        0.0430
      6  C          7.6100   -0.1890   -0.9080 C.2     1  UNL1       -0.0440
      7  C          7.7370   -0.3550   -2.2920 C.2     1  UNL1        0.0080
      8  C          7.8750   -1.2620   -0.0870 C.2     1  UNL1        0.0540
      9  C          8.1220   -1.5870   -2.7880 C.2     1  UNL1        0.0510
     10  C          8.2650   -2.5050   -0.5940 C.2     1  UNL1        0.1660
     11  C          8.3890   -2.6690   -1.9550 C.2     1  UNL1        0.1650
     12  O          8.5800   -3.7070    0.0050 O.2     1  UNL1       -0.4540
     13  O          8.7820   -3.9820   -2.1670 O.2     1  UNL1       -0.4540
     14  C          9.0030   -4.6490   -0.9470 C.3     1  UNL1        0.4680
@<TRIPOS>BOND
     1     9     7    1
     2     9    11    2
     3     7     6    2
     4    13    11    1
     5    13    14    1
     6    11    10    1
     7    14    12    1
     8     6     5    1
     9     6     8    1
    10    10     8    2
    11    10    12    1
    12     5     1    1
    13     1     2    1
    14     2     4    2
    15     2     3    1
