@<TRIPOS>MOLECULE
/home/cewinharhar/GITHUB/reincatalyze/data/processed/docking_pred/2023-May-30-2130_sub9_nm5_bs15_s42_ex16_mel10_mts10000_k50_ec05_g099_lra3e-4_lrc3e-3/51cadb519a72bd0ce332fe372f57097c9ba117cb_ligand_9.pdbqt
 14 15 0 0 0
SMALL
GASTEIGER

@<TRIPOS>ATOM
      1  C          5.4820   -0.0300    2.0050 C.3     1  UNL1        0.0800
      2  C          4.6180    1.1550    1.7430 C.2     1  UNL1        0.1300
      3  C          4.9320    2.1270    0.6630 C.3     1  UNL1        0.0870
      4  O          3.6190    1.3620    2.4130 O.2     1  UNL1       -0.3000
      5  C          6.9080    0.2190    1.5530 C.3     1  UNL1        0.0430
      6  C          7.3190   -0.7250    0.4980 C.2     1  UNL1       -0.0440
      7  C          7.1770   -0.4160   -0.8590 C.2     1  UNL1        0.0080
      8  C          7.8590   -1.9430    0.8460 C.2     1  UNL1        0.0540
      9  C          7.5810   -1.3410   -1.8040 C.2     1  UNL1        0.0510
     10  C          8.2670   -2.8750   -0.1140 C.2     1  UNL1        0.1660
     11  C          8.1260   -2.5710   -1.4500 C.2     1  UNL1        0.1650
     12  O          8.8230   -4.1330   -0.0250 O.2     1  UNL1       -0.4540
     13  O          8.6050   -3.6600   -2.1610 O.2     1  UNL1       -0.4540
     14  C          9.1400   -4.6350   -1.2970 C.3     1  UNL1        0.4680
@<TRIPOS>BOND
     1    13    11    1
     2    13    14    1
     3     9    11    2
     4     9     7    1
     5    11    10    1
     6    14    12    1
     7     7     6    2
     8    10    12    1
     9    10     8    2
    10     6     8    1
    11     6     5    1
    12     3     2    1
    13     5     1    1
    14     2     1    1
    15     2     4    2
