MODEL 1
REMARK VINA RESULT:      -7.6      0.000      0.000
REMARK SMILES CC(=O)CCc1ccc2c(c1)OCO2
REMARK SMILES IDX 4 1 2 2 1 3 3 4 5 5 6 6 7 7 11 8 8 9 10 10 9 11 12 12 14 13
REMARK SMILES IDX 13 14
REMARK H PARENT
REMARK Flexibility Score: inf
ROOT
ATOM      1  C   UNL     1       5.537   1.916   1.271  1.00  0.00     0.080 C 
ENDROOT
BRANCH   1   2
ATOM      2  C   UNL     1       5.108   0.698   2.013  1.00  0.00     0.130 C 
ATOM      3  C   UNL     1       6.016  -0.466   2.194  1.00  0.00     0.087 C 
ATOM      4  O   UNL     1       3.991   0.620   2.497  1.00  0.00    -0.300 OA
ENDBRANCH   1   2
BRANCH   1   5
ATOM      5  C   UNL     1       5.406   1.723  -0.227  1.00  0.00     0.043 C 
BRANCH   5   6
ATOM      6  C   UNL     1       6.573   1.021  -0.791  1.00  0.00    -0.044 A 
ATOM      7  C   UNL     1       7.880   1.451  -0.538  1.00  0.00     0.008 A 
ATOM      8  C   UNL     1       6.384  -0.087  -1.586  1.00  0.00     0.054 A 
ATOM      9  C   UNL     1       8.936   0.752  -1.094  1.00  0.00     0.051 A 
ATOM     10  C   UNL     1       7.455  -0.790  -2.146  1.00  0.00     0.166 A 
ATOM     11  C   UNL     1       8.741  -0.367  -1.897  1.00  0.00     0.165 A 
ATOM     12  O   UNL     1       7.527  -1.903  -2.957  1.00  0.00    -0.454 OA
ATOM     13  O   UNL     1       9.586  -1.238  -2.568  1.00  0.00    -0.454 OA
ATOM     14  C   UNL     1       8.862  -2.280  -3.178  1.00  0.00     0.468 C 
ENDBRANCH   5   6
ENDBRANCH   1   5
TORSDOF 3
ENDMDL
MODEL 2
REMARK VINA RESULT:      -7.4      1.892      2.350
REMARK SMILES CC(=O)CCc1ccc2c(c1)OCO2
REMARK SMILES IDX 4 1 2 2 1 3 3 4 5 5 6 6 7 7 11 8 8 9 10 10 9 11 12 12 14 13
REMARK SMILES IDX 13 14
REMARK H PARENT
REMARK Flexibility Score: inf
ROOT
ATOM      1  C   UNL     1       5.747   1.288  -0.307  1.00  0.00     0.080 C 
ENDROOT
BRANCH   1   2
ATOM      2  C   UNL     1       5.270   1.240   1.103  1.00  0.00     0.130 C 
ATOM      3  C   UNL     1       5.580   0.089   1.994  1.00  0.00     0.087 C 
ATOM      4  O   UNL     1       4.605   2.150   1.571  1.00  0.00    -0.300 OA
ENDBRANCH   1   2
BRANCH   1   5
ATOM      5  C   UNL     1       7.255   1.152  -0.383  1.00  0.00     0.043 C 
BRANCH   5   6
ATOM      6  C   UNL     1       7.659  -0.141  -0.964  1.00  0.00    -0.044 A 
ATOM      7  C   UNL     1       7.836  -0.301  -2.344  1.00  0.00     0.008 A 
ATOM      8  C   UNL     1       7.872  -1.223  -0.141  1.00  0.00     0.054 A 
ATOM      9  C   UNL     1       8.216  -1.537  -2.832  1.00  0.00     0.051 A 
ATOM     10  C   UNL     1       8.257  -2.470  -0.640  1.00  0.00     0.166 A 
ATOM     11  C   UNL     1       8.430  -2.629  -1.997  1.00  0.00     0.165 A 
ATOM     12  O   UNL     1       8.526  -3.681  -0.037  1.00  0.00    -0.454 OA
ATOM     13  O   UNL     1       8.806  -3.947  -2.201  1.00  0.00    -0.454 OA
ATOM     14  C   UNL     1       8.967  -4.626  -0.978  1.00  0.00     0.468 C 
ENDBRANCH   5   6
ENDBRANCH   1   5
TORSDOF 3
ENDMDL
MODEL 3
REMARK VINA RESULT:      -7.2      2.069      2.633
REMARK SMILES CC(=O)CCc1ccc2c(c1)OCO2
REMARK SMILES IDX 4 1 2 2 1 3 3 4 5 5 6 6 7 7 11 8 8 9 10 10 9 11 12 12 14 13
REMARK SMILES IDX 13 14
REMARK H PARENT
REMARK Flexibility Score: inf
ROOT
ATOM      1  C   UNL     1       5.482  -0.030   2.005  1.00  0.00     0.080 C 
ENDROOT
BRANCH   1   2
ATOM      2  C   UNL     1       4.618   1.155   1.743  1.00  0.00     0.130 C 
ATOM      3  C   UNL     1       4.932   2.127   0.663  1.00  0.00     0.087 C 
ATOM      4  O   UNL     1       3.619   1.362   2.413  1.00  0.00    -0.300 OA
ENDBRANCH   1   2
BRANCH   1   5
ATOM      5  C   UNL     1       6.908   0.219   1.553  1.00  0.00     0.043 C 
BRANCH   5   6
ATOM      6  C   UNL     1       7.319  -0.725   0.498  1.00  0.00    -0.044 A 
ATOM      7  C   UNL     1       7.177  -0.416  -0.859  1.00  0.00     0.008 A 
ATOM      8  C   UNL     1       7.859  -1.943   0.846  1.00  0.00     0.054 A 
ATOM      9  C   UNL     1       7.581  -1.341  -1.804  1.00  0.00     0.051 A 
ATOM     10  C   UNL     1       8.267  -2.875  -0.114  1.00  0.00     0.166 A 
ATOM     11  C   UNL     1       8.126  -2.571  -1.450  1.00  0.00     0.165 A 
ATOM     12  O   UNL     1       8.823  -4.133  -0.025  1.00  0.00    -0.454 OA
ATOM     13  O   UNL     1       8.605  -3.660  -2.161  1.00  0.00    -0.454 OA
ATOM     14  C   UNL     1       9.140  -4.635  -1.297  1.00  0.00     0.468 C 
ENDBRANCH   5   6
ENDBRANCH   1   5
TORSDOF 3
ENDMDL
MODEL 4
REMARK VINA RESULT:      -7.1      1.242      1.445
REMARK SMILES CC(=O)CCc1ccc2c(c1)OCO2
REMARK SMILES IDX 4 1 2 2 1 3 3 4 5 5 6 6 7 7 11 8 8 9 10 10 9 11 12 12 14 13
REMARK SMILES IDX 13 14
REMARK H PARENT
REMARK Flexibility Score: inf
ROOT
ATOM      1  C   UNL     1       6.354   1.232   0.884  1.00  0.00     0.080 C 
ENDROOT
BRANCH   1   2
ATOM      2  C   UNL     1       5.656   0.422   1.921  1.00  0.00     0.130 C 
ATOM      3  C   UNL     1       6.269  -0.806   2.495  1.00  0.00     0.087 C 
ATOM      4  O   UNL     1       4.554   0.745   2.332  1.00  0.00    -0.300 OA
ENDBRANCH   1   2
BRANCH   1   5
ATOM      5  C   UNL     1       5.841   0.907  -0.505  1.00  0.00     0.043 C 
BRANCH   5   6
ATOM      6  C   UNL     1       6.807   0.098  -1.269  1.00  0.00    -0.044 A 
ATOM      7  C   UNL     1       7.517   0.632  -2.351  1.00  0.00     0.008 A 
ATOM      8  C   UNL     1       7.028  -1.214  -0.917  1.00  0.00     0.054 A 
ATOM      9  C   UNL     1       8.411  -0.175  -3.031  1.00  0.00     0.051 A 
ATOM     10  C   UNL     1       7.934  -2.025  -1.606  1.00  0.00     0.166 A 
ATOM     11  C   UNL     1       8.631  -1.502  -2.672  1.00  0.00     0.165 A 
ATOM     12  O   UNL     1       8.323  -3.339  -1.454  1.00  0.00    -0.454 OA
ATOM     13  O   UNL     1       9.443  -2.515  -3.157  1.00  0.00    -0.454 OA
ATOM     14  C   UNL     1       9.347  -3.670  -2.358  1.00  0.00     0.468 C 
ENDBRANCH   5   6
ENDBRANCH   1   5
TORSDOF 3
ENDMDL
MODEL 5
REMARK VINA RESULT:      -6.8      1.268      1.757
REMARK SMILES CC(=O)CCc1ccc2c(c1)OCO2
REMARK SMILES IDX 4 1 2 2 1 3 3 4 5 5 6 6 7 7 11 8 8 9 10 10 9 11 12 12 14 13
REMARK SMILES IDX 13 14
REMARK H PARENT
REMARK Flexibility Score: inf
ROOT
ATOM      1  C   UNL     1       5.324  -0.063   1.976  1.00  0.00     0.080 C 
ENDROOT
BRANCH   1   2
ATOM      2  C   UNL     1       4.441   1.121   1.787  1.00  0.00     0.130 C 
ATOM      3  C   UNL     1       4.725   2.150   0.752  1.00  0.00     0.087 C 
ATOM      4  O   UNL     1       3.451   1.281   2.483  1.00  0.00    -0.300 OA
ENDBRANCH   1   2
BRANCH   1   5
ATOM      5  C   UNL     1       6.788   0.325   1.906  1.00  0.00     0.043 C 
BRANCH   5   6
ATOM      6  C   UNL     1       7.388  -0.036   0.609  1.00  0.00    -0.044 A 
ATOM      7  C   UNL     1       7.874   0.937  -0.271  1.00  0.00     0.008 A 
ATOM      8  C   UNL     1       7.481  -1.361   0.246  1.00  0.00     0.054 A 
ATOM      9  C   UNL     1       8.427   0.538  -1.474  1.00  0.00     0.051 A 
ATOM     10  C   UNL     1       8.042  -1.759  -0.971  1.00  0.00     0.166 A 
ATOM     11  C   UNL     1       8.519  -0.801  -1.838  1.00  0.00     0.165 A 
ATOM     12  O   UNL     1       8.245  -2.992  -1.553  1.00  0.00    -0.454 OA
ATOM     13  O   UNL     1       9.011  -1.473  -2.946  1.00  0.00    -0.454 OA
ATOM     14  C   UNL     1       8.940  -2.868  -2.767  1.00  0.00     0.468 C 
ENDBRANCH   5   6
ENDBRANCH   1   5
TORSDOF 3
ENDMDL
