@<TRIPOS>MOLECULE
/home/cewinharhar/GITHUB/reincatalyze/data/processed/docking_pred/2023-May-30-2130_sub9_nm5_bs15_s42_ex16_mel10_mts10000_k50_ec05_g099_lra3e-4_lrc3e-3/51cadb519a72bd0ce332fe372f57097c9ba117cb_ligand_9.pdbqt
 14 15 0 0 0
SMALL
GASTEIGER

@<TRIPOS>ATOM
      1  C          5.7470    1.2880   -0.3070 C.3     1  UNL1        0.0800
      2  C          5.2700    1.2400    1.1030 C.2     1  UNL1        0.1300
      3  C          5.5800    0.0890    1.9940 C.3     1  UNL1        0.0870
      4  O          4.6050    2.1500    1.5710 O.2     1  UNL1       -0.3000
      5  C          7.2550    1.1520   -0.3830 C.3     1  UNL1        0.0430
      6  C          7.6590   -0.1410   -0.9640 C.2     1  UNL1       -0.0440
      7  C          7.8360   -0.3010   -2.3440 C.2     1  UNL1        0.0080
      8  C          7.8720   -1.2230   -0.1410 C.2     1  UNL1        0.0540
      9  C          8.2160   -1.5370   -2.8320 C.2     1  UNL1        0.0510
     10  C          8.2570   -2.4700   -0.6400 C.2     1  UNL1        0.1660
     11  C          8.4300   -2.6290   -1.9970 C.2     1  UNL1        0.1650
     12  O          8.5260   -3.6810   -0.0370 O.2     1  UNL1       -0.4540
     13  O          8.8060   -3.9470   -2.2010 O.2     1  UNL1       -0.4540
     14  C          8.9670   -4.6260   -0.9780 C.3     1  UNL1        0.4680
@<TRIPOS>BOND
     1     9     7    1
     2     9    11    2
     3     7     6    2
     4    13    11    1
     5    13    14    1
     6    11    10    1
     7    14    12    1
     8     6     5    1
     9     6     8    1
    10    10     8    2
    11    10    12    1
    12     5     1    1
    13     1     2    1
    14     2     4    2
    15     2     3    1
