@<TRIPOS>MOLECULE
/home/cewinharhar/GITHUB/reincatalyze/data/processed/docking_pred/2023-May-30-2130_sub9_nm5_bs15_s42_ex16_mel10_mts10000_k50_ec05_g099_lra3e-4_lrc3e-3/51cadb519a72bd0ce332fe372f57097c9ba117cb_ligand_9.pdbqt
 14 15 0 0 0
SMALL
GASTEIGER

@<TRIPOS>ATOM
      1  C          5.3240   -0.0630    1.9760 C.3     1  UNL1        0.0800
      2  C          4.4410    1.1210    1.7870 C.2     1  UNL1        0.1300
      3  C          4.7250    2.1500    0.7520 C.3     1  UNL1        0.0870
      4  O          3.4510    1.2810    2.4830 O.2     1  UNL1       -0.3000
      5  C          6.7880    0.3250    1.9060 C.3     1  UNL1        0.0430
      6  C          7.3880   -0.0360    0.6090 C.2     1  UNL1       -0.0440
      7  C          7.8740    0.9370   -0.2710 C.2     1  UNL1        0.0080
      8  C          7.4810   -1.3610    0.2460 C.2     1  UNL1        0.0540
      9  C          8.4270    0.5380   -1.4740 C.2     1  UNL1        0.0510
     10  C          8.0420   -1.7590   -0.9710 C.2     1  UNL1        0.1660
     11  C          8.5190   -0.8010   -1.8380 C.2     1  UNL1        0.1650
     12  O          8.2450   -2.9920   -1.5530 O.2     1  UNL1       -0.4540
     13  O          9.0110   -1.4730   -2.9460 O.2     1  UNL1       -0.4540
     14  C          8.9400   -2.8680   -2.7670 C.3     1  UNL1        0.4680
@<TRIPOS>BOND
     1    13    14    1
     2    13    11    1
     3    14    12    1
     4    11     9    2
     5    11    10    1
     6    12    10    1
     7     9     7    1
     8    10     8    2
     9     7     6    2
    10     8     6    1
    11     6     5    1
    12     3     2    1
    13     2     1    1
    14     2     4    2
    15     5     1    1
