@<TRIPOS>MOLECULE
/home/cewinharhar/GITHUB/reincatalyze/data/processed/docking_pred/2023-May-30-2130_sub9_nm5_bs15_s42_ex16_mel10_mts10000_k50_ec05_g099_lra3e-4_lrc3e-3/52b5f98accdadd66ce5c38e1753891e20422c2cb_ligand_9.pdbqt
 14 15 0 0 0
SMALL
GASTEIGER

@<TRIPOS>ATOM
      1  C          5.8900    1.2610   -0.3310 C.3     1  UNL1        0.0800
      2  C          5.2920    1.1500    1.0280 C.2     1  UNL1        0.1300
      3  C          5.5850   -0.0050    1.9180 C.3     1  UNL1        0.0870
      4  O          4.5390    2.0110    1.4540 O.2     1  UNL1       -0.3000
      5  C          7.4040    1.2660   -0.2680 C.3     1  UNL1        0.0430
      6  C          7.9880    0.1700   -1.0620 C.2     1  UNL1       -0.0440
      7  C          7.4420   -0.2160   -2.2910 C.2     1  UNL1        0.0080
      8  C          9.0990   -0.4950   -0.5940 C.2     1  UNL1        0.0540
      9  C          8.0330   -1.2520   -2.9920 C.2     1  UNL1        0.0510
     10  C          9.6930   -1.5410   -1.3070 C.2     1  UNL1        0.1660
     11  C          9.1550   -1.9220   -2.5160 C.2     1  UNL1        0.1650
     12  O         10.7840   -2.3470   -1.0580 O.2     1  UNL1       -0.4540
     13  O          9.9360   -2.9650   -2.9900 O.2     1  UNL1       -0.4540
     14  C         11.0330   -3.2060   -2.1410 C.3     1  UNL1        0.4680
@<TRIPOS>BOND
     1     9    11    2
     2     9     7    1
     3    13    11    1
     4    13    14    1
     5    11    10    1
     6     7     6    2
     7    14    12    1
     8    10    12    1
     9    10     8    2
    10     6     8    1
    11     6     5    1
    12     1     5    1
    13     1     2    1
    14     2     4    2
    15     2     3    1
