@<TRIPOS>MOLECULE
/home/cewinharhar/GITHUB/reincatalyze/data/processed/docking_pred/2023-May-30-2130_sub9_nm5_bs15_s42_ex16_mel10_mts10000_k50_ec05_g099_lra3e-4_lrc3e-3/52b5f98accdadd66ce5c38e1753891e20422c2cb_ligand_9.pdbqt
 14 15 0 0 0
SMALL
GASTEIGER

@<TRIPOS>ATOM
      1  C          6.0580   -0.5160    1.6210 C.3     1  UNL1        0.0800
      2  C          5.1250    0.6430    1.6930 C.2     1  UNL1        0.1300
      3  C          5.2220    1.7830    0.7420 C.3     1  UNL1        0.0870
      4  O          4.2490    0.6910    2.5410 O.2     1  UNL1       -0.3000
      5  C          6.4030   -0.8560    0.1850 C.3     1  UNL1        0.0430
      6  C          7.8480   -0.7300   -0.0750 C.2     1  UNL1       -0.0440
      7  C          8.3710    0.3440   -0.8030 C.2     1  UNL1        0.0080
      8  C          8.7140   -1.6850    0.4080 C.2     1  UNL1        0.0540
      9  C          9.7360    0.4110   -1.0140 C.2     1  UNL1        0.0510
     10  C         10.0930   -1.6130    0.1930 C.2     1  UNL1        0.1660
     11  C         10.6090   -0.5570   -0.5250 C.2     1  UNL1        0.1650
     12  O         11.1460   -2.4240    0.5620 O.2     1  UNL1       -0.4540
     13  O         11.9810   -0.7420   -0.5810 O.2     1  UNL1       -0.4540
     14  C         12.3740   -1.8640    0.1720 C.3     1  UNL1        0.4680
@<TRIPOS>BOND
     1     9     7    1
     2     9    11    2
     3     7     6    2
     4    13    11    1
     5    13    14    1
     6    11    10    1
     7     6     5    1
     8     6     8    1
     9    14    12    1
    10     5     1    1
    11    10     8    2
    12    10    12    1
    13     3     2    1
    14     1     2    1
    15     2     4    2
