@<TRIPOS>MOLECULE
/home/cewinharhar/GITHUB/reincatalyze/data/processed/docking_pred/2023-May-30-2130_sub9_nm5_bs15_s42_ex16_mel10_mts10000_k50_ec05_g099_lra3e-4_lrc3e-3/52b5f98accdadd66ce5c38e1753891e20422c2cb_ligand_9.pdbqt
 14 15 0 0 0
SMALL
GASTEIGER

@<TRIPOS>ATOM
      1  C          5.8540    1.5530    0.8720 C.3     1  UNL1        0.0800
      2  C          5.3540    0.5260    1.8270 C.2     1  UNL1        0.1300
      3  C          6.1380   -0.7000    2.1380 C.3     1  UNL1        0.0870
      4  O          4.2770    0.6610    2.3860 O.2     1  UNL1       -0.3000
      5  C          5.7850    1.0550   -0.5580 C.3     1  UNL1        0.0430
      6  C          7.0380    0.3970   -0.9690 C.2     1  UNL1       -0.0440
      7  C          8.2870    0.9700   -0.7040 C.2     1  UNL1        0.0080
      8  C          6.9900   -0.8110   -1.6270 C.2     1  UNL1        0.0540
      9  C          9.4300    0.3060   -1.1130 C.2     1  UNL1        0.0510
     10  C          8.1480   -1.4780   -2.0380 C.2     1  UNL1        0.1660
     11  C          9.3780   -0.9150   -1.7790 C.2     1  UNL1        0.1650
     12  O          8.3620   -2.6690   -2.6990 O.2     1  UNL1       -0.4540
     13  O         10.3310   -1.7820   -2.2910 O.2     1  UNL1       -0.4540
     14  C          9.7340   -2.9500   -2.8010 C.3     1  UNL1        0.4680
@<TRIPOS>BOND
     1    14    12    1
     2    14    13    1
     3    12    10    1
     4    13    11    1
     5    10    11    2
     6    10     8    1
     7    11     9    1
     8     8     6    2
     9     9     7    2
    10     6     7    1
    11     6     5    1
    12     5     1    1
    13     1     2    1
    14     2     3    1
    15     2     4    2
