@<TRIPOS>MOLECULE
/home/cewinharhar/GITHUB/reincatalyze/data/processed/docking_pred/2023-May-30-2130_sub9_nm5_bs15_s42_ex16_mel10_mts10000_k50_ec05_g099_lra3e-4_lrc3e-3/52b5f98accdadd66ce5c38e1753891e20422c2cb_ligand_9.pdbqt
 14 15 0 0 0
SMALL
GASTEIGER

@<TRIPOS>ATOM
      1  C          6.6250    0.0990    1.8520 C.3     1  UNL1        0.0800
      2  C          5.3430    0.8350    1.6640 C.2     1  UNL1        0.1300
      3  C          5.1600    1.8150    0.5610 C.3     1  UNL1        0.0870
      4  O          4.4000    0.6540    2.4180 O.2     1  UNL1       -0.3000
      5  C          6.4930   -1.3510    1.4290 C.3     1  UNL1        0.0430
      6  C          7.2430   -1.6290    0.1900 C.2     1  UNL1       -0.0440
      7  C          6.8440   -1.1000   -1.0420 C.2     1  UNL1        0.0080
      8  C          8.3650   -2.4240    0.2360 C.2     1  UNL1        0.0540
      9  C          7.5870   -1.3940   -2.1710 C.2     1  UNL1        0.0510
     10  C          9.1130   -2.7180   -0.9080 C.2     1  UNL1        0.1660
     11  C          8.7210   -2.1990   -2.1210 C.2     1  UNL1        0.1650
     12  O         10.2480   -3.4710   -1.1210 O.2     1  UNL1       -0.4540
     13  O          9.6330   -2.6480   -3.0640 O.2     1  UNL1       -0.4540
     14  C         10.6690   -3.3830   -2.4580 C.3     1  UNL1        0.4680
@<TRIPOS>BOND
     1    13    14    1
     2    13    11    1
     3    14    12    1
     4     9    11    2
     5     9     7    1
     6    11    10    1
     7    12    10    1
     8     7     6    2
     9    10     8    2
    10     6     8    1
    11     6     5    1
    12     3     2    1
    13     5     1    1
    14     2     1    1
    15     2     4    2
