@<TRIPOS>MOLECULE
/home/cewinharhar/GITHUB/reincatalyze/data/processed/docking_pred/2023-May-30-2130_sub9_nm5_bs15_s42_ex16_mel10_mts10000_k50_ec05_g099_lra3e-4_lrc3e-3/52b5f98accdadd66ce5c38e1753891e20422c2cb_ligand_9.pdbqt
 14 15 0 0 0
SMALL
GASTEIGER

@<TRIPOS>ATOM
      1  C          6.1050    1.8180    0.3030 C.3     1  UNL1        0.0800
      2  C          5.2070    1.2410    1.3410 C.2     1  UNL1        0.1300
      3  C          5.4720   -0.0900    1.9500 C.3     1  UNL1        0.0870
      4  O          4.2200    1.8480    1.7240 O.2     1  UNL1       -0.3000
      5  C          6.0130    1.0450   -0.9970 C.3     1  UNL1        0.0430
      6  C          7.1610    0.1390   -1.1770 C.2     1  UNL1       -0.0440
      7  C          7.0810   -0.9920   -1.9980 C.2     1  UNL1        0.0080
      8  C          8.3460    0.4030   -0.5300 C.2     1  UNL1        0.0540
      9  C          8.1920   -1.8050   -2.1290 C.2     1  UNL1        0.0510
     10  C          9.4670   -0.4220   -0.6660 C.2     1  UNL1        0.1660
     11  C          9.3880   -1.5360   -1.4730 C.2     1  UNL1        0.1650
     12  O         10.7380   -0.3760   -0.1360 O.2     1  UNL1       -0.4540
     13  O         10.6270   -2.1560   -1.4210 O.2     1  UNL1       -0.4540
     14  C         11.5400   -1.4050   -0.6570 C.3     1  UNL1        0.4680
@<TRIPOS>BOND
     1     9     7    1
     2     9    11    2
     3     7     6    2
     4    11    13    1
     5    11    10    1
     6    13    14    1
     7     6     5    1
     8     6     8    1
     9     5     1    1
    10    10     8    2
    11    10    12    1
    12    14    12    1
    13     1     2    1
    14     2     4    2
    15     2     3    1
