@<TRIPOS>MOLECULE
/home/cewinharhar/GITHUB/reincatalyze/data/processed/docking_pred/2023-May-30-2130_sub9_nm5_bs15_s42_ex16_mel10_mts10000_k50_ec05_g099_lra3e-4_lrc3e-3/53c3fbcdd7c01d09a3e8b21e27d629f70ce21da9_ligand_9.pdbqt
 14 15 0 0 0
SMALL
GASTEIGER

@<TRIPOS>ATOM
      1  C          5.8250    1.3550   -0.4200 C.3     1  UNL1        0.0800
      2  C          5.2170    1.3210    0.9390 C.2     1  UNL1        0.1300
      3  C          5.6010    0.2910    1.9410 C.3     1  UNL1        0.0870
      4  O          4.3780    2.1430    1.2710 O.2     1  UNL1       -0.3000
      5  C          7.3230    1.1320   -0.3580 C.3     1  UNL1        0.0430
      6  C          7.7050   -0.1760   -0.9200 C.2     1  UNL1       -0.0440
      7  C          7.7720   -0.3900   -2.3010 C.2     1  UNL1        0.0080
      8  C          8.0060   -1.2200   -0.0740 C.2     1  UNL1        0.0540
      9  C          8.1370   -1.6380   -2.7700 C.2     1  UNL1        0.0510
     10  C          8.3750   -2.4800   -0.5540 C.2     1  UNL1        0.1660
     11  C          8.4400   -2.6910   -1.9130 C.2     1  UNL1        0.1650
     12  O          8.7160   -3.6600    0.0720 O.2     1  UNL1       -0.4540
     13  O          8.8250   -4.0100   -2.0960 O.2     1  UNL1       -0.4540
     14  C          9.0990   -4.6350   -0.8640 C.3     1  UNL1        0.4680
@<TRIPOS>BOND
     1     9     7    1
     2     9    11    2
     3     7     6    2
     4    13    11    1
     5    13    14    1
     6    11    10    1
     7     6     5    1
     8     6     8    1
     9    14    12    1
    10    10     8    2
    11    10    12    1
    12     1     5    1
    13     1     2    1
    14     2     4    2
    15     2     3    1
