@<TRIPOS>MOLECULE
/home/cewinharhar/GITHUB/reincatalyze/data/processed/docking_pred/2023-May-30-2130_sub9_nm5_bs15_s42_ex16_mel10_mts10000_k50_ec05_g099_lra3e-4_lrc3e-3/53c3fbcdd7c01d09a3e8b21e27d629f70ce21da9_ligand_9.pdbqt
 14 15 0 0 0
SMALL
GASTEIGER

@<TRIPOS>ATOM
      1  C          5.4930    1.9360    1.2540 C.3     1  UNL1        0.0800
      2  C          5.0520    0.7210    1.9950 C.2     1  UNL1        0.1300
      3  C          5.9340   -0.4680    2.1390 C.3     1  UNL1        0.0870
      4  O          3.9460    0.6660    2.5070 O.2     1  UNL1       -0.3000
      5  C          5.3750    1.7410   -0.2440 C.3     1  UNL1        0.0430
      6  C          6.5470    1.0400   -0.7980 C.2     1  UNL1       -0.0440
      7  C          7.8510    1.4720   -0.5340 C.2     1  UNL1        0.0080
      8  C          6.3660   -0.0680   -1.5940 C.2     1  UNL1        0.0540
      9  C          8.9130    0.7740   -1.0800 C.2     1  UNL1        0.0510
     10  C          7.4420   -0.7710   -2.1430 C.2     1  UNL1        0.1660
     11  C          8.7260   -0.3460   -1.8850 C.2     1  UNL1        0.1650
     12  O          7.5230   -1.8840   -2.9530 O.2     1  UNL1       -0.4540
     13  O          9.5770   -1.2170   -2.5470 O.2     1  UNL1       -0.4540
     14  C          8.8600   -2.2600   -3.1620 C.3     1  UNL1        0.4680
@<TRIPOS>BOND
     1    14    12    1
     2    14    13    1
     3    12    10    1
     4    13    11    1
     5    10    11    2
     6    10     8    1
     7    11     9    1
     8     8     6    2
     9     9     7    2
    10     6     7    1
    11     6     5    1
    12     5     1    1
    13     1     2    1
    14     2     3    1
    15     2     4    2
