MODEL 1
REMARK VINA RESULT:      -7.7      0.000      0.000
REMARK SMILES CC(=O)CCc1ccc2c(c1)OCO2
REMARK SMILES IDX 4 1 2 2 1 3 3 4 5 5 6 6 7 7 11 8 8 9 10 10 9 11 12 12 14 13
REMARK SMILES IDX 13 14
REMARK H PARENT
REMARK Flexibility Score: inf
ROOT
ATOM      1  C   UNL     1       5.493   1.936   1.254  1.00  0.00     0.080 C 
ENDROOT
BRANCH   1   2
ATOM      2  C   UNL     1       5.052   0.721   1.995  1.00  0.00     0.130 C 
ATOM      3  C   UNL     1       5.934  -0.468   2.139  1.00  0.00     0.087 C 
ATOM      4  O   UNL     1       3.946   0.666   2.507  1.00  0.00    -0.300 OA
ENDBRANCH   1   2
BRANCH   1   5
ATOM      5  C   UNL     1       5.375   1.741  -0.244  1.00  0.00     0.043 C 
BRANCH   5   6
ATOM      6  C   UNL     1       6.547   1.040  -0.798  1.00  0.00    -0.044 A 
ATOM      7  C   UNL     1       7.851   1.472  -0.534  1.00  0.00     0.008 A 
ATOM      8  C   UNL     1       6.366  -0.068  -1.594  1.00  0.00     0.054 A 
ATOM      9  C   UNL     1       8.913   0.774  -1.080  1.00  0.00     0.051 A 
ATOM     10  C   UNL     1       7.442  -0.771  -2.143  1.00  0.00     0.166 A 
ATOM     11  C   UNL     1       8.726  -0.346  -1.885  1.00  0.00     0.165 A 
ATOM     12  O   UNL     1       7.523  -1.884  -2.953  1.00  0.00    -0.454 OA
ATOM     13  O   UNL     1       9.577  -1.217  -2.547  1.00  0.00    -0.454 OA
ATOM     14  C   UNL     1       8.860  -2.260  -3.162  1.00  0.00     0.468 C 
ENDBRANCH   5   6
ENDBRANCH   1   5
TORSDOF 3
ENDMDL
MODEL 2
REMARK VINA RESULT:      -7.4      1.951      2.446
REMARK SMILES CC(=O)CCc1ccc2c(c1)OCO2
REMARK SMILES IDX 4 1 2 2 1 3 3 4 5 5 6 6 7 7 11 8 8 9 10 10 9 11 12 12 14 13
REMARK SMILES IDX 13 14
REMARK H PARENT
REMARK Flexibility Score: inf
ROOT
ATOM      1  C   UNL     1       5.825   1.355  -0.420  1.00  0.00     0.080 C 
ENDROOT
BRANCH   1   2
ATOM      2  C   UNL     1       5.217   1.321   0.939  1.00  0.00     0.130 C 
ATOM      3  C   UNL     1       5.601   0.291   1.941  1.00  0.00     0.087 C 
ATOM      4  O   UNL     1       4.378   2.143   1.271  1.00  0.00    -0.300 OA
ENDBRANCH   1   2
BRANCH   1   5
ATOM      5  C   UNL     1       7.323   1.132  -0.358  1.00  0.00     0.043 C 
BRANCH   5   6
ATOM      6  C   UNL     1       7.705  -0.176  -0.920  1.00  0.00    -0.044 A 
ATOM      7  C   UNL     1       7.772  -0.390  -2.301  1.00  0.00     0.008 A 
ATOM      8  C   UNL     1       8.006  -1.220  -0.074  1.00  0.00     0.054 A 
ATOM      9  C   UNL     1       8.137  -1.638  -2.770  1.00  0.00     0.051 A 
ATOM     10  C   UNL     1       8.375  -2.480  -0.554  1.00  0.00     0.166 A 
ATOM     11  C   UNL     1       8.440  -2.691  -1.913  1.00  0.00     0.165 A 
ATOM     12  O   UNL     1       8.716  -3.660   0.072  1.00  0.00    -0.454 OA
ATOM     13  O   UNL     1       8.825  -4.010  -2.096  1.00  0.00    -0.454 OA
ATOM     14  C   UNL     1       9.099  -4.635  -0.864  1.00  0.00     0.468 C 
ENDBRANCH   5   6
ENDBRANCH   1   5
TORSDOF 3
ENDMDL
MODEL 3
REMARK VINA RESULT:      -7.2      2.064      2.640
REMARK SMILES CC(=O)CCc1ccc2c(c1)OCO2
REMARK SMILES IDX 4 1 2 2 1 3 3 4 5 5 6 6 7 7 11 8 8 9 10 10 9 11 12 12 14 13
REMARK SMILES IDX 13 14
REMARK H PARENT
REMARK Flexibility Score: inf
ROOT
ATOM      1  C   UNL     1       5.411  -0.060   2.014  1.00  0.00     0.080 C 
ENDROOT
BRANCH   1   2
ATOM      2  C   UNL     1       4.571   1.144   1.766  1.00  0.00     0.130 C 
ATOM      3  C   UNL     1       4.913   2.130   0.707  1.00  0.00     0.087 C 
ATOM      4  O   UNL     1       3.570   1.357   2.432  1.00  0.00    -0.300 OA
ENDBRANCH   1   2
BRANCH   1   5
ATOM      5  C   UNL     1       6.852   0.181   1.610  1.00  0.00     0.043 C 
BRANCH   5   6
ATOM      6  C   UNL     1       7.283  -0.742   0.545  1.00  0.00    -0.044 A 
ATOM      7  C   UNL     1       7.163  -0.407  -0.809  1.00  0.00     0.008 A 
ATOM      8  C   UNL     1       7.821  -1.964   0.878  1.00  0.00     0.054 A 
ATOM      9  C   UNL     1       7.585  -1.313  -1.764  1.00  0.00     0.051 A 
ATOM     10  C   UNL     1       8.247  -2.877  -0.092  1.00  0.00     0.166 A 
ATOM     11  C   UNL     1       8.127  -2.548  -1.424  1.00  0.00     0.165 A 
ATOM     12  O   UNL     1       8.804  -4.135  -0.018  1.00  0.00    -0.454 OA
ATOM     13  O   UNL     1       8.621  -3.623  -2.147  1.00  0.00    -0.454 OA
ATOM     14  C   UNL     1       9.144  -4.613  -1.294  1.00  0.00     0.468 C 
ENDBRANCH   5   6
ENDBRANCH   1   5
TORSDOF 3
ENDMDL
MODEL 4
REMARK VINA RESULT:      -7.1      1.270      1.490
REMARK SMILES CC(=O)CCc1ccc2c(c1)OCO2
REMARK SMILES IDX 4 1 2 2 1 3 3 4 5 5 6 6 7 7 11 8 8 9 10 10 9 11 12 12 14 13
REMARK SMILES IDX 13 14
REMARK H PARENT
REMARK Flexibility Score: inf
ROOT
ATOM      1  C   UNL     1       6.409   1.217   0.935  1.00  0.00     0.080 C 
ENDROOT
BRANCH   1   2
ATOM      2  C   UNL     1       5.688   0.369   1.925  1.00  0.00     0.130 C 
ATOM      3  C   UNL     1       6.306  -0.855   2.502  1.00  0.00     0.087 C 
ATOM      4  O   UNL     1       4.560   0.657   2.292  1.00  0.00    -0.300 OA
ENDBRANCH   1   2
BRANCH   1   5
ATOM      5  C   UNL     1       5.906   0.968  -0.473  1.00  0.00     0.043 C 
BRANCH   5   6
ATOM      6  C   UNL     1       6.836   0.124  -1.244  1.00  0.00    -0.044 A 
ATOM      7  C   UNL     1       7.518   0.617  -2.363  1.00  0.00     0.008 A 
ATOM      8  C   UNL     1       7.048  -1.181  -0.864  1.00  0.00     0.054 A 
ATOM      9  C   UNL     1       8.379  -0.221  -3.047  1.00  0.00     0.051 A 
ATOM     10  C   UNL     1       7.920  -2.025  -1.559  1.00  0.00     0.166 A 
ATOM     11  C   UNL     1       8.591  -1.540  -2.660  1.00  0.00     0.165 A 
ATOM     12  O   UNL     1       8.295  -3.340  -1.383  1.00  0.00    -0.454 OA
ATOM     13  O   UNL     1       9.372  -2.579  -3.141  1.00  0.00    -0.454 OA
ATOM     14  C   UNL     1       9.285  -3.710  -2.308  1.00  0.00     0.468 C 
ENDBRANCH   5   6
ENDBRANCH   1   5
TORSDOF 3
ENDMDL
MODEL 5
REMARK VINA RESULT:      -6.9      1.955      2.458
REMARK SMILES CC(=O)CCc1ccc2c(c1)OCO2
REMARK SMILES IDX 4 1 2 2 1 3 3 4 5 5 6 6 7 7 11 8 8 9 10 10 9 11 12 12 14 13
REMARK SMILES IDX 13 14
REMARK H PARENT
REMARK Flexibility Score: inf
ROOT
ATOM      1  C   UNL     1       6.829   1.038   1.276  1.00  0.00     0.080 C 
ENDROOT
BRANCH   1   2
ATOM      2  C   UNL     1       5.364   1.163   1.518  1.00  0.00     0.130 C 
ATOM      3  C   UNL     1       4.532   2.149   0.779  1.00  0.00     0.087 C 
ATOM      4  O   UNL     1       4.802   0.455   2.338  1.00  0.00    -0.300 OA
ENDBRANCH   1   2
BRANCH   1   5
ATOM      5  C   UNL     1       7.156   1.175  -0.198  1.00  0.00     0.043 C 
BRANCH   5   6
ATOM      6  C   UNL     1       7.567  -0.112  -0.788  1.00  0.00    -0.044 A 
ATOM      7  C   UNL     1       7.675  -0.282  -2.173  1.00  0.00     0.008 A 
ATOM      8  C   UNL     1       7.855  -1.178   0.034  1.00  0.00     0.054 A 
ATOM      9  C   UNL     1       8.066  -1.512  -2.669  1.00  0.00     0.051 A 
ATOM     10  C   UNL     1       8.250  -2.420  -0.473  1.00  0.00     0.166 A 
ATOM     11  C   UNL     1       8.356  -2.588  -1.836  1.00  0.00     0.165 A 
ATOM     12  O   UNL     1       8.586  -3.615   0.126  1.00  0.00    -0.454 OA
ATOM     13  O   UNL     1       8.759  -3.897  -2.048  1.00  0.00    -0.454 OA
ATOM     14  C   UNL     1       9.004  -4.557  -0.829  1.00  0.00     0.468 C 
ENDBRANCH   5   6
ENDBRANCH   1   5
TORSDOF 3
ENDMDL
