@<TRIPOS>MOLECULE
/home/cewinharhar/GITHUB/reincatalyze/data/processed/docking_pred/2023-May-30-2130_sub9_nm5_bs15_s42_ex16_mel10_mts10000_k50_ec05_g099_lra3e-4_lrc3e-3/544f4ddee7da09465e084ab518e20d4fbc72de61_ligand_9.pdbqt
 14 15 0 0 0
SMALL
GASTEIGER

@<TRIPOS>ATOM
      1  C          5.4100   -0.0620    2.0150 C.3     1  UNL1        0.0800
      2  C          4.5700    1.1420    1.7640 C.2     1  UNL1        0.1300
      3  C          4.9120    2.1270    0.7030 C.3     1  UNL1        0.0870
      4  O          3.5680    1.3560    2.4270 O.2     1  UNL1       -0.3000
      5  C          6.8510    0.1800    1.6110 C.3     1  UNL1        0.0430
      6  C          7.2820   -0.7420    0.5440 C.2     1  UNL1       -0.0440
      7  C          7.1590   -0.4050   -0.8090 C.2     1  UNL1        0.0080
      8  C          7.8210   -1.9640    0.8750 C.2     1  UNL1        0.0540
      9  C          7.5810   -1.3090   -1.7660 C.2     1  UNL1        0.0510
     10  C          8.2460   -2.8750   -0.0970 C.2     1  UNL1        0.1660
     11  C          8.1250   -2.5440   -1.4290 C.2     1  UNL1        0.1650
     12  O          8.8050   -4.1330   -0.0250 O.2     1  UNL1       -0.4540
     13  O          8.6180   -3.6170   -2.1540 O.2     1  UNL1       -0.4540
     14  C          9.1430   -4.6080   -1.3030 C.3     1  UNL1        0.4680
@<TRIPOS>BOND
     1    13    11    1
     2    13    14    1
     3     9    11    2
     4     9     7    1
     5    11    10    1
     6    14    12    1
     7     7     6    2
     8    10    12    1
     9    10     8    2
    10     6     8    1
    11     6     5    1
    12     3     2    1
    13     5     1    1
    14     2     1    1
    15     2     4    2
