@<TRIPOS>MOLECULE
/home/cewinharhar/GITHUB/reincatalyze/data/processed/docking_pred/2023-May-30-2130_sub9_nm5_bs15_s42_ex16_mel10_mts10000_k50_ec05_g099_lra3e-4_lrc3e-3/54c3cf531f582f2d935f1daccafc2f163e83168d_ligand_9.pdbqt
 14 15 0 0 0
SMALL
GASTEIGER

@<TRIPOS>ATOM
      1  C          6.8610    0.6790    1.1730 C.3     1  UNL1        0.0800
      2  C          5.4680    1.1560    1.3980 C.2     1  UNL1        0.1300
      3  C          4.8280    2.1490    0.4950 C.3     1  UNL1        0.0870
      4  O          4.8080    0.7440    2.3380 O.2     1  UNL1       -0.3000
      5  C          7.2800    0.8650   -0.2720 C.3     1  UNL1        0.0430
      6  C          7.7100   -0.4050   -0.8840 C.2     1  UNL1       -0.0440
      7  C          7.9090   -0.5240   -2.2640 C.2     1  UNL1        0.0080
      8  C          7.9270   -1.5070   -0.0880 C.2     1  UNL1        0.0540
      9  C          8.3140   -1.7410   -2.7820 C.2     1  UNL1        0.0510
     10  C          8.3370   -2.7350   -0.6160 C.2     1  UNL1        0.1660
     11  C          8.5320   -2.8530   -1.9740 C.2     1  UNL1        0.1650
     12  O          8.6150   -3.9580   -0.0440 O.2     1  UNL1       -0.4540
     13  O          8.9300   -4.1590   -2.2100 O.2     1  UNL1       -0.4540
     14  C          9.0830   -4.8700   -1.0050 C.3     1  UNL1        0.4680
@<TRIPOS>BOND
     1     9     7    1
     2     9    11    2
     3     7     6    2
     4    13    11    1
     5    13    14    1
     6    11    10    1
     7    14    12    1
     8     6     5    1
     9     6     8    1
    10    10     8    2
    11    10    12    1
    12     5     1    1
    13     3     2    1
    14     1     2    1
    15     2     4    2
