@<TRIPOS>MOLECULE
/home/cewinharhar/GITHUB/reincatalyze/data/processed/docking_pred/2023-May-30-2130_sub9_nm5_bs15_s42_ex16_mel10_mts10000_k50_ec05_g099_lra3e-4_lrc3e-3/54c3cf531f582f2d935f1daccafc2f163e83168d_ligand_9.pdbqt
 14 15 0 0 0
SMALL
GASTEIGER

@<TRIPOS>ATOM
      1  C          5.7210    1.3220   -0.2790 C.3     1  UNL1        0.0800
      2  C          5.1180    1.2610    1.0820 C.2     1  UNL1        0.1300
      3  C          5.3810    0.1230    2.0030 C.3     1  UNL1        0.0870
      4  O          4.3840    2.1500    1.4820 O.2     1  UNL1       -0.3000
      5  C          7.2200    1.1010   -0.2270 C.3     1  UNL1        0.0430
      6  C          7.6060   -0.1780   -0.8490 C.2     1  UNL1       -0.0440
      7  C          7.7080   -0.3160   -2.2380 C.2     1  UNL1        0.0080
      8  C          7.8780   -1.2680   -0.0540 C.2     1  UNL1        0.0540
      9  C          8.0750   -1.5400   -2.7650 C.2     1  UNL1        0.0510
     10  C          8.2500   -2.5040   -0.5920 C.2     1  UNL1        0.1660
     11  C          8.3490   -2.6410   -1.9590 C.2     1  UNL1        0.1650
     12  O          8.5660   -3.7190   -0.0230 O.2     1  UNL1       -0.4540
     13  O          8.7290   -3.9510   -2.2030 O.2     1  UNL1       -0.4540
     14  C          8.9660   -4.6450   -1.0010 C.3     1  UNL1        0.4680
@<TRIPOS>BOND
     1     9     7    1
     2     9    11    2
     3     7     6    2
     4    13    11    1
     5    13    14    1
     6    11    10    1
     7    14    12    1
     8     6     5    1
     9     6     8    1
    10    10     8    2
    11    10    12    1
    12     1     5    1
    13     1     2    1
    14     2     4    2
    15     2     3    1
