@<TRIPOS>MOLECULE
/home/cewinharhar/GITHUB/reincatalyze/data/processed/docking_pred/2023-May-30-2130_sub9_nm5_bs15_s42_ex16_mel10_mts10000_k50_ec05_g099_lra3e-4_lrc3e-3/551c5941f3bf749be32b1159c48b101be233bdbe_ligand_9.pdbqt
 14 15 0 0 0
SMALL
GASTEIGER

@<TRIPOS>ATOM
      1  C          5.5380    0.0240    1.9610 C.3     1  UNL1        0.0800
      2  C          4.6540    1.1810    1.6510 C.2     1  UNL1        0.1300
      3  C          4.9610    2.1240    0.5420 C.3     1  UNL1        0.0870
      4  O          3.6440    1.3910    2.3030 O.2     1  UNL1       -0.3000
      5  C          6.9590    0.2770    1.4970 C.3     1  UNL1        0.0430
      6  C          7.3730   -0.6820    0.4570 C.2     1  UNL1       -0.0440
      7  C          7.2930   -0.3670   -0.9040 C.2     1  UNL1        0.0080
      8  C          7.8540   -1.9190    0.8220 C.2     1  UNL1        0.0540
      9  C          7.6970   -1.3070   -1.8350 C.2     1  UNL1        0.0510
     10  C          8.2610   -2.8650   -0.1230 C.2     1  UNL1        0.1660
     11  C          8.1820   -2.5570   -1.4630 C.2     1  UNL1        0.1650
     12  O          8.7660   -4.1440   -0.0150 O.2     1  UNL1       -0.4540
     13  O          8.6450   -3.6630   -2.1570 O.2     1  UNL1       -0.4540
     14  C          9.1110   -4.6580   -1.2760 C.3     1  UNL1        0.4680
@<TRIPOS>BOND
     1    13    11    1
     2    13    14    1
     3     9    11    2
     4     9     7    1
     5    11    10    1
     6    14    12    1
     7     7     6    2
     8    10    12    1
     9    10     8    2
    10     6     8    1
    11     6     5    1
    12     3     2    1
    13     5     1    1
    14     2     1    1
    15     2     4    2
