@<TRIPOS>MOLECULE
/home/cewinharhar/GITHUB/reincatalyze/data/processed/docking_pred/2023-May-30-2130_sub9_nm5_bs15_s42_ex16_mel10_mts10000_k50_ec05_g099_lra3e-4_lrc3e-3/55f9a48c22e019202c812c896c561d7470c53219_ligand_9.pdbqt
 14 15 0 0 0
SMALL
GASTEIGER

@<TRIPOS>ATOM
      1  C          6.7130    0.6900    1.3930 C.3     1  UNL1        0.0800
      2  C          5.2960    1.1400    1.4790 C.2     1  UNL1        0.1300
      3  C          4.7380    2.1500    0.5410 C.3     1  UNL1        0.0870
      4  O          4.5460    0.6880    2.3300 O.2     1  UNL1       -0.3000
      5  C          7.2860    0.9400    0.0120 C.3     1  UNL1        0.0430
      6  C          7.6490   -0.3180   -0.6650 C.2     1  UNL1       -0.0440
      7  C          7.6800   -0.4160   -2.0610 C.2     1  UNL1        0.0080
      8  C          7.9700   -1.4270    0.0830 C.2     1  UNL1        0.0540
      9  C          8.0290   -1.6230   -2.6410 C.2     1  UNL1        0.0510
     10  C          8.3220   -2.6440   -0.5080 C.2     1  UNL1        0.1660
     11  C          8.3520   -2.7430   -1.8810 C.2     1  UNL1        0.1650
     12  O          8.6760   -3.8720    0.0090 O.2     1  UNL1       -0.4540
     13  O          8.7280   -4.0420   -2.1820 O.2     1  UNL1       -0.4540
     14  C          9.0320   -4.7670   -1.0140 C.3     1  UNL1        0.4680
@<TRIPOS>BOND
     1     9     7    1
     2     9    11    2
     3    13    11    1
     4    13    14    1
     5     7     6    2
     6    11    10    1
     7    14    12    1
     8     6     5    1
     9     6     8    1
    10    10    12    1
    11    10     8    2
    12     5     1    1
    13     3     2    1
    14     1     2    1
    15     2     4    2
