@<TRIPOS>MOLECULE
/home/cewinharhar/GITHUB/reincatalyze/data/processed/docking_pred/2023-May-30-2130_sub9_nm5_bs15_s42_ex16_mel10_mts10000_k50_ec05_g099_lra3e-4_lrc3e-3/5c03b3f969ed47612f71fd8c49d4b8d1b6c55f0c_ligand_9.pdbqt
 14 15 0 0 0
SMALL
GASTEIGER

@<TRIPOS>ATOM
      1  C          8.3310    0.2250   -2.5900 C.3     1  UNL1        0.0800
      2  C          8.0190   -1.2270   -2.7060 C.2     1  UNL1        0.1300
      3  C          9.0730   -2.2290   -3.0170 C.3     1  UNL1        0.0870
      4  O          6.8810   -1.6380   -2.5480 O.2     1  UNL1       -0.3000
      5  C          8.8460    0.5690   -1.2060 C.3     1  UNL1        0.0430
      6  C          7.7950    0.4340   -0.1820 C.2     1  UNL1       -0.0440
      7  C          7.8820   -0.5240    0.8350 C.2     1  UNL1        0.0080
      8  C          6.6990    1.2650   -0.2160 C.2     1  UNL1        0.0540
      9  C          6.8650   -0.6040    1.7690 C.2     1  UNL1        0.0510
     10  C          5.6740    1.1800    0.7310 C.2     1  UNL1        0.1660
     11  C          5.7570    0.2380    1.7320 C.2     1  UNL1        0.1650
     12  O          4.4990    1.8800    0.9100 O.2     1  UNL1       -0.4540
     13  O          4.6220    0.3810    2.5130 O.2     1  UNL1       -0.4540
     14  C          3.8410    1.4700    2.0810 C.3     1  UNL1        0.4680
@<TRIPOS>BOND
     1     3     2    1
     2     2     1    1
     3     2     4    2
     4     1     5    1
     5     5     6    1
     6     8     6    2
     7     8    10    1
     8     6     7    1
     9    10    12    1
    10    10    11    2
    11     7     9    2
    12    12    14    1
    13    11     9    1
    14    11    13    1
    15    14    13    1
