@<TRIPOS>MOLECULE
/home/cewinharhar/GITHUB/reincatalyze/data/processed/docking_pred/2023-May-30-2130_sub9_nm5_bs15_s42_ex16_mel10_mts10000_k50_ec05_g099_lra3e-4_lrc3e-3/5c03b3f969ed47612f71fd8c49d4b8d1b6c55f0c_ligand_9.pdbqt
 14 15 0 0 0
SMALL
GASTEIGER

@<TRIPOS>ATOM
      1  C          5.5800    0.0290    1.9420 C.3     1  UNL1        0.0800
      2  C          4.6800    1.1720    1.6240 C.2     1  UNL1        0.1300
      3  C          4.9730    2.1100    0.5080 C.3     1  UNL1        0.0870
      4  O          3.6680    1.3730    2.2770 O.2     1  UNL1       -0.3000
      5  C          6.9900    0.2840    1.4460 C.3     1  UNL1        0.0430
      6  C          7.3900   -0.6880    0.4140 C.2     1  UNL1       -0.0440
      7  C          7.2840   -0.3950   -0.9500 C.2     1  UNL1        0.0080
      8  C          7.8850   -1.9170    0.7890 C.2     1  UNL1        0.0540
      9  C          7.6760   -1.3460   -1.8740 C.2     1  UNL1        0.0510
     10  C          8.2810   -2.8750   -0.1490 C.2     1  UNL1        0.1660
     11  C          8.1750   -2.5870   -1.4920 C.2     1  UNL1        0.1650
     12  O          8.7950   -4.1490   -0.0310 O.2     1  UNL1       -0.4540
     13  O          8.6320   -3.7020   -2.1780 O.2     1  UNL1       -0.4540
     14  C          9.1200   -4.6800   -1.2910 C.3     1  UNL1        0.4680
@<TRIPOS>BOND
     1    13    11    1
     2    13    14    1
     3     9    11    2
     4     9     7    1
     5    11    10    1
     6    14    12    1
     7     7     6    2
     8    10    12    1
     9    10     8    2
    10     6     8    1
    11     6     5    1
    12     3     2    1
    13     5     1    1
    14     2     1    1
    15     2     4    2
