@<TRIPOS>MOLECULE
/home/cewinharhar/GITHUB/reincatalyze/data/processed/docking_pred/2023-May-30-2130_sub9_nm5_bs15_s42_ex16_mel10_mts10000_k50_ec05_g099_lra3e-4_lrc3e-3/5c03b3f969ed47612f71fd8c49d4b8d1b6c55f0c_ligand_9.pdbqt
 14 15 0 0 0
SMALL
GASTEIGER

@<TRIPOS>ATOM
      1  C          5.8000    1.4580   -0.3370 C.3     1  UNL1        0.0800
      2  C          5.1960    1.3340    1.0190 C.2     1  UNL1        0.1300
      3  C          5.5570    0.2210    1.9360 C.3     1  UNL1        0.0870
      4  O          4.3800    2.1500    1.4180 O.2     1  UNL1       -0.3000
      5  C          7.2930    1.1990   -0.3000 C.3     1  UNL1        0.0430
      6  C          7.6390   -0.0940   -0.9190 C.2     1  UNL1       -0.0440
      7  C          7.6910   -0.2510   -2.3090 C.2     1  UNL1        0.0080
      8  C          7.9210   -1.1780   -0.1200 C.2     1  UNL1        0.0540
      9  C          8.0220   -1.4870   -2.8320 C.2     1  UNL1        0.0510
     10  C          8.2560   -2.4260   -0.6540 C.2     1  UNL1        0.1660
     11  C          8.3060   -2.5820   -2.0220 C.2     1  UNL1        0.1650
     12  O          8.5730   -3.6390   -0.0810 O.2     1  UNL1       -0.4540
     13  O          8.6580   -3.9010   -2.2620 O.2     1  UNL1       -0.4540
     14  C          8.9260   -4.5830   -1.0600 C.3     1  UNL1        0.4680
@<TRIPOS>BOND
     1     9     7    1
     2     9    11    2
     3     7     6    2
     4    13    11    1
     5    13    14    1
     6    11    10    1
     7    14    12    1
     8     6     5    1
     9     6     8    1
    10    10     8    2
    11    10    12    1
    12     1     5    1
    13     1     2    1
    14     2     4    2
    15     2     3    1
