@<TRIPOS>MOLECULE
/home/cewinharhar/GITHUB/reincatalyze/data/processed/docking_pred/2023-May-30-2130_sub9_nm5_bs15_s42_ex16_mel10_mts10000_k50_ec05_g099_lra3e-4_lrc3e-3/5c03b3f969ed47612f71fd8c49d4b8d1b6c55f0c_ligand_9.pdbqt
 14 15 0 0 0
SMALL
GASTEIGER

@<TRIPOS>ATOM
      1  C          5.5170    1.8990    1.2800 C.3     1  UNL1        0.0800
      2  C          5.0760    0.6790    2.0110 C.2     1  UNL1        0.1300
      3  C          5.9690   -0.4990    2.1740 C.3     1  UNL1        0.0870
      4  O          3.9600    0.6100    2.5010 O.2     1  UNL1       -0.3000
      5  C          5.3890    1.7190   -0.2200 C.3     1  UNL1        0.0430
      6  C          6.5580    1.0250   -0.7880 C.2     1  UNL1       -0.0440
      7  C          7.8630    1.4700   -0.5480 C.2     1  UNL1        0.0080
      8  C          6.3750   -0.0900   -1.5740 C.2     1  UNL1        0.0540
      9  C          8.9220    0.7790   -1.1070 C.2     1  UNL1        0.0510
     10  C          7.4490   -0.7860   -2.1370 C.2     1  UNL1        0.1660
     11  C          8.7330   -0.3480   -1.9010 C.2     1  UNL1        0.1650
     12  O          7.5260   -1.9030   -2.9410 O.2     1  UNL1       -0.4540
     13  O          9.5810   -1.2150   -2.5720 O.2     1  UNL1       -0.4540
     14  C          8.8630   -2.2680   -3.1690 C.3     1  UNL1        0.4680
@<TRIPOS>BOND
     1    14    12    1
     2    14    13    1
     3    12    10    1
     4    13    11    1
     5    10    11    2
     6    10     8    1
     7    11     9    1
     8     8     6    2
     9     9     7    2
    10     6     7    1
    11     6     5    1
    12     5     1    1
    13     1     2    1
    14     2     3    1
    15     2     4    2
