MODEL 1
REMARK VINA RESULT:      -7.6      0.000      0.000
REMARK SMILES CC(=O)CCc1ccc2c(c1)OCO2
REMARK SMILES IDX 4 1 2 2 1 3 3 4 5 5 6 6 7 7 11 8 8 9 10 10 9 11 12 12 14 13
REMARK SMILES IDX 13 14
REMARK H PARENT
REMARK Flexibility Score: inf
ROOT
ATOM      1  C   UNL     1       5.517   1.899   1.280  1.00  0.00     0.080 C 
ENDROOT
BRANCH   1   2
ATOM      2  C   UNL     1       5.076   0.679   2.011  1.00  0.00     0.130 C 
ATOM      3  C   UNL     1       5.969  -0.499   2.174  1.00  0.00     0.087 C 
ATOM      4  O   UNL     1       3.960   0.610   2.501  1.00  0.00    -0.300 OA
ENDBRANCH   1   2
BRANCH   1   5
ATOM      5  C   UNL     1       5.389   1.719  -0.220  1.00  0.00     0.043 C 
BRANCH   5   6
ATOM      6  C   UNL     1       6.558   1.025  -0.788  1.00  0.00    -0.044 A 
ATOM      7  C   UNL     1       7.863   1.470  -0.548  1.00  0.00     0.008 A 
ATOM      8  C   UNL     1       6.375  -0.090  -1.574  1.00  0.00     0.054 A 
ATOM      9  C   UNL     1       8.922   0.779  -1.107  1.00  0.00     0.051 A 
ATOM     10  C   UNL     1       7.449  -0.786  -2.137  1.00  0.00     0.166 A 
ATOM     11  C   UNL     1       8.733  -0.348  -1.901  1.00  0.00     0.165 A 
ATOM     12  O   UNL     1       7.526  -1.903  -2.941  1.00  0.00    -0.454 OA
ATOM     13  O   UNL     1       9.581  -1.215  -2.572  1.00  0.00    -0.454 OA
ATOM     14  C   UNL     1       8.863  -2.268  -3.169  1.00  0.00     0.468 C 
ENDBRANCH   5   6
ENDBRANCH   1   5
TORSDOF 3
ENDMDL
MODEL 2
REMARK VINA RESULT:      -7.4      1.863      2.342
REMARK SMILES CC(=O)CCc1ccc2c(c1)OCO2
REMARK SMILES IDX 4 1 2 2 1 3 3 4 5 5 6 6 7 7 11 8 8 9 10 10 9 11 12 12 14 13
REMARK SMILES IDX 13 14
REMARK H PARENT
REMARK Flexibility Score: inf
ROOT
ATOM      1  C   UNL     1       5.800   1.458  -0.337  1.00  0.00     0.080 C 
ENDROOT
BRANCH   1   2
ATOM      2  C   UNL     1       5.196   1.334   1.019  1.00  0.00     0.130 C 
ATOM      3  C   UNL     1       5.557   0.221   1.936  1.00  0.00     0.087 C 
ATOM      4  O   UNL     1       4.380   2.150   1.418  1.00  0.00    -0.300 OA
ENDBRANCH   1   2
BRANCH   1   5
ATOM      5  C   UNL     1       7.293   1.199  -0.300  1.00  0.00     0.043 C 
BRANCH   5   6
ATOM      6  C   UNL     1       7.639  -0.094  -0.919  1.00  0.00    -0.044 A 
ATOM      7  C   UNL     1       7.691  -0.251  -2.309  1.00  0.00     0.008 A 
ATOM      8  C   UNL     1       7.921  -1.178  -0.120  1.00  0.00     0.054 A 
ATOM      9  C   UNL     1       8.022  -1.487  -2.832  1.00  0.00     0.051 A 
ATOM     10  C   UNL     1       8.256  -2.426  -0.654  1.00  0.00     0.166 A 
ATOM     11  C   UNL     1       8.306  -2.582  -2.022  1.00  0.00     0.165 A 
ATOM     12  O   UNL     1       8.573  -3.639  -0.081  1.00  0.00    -0.454 OA
ATOM     13  O   UNL     1       8.658  -3.901  -2.262  1.00  0.00    -0.454 OA
ATOM     14  C   UNL     1       8.926  -4.583  -1.060  1.00  0.00     0.468 C 
ENDBRANCH   5   6
ENDBRANCH   1   5
TORSDOF 3
ENDMDL
MODEL 3
REMARK VINA RESULT:      -7.2      2.090      2.623
REMARK SMILES CC(=O)CCc1ccc2c(c1)OCO2
REMARK SMILES IDX 4 1 2 2 1 3 3 4 5 5 6 6 7 7 11 8 8 9 10 10 9 11 12 12 14 13
REMARK SMILES IDX 13 14
REMARK H PARENT
REMARK Flexibility Score: inf
ROOT
ATOM      1  C   UNL     1       5.580   0.029   1.942  1.00  0.00     0.080 C 
ENDROOT
BRANCH   1   2
ATOM      2  C   UNL     1       4.680   1.172   1.624  1.00  0.00     0.130 C 
ATOM      3  C   UNL     1       4.973   2.110   0.508  1.00  0.00     0.087 C 
ATOM      4  O   UNL     1       3.668   1.373   2.277  1.00  0.00    -0.300 OA
ENDBRANCH   1   2
BRANCH   1   5
ATOM      5  C   UNL     1       6.990   0.284   1.446  1.00  0.00     0.043 C 
BRANCH   5   6
ATOM      6  C   UNL     1       7.390  -0.688   0.414  1.00  0.00    -0.044 A 
ATOM      7  C   UNL     1       7.284  -0.395  -0.950  1.00  0.00     0.008 A 
ATOM      8  C   UNL     1       7.885  -1.917   0.789  1.00  0.00     0.054 A 
ATOM      9  C   UNL     1       7.676  -1.346  -1.874  1.00  0.00     0.051 A 
ATOM     10  C   UNL     1       8.281  -2.875  -0.149  1.00  0.00     0.166 A 
ATOM     11  C   UNL     1       8.175  -2.587  -1.492  1.00  0.00     0.165 A 
ATOM     12  O   UNL     1       8.795  -4.149  -0.031  1.00  0.00    -0.454 OA
ATOM     13  O   UNL     1       8.632  -3.702  -2.178  1.00  0.00    -0.454 OA
ATOM     14  C   UNL     1       9.120  -4.680  -1.291  1.00  0.00     0.468 C 
ENDBRANCH   5   6
ENDBRANCH   1   5
TORSDOF 3
ENDMDL
MODEL 4
REMARK VINA RESULT:      -7.1      1.239      1.437
REMARK SMILES CC(=O)CCc1ccc2c(c1)OCO2
REMARK SMILES IDX 4 1 2 2 1 3 3 4 5 5 6 6 7 7 11 8 8 9 10 10 9 11 12 12 14 13
REMARK SMILES IDX 13 14
REMARK H PARENT
REMARK Flexibility Score: inf
ROOT
ATOM      1  C   UNL     1       6.336   1.261   0.875  1.00  0.00     0.080 C 
ENDROOT
BRANCH   1   2
ATOM      2  C   UNL     1       5.665   0.434   1.916  1.00  0.00     0.130 C 
ATOM      3  C   UNL     1       6.305  -0.787   2.476  1.00  0.00     0.087 C 
ATOM      4  O   UNL     1       4.563   0.738   2.343  1.00  0.00    -0.300 OA
ENDBRANCH   1   2
BRANCH   1   5
ATOM      5  C   UNL     1       5.822   0.924  -0.511  1.00  0.00     0.043 C 
BRANCH   5   6
ATOM      6  C   UNL     1       6.790   0.113  -1.271  1.00  0.00    -0.044 A 
ATOM      7  C   UNL     1       7.506   0.646  -2.349  1.00  0.00     0.008 A 
ATOM      8  C   UNL     1       7.006  -1.199  -0.918  1.00  0.00     0.054 A 
ATOM      9  C   UNL     1       8.402  -0.163  -3.025  1.00  0.00     0.051 A 
ATOM     10  C   UNL     1       7.913  -2.012  -1.604  1.00  0.00     0.166 A 
ATOM     11  C   UNL     1       8.617  -1.490  -2.666  1.00  0.00     0.165 A 
ATOM     12  O   UNL     1       8.299  -3.327  -1.450  1.00  0.00    -0.454 OA
ATOM     13  O   UNL     1       9.429  -2.505  -3.147  1.00  0.00    -0.454 OA
ATOM     14  C   UNL     1       9.326  -3.660  -2.349  1.00  0.00     0.468 C 
ENDBRANCH   5   6
ENDBRANCH   1   5
TORSDOF 3
ENDMDL
MODEL 5
REMARK VINA RESULT:      -6.8      1.183      5.177
REMARK SMILES CC(=O)CCc1ccc2c(c1)OCO2
REMARK SMILES IDX 4 1 2 2 1 3 3 4 5 5 6 6 7 7 11 8 8 9 10 10 9 11 12 12 14 13
REMARK SMILES IDX 13 14
REMARK H PARENT
REMARK Flexibility Score: inf
ROOT
ATOM      1  C   UNL     1       8.331   0.225  -2.590  1.00  0.00     0.080 C 
ENDROOT
BRANCH   1   2
ATOM      2  C   UNL     1       8.019  -1.227  -2.706  1.00  0.00     0.130 C 
ATOM      3  C   UNL     1       9.073  -2.229  -3.017  1.00  0.00     0.087 C 
ATOM      4  O   UNL     1       6.881  -1.638  -2.548  1.00  0.00    -0.300 OA
ENDBRANCH   1   2
BRANCH   1   5
ATOM      5  C   UNL     1       8.846   0.569  -1.206  1.00  0.00     0.043 C 
BRANCH   5   6
ATOM      6  C   UNL     1       7.795   0.434  -0.182  1.00  0.00    -0.044 A 
ATOM      7  C   UNL     1       7.882  -0.524   0.835  1.00  0.00     0.008 A 
ATOM      8  C   UNL     1       6.699   1.265  -0.216  1.00  0.00     0.054 A 
ATOM      9  C   UNL     1       6.865  -0.604   1.769  1.00  0.00     0.051 A 
ATOM     10  C   UNL     1       5.674   1.180   0.731  1.00  0.00     0.166 A 
ATOM     11  C   UNL     1       5.757   0.238   1.732  1.00  0.00     0.165 A 
ATOM     12  O   UNL     1       4.499   1.880   0.910  1.00  0.00    -0.454 OA
ATOM     13  O   UNL     1       4.622   0.381   2.513  1.00  0.00    -0.454 OA
ATOM     14  C   UNL     1       3.841   1.470   2.081  1.00  0.00     0.468 C 
ENDBRANCH   5   6
ENDBRANCH   1   5
TORSDOF 3
ENDMDL
