@<TRIPOS>MOLECULE
/home/cewinharhar/GITHUB/reincatalyze/data/processed/docking_pred/2023-May-30-2130_sub9_nm5_bs15_s42_ex16_mel10_mts10000_k50_ec05_g099_lra3e-4_lrc3e-3/5c03b3f969ed47612f71fd8c49d4b8d1b6c55f0c_ligand_9.pdbqt
 14 15 0 0 0
SMALL
GASTEIGER

@<TRIPOS>ATOM
      1  C          6.3360    1.2610    0.8750 C.3     1  UNL1        0.0800
      2  C          5.6650    0.4340    1.9160 C.2     1  UNL1        0.1300
      3  C          6.3050   -0.7870    2.4760 C.3     1  UNL1        0.0870
      4  O          4.5630    0.7380    2.3430 O.2     1  UNL1       -0.3000
      5  C          5.8220    0.9240   -0.5110 C.3     1  UNL1        0.0430
      6  C          6.7900    0.1130   -1.2710 C.2     1  UNL1       -0.0440
      7  C          7.5060    0.6460   -2.3490 C.2     1  UNL1        0.0080
      8  C          7.0060   -1.1990   -0.9180 C.2     1  UNL1        0.0540
      9  C          8.4020   -0.1630   -3.0250 C.2     1  UNL1        0.0510
     10  C          7.9130   -2.0120   -1.6040 C.2     1  UNL1        0.1660
     11  C          8.6170   -1.4900   -2.6660 C.2     1  UNL1        0.1650
     12  O          8.2990   -3.3270   -1.4500 O.2     1  UNL1       -0.4540
     13  O          9.4290   -2.5050   -3.1470 O.2     1  UNL1       -0.4540
     14  C          9.3260   -3.6600   -2.3490 C.3     1  UNL1        0.4680
@<TRIPOS>BOND
     1    13    11    1
     2    13    14    1
     3     9    11    2
     4     9     7    1
     5    11    10    1
     6     7     6    2
     7    14    12    1
     8    10    12    1
     9    10     8    2
    10     6     8    1
    11     6     5    1
    12     5     1    1
    13     1     2    1
    14     2     4    2
    15     2     3    1
