@<TRIPOS>MOLECULE
/home/cewinharhar/GITHUB/reincatalyze/data/processed/docking_pred/2023-May-30-2130_sub9_nm5_bs15_s42_ex16_mel10_mts10000_k50_ec05_g099_lra3e-4_lrc3e-3/5df37410f6adb46b6d78e49091d5d78593939f61_ligand_9.pdbqt
 14 15 0 0 0
SMALL
GASTEIGER

@<TRIPOS>ATOM
      1  C          5.5740    0.0300    1.9530 C.3     1  UNL1        0.0800
      2  C          4.6730    1.1710    1.6320 C.2     1  UNL1        0.1300
      3  C          4.9650    2.1060    0.5120 C.3     1  UNL1        0.0870
      4  O          3.6620    1.3740    2.2850 O.2     1  UNL1       -0.3000
      5  C          6.9840    0.2850    1.4580 C.3     1  UNL1        0.0430
      6  C          7.3840   -0.6860    0.4240 C.2     1  UNL1       -0.0440
      7  C          7.2760   -0.3910   -0.9400 C.2     1  UNL1        0.0080
      8  C          7.8800   -1.9150    0.7970 C.2     1  UNL1        0.0540
      9  C          7.6670   -1.3410   -1.8650 C.2     1  UNL1        0.0510
     10  C          8.2750   -2.8720   -0.1420 C.2     1  UNL1        0.1660
     11  C          8.1680   -2.5830   -1.4850 C.2     1  UNL1        0.1650
     12  O          8.7900   -4.1450   -0.0260 O.2     1  UNL1       -0.4540
     13  O          8.6250   -3.6960   -2.1720 O.2     1  UNL1       -0.4540
     14  C          9.1140   -4.6750   -1.2860 C.3     1  UNL1        0.4680
@<TRIPOS>BOND
     1    13    11    1
     2    13    14    1
     3     9    11    2
     4     9     7    1
     5    11    10    1
     6    14    12    1
     7     7     6    2
     8    10    12    1
     9    10     8    2
    10     6     8    1
    11     6     5    1
    12     3     2    1
    13     5     1    1
    14     2     1    1
    15     2     4    2
