@<TRIPOS>MOLECULE
/home/cewinharhar/GITHUB/reincatalyze/data/processed/docking_pred/2023-May-30-2130_sub9_nm5_bs15_s42_ex16_mel10_mts10000_k50_ec05_g099_lra3e-4_lrc3e-3/5df37410f6adb46b6d78e49091d5d78593939f61_ligand_9.pdbqt
 14 15 0 0 0
SMALL
GASTEIGER

@<TRIPOS>ATOM
      1  C          5.7100    1.2660   -0.2840 C.3     1  UNL1        0.0800
      2  C          5.1490    1.2290    1.0950 C.2     1  UNL1        0.1300
      3  C          5.3910    0.0780    2.0060 C.3     1  UNL1        0.0870
      4  O          4.4690    2.1490    1.5200 O.2     1  UNL1       -0.3000
      5  C          7.2080    1.0370   -0.2760 C.3     1  UNL1        0.0430
      6  C          7.5670   -0.2530   -0.8930 C.2     1  UNL1       -0.0440
      7  C          7.5800   -0.4220   -2.2820 C.2     1  UNL1        0.0080
      8  C          7.9030   -1.3210   -0.0930 C.2     1  UNL1        0.0540
      9  C          7.9260   -1.6550   -2.8040 C.2     1  UNL1        0.0510
     10  C          8.2530   -2.5660   -0.6260 C.2     1  UNL1        0.1660
     11  C          8.2640   -2.7340   -1.9930 C.2     1  UNL1        0.1650
     12  O          8.6190   -3.7640   -0.0520 O.2     1  UNL1       -0.4540
     13  O          8.6430   -4.0460   -2.2320 O.2     1  UNL1       -0.4540
     14  C          8.9650   -4.7080   -1.0320 C.3     1  UNL1        0.4680
@<TRIPOS>BOND
     1     9     7    1
     2     9    11    2
     3     7     6    2
     4    13    11    1
     5    13    14    1
     6    11    10    1
     7    14    12    1
     8     6     5    1
     9     6     8    1
    10    10     8    2
    11    10    12    1
    12     1     5    1
    13     1     2    1
    14     2     4    2
    15     2     3    1
