MODEL 1
REMARK VINA RESULT:      -7.6      0.000      0.000
REMARK SMILES CC(=O)CCc1ccc2c(c1)OCO2
REMARK SMILES IDX 4 1 2 2 1 3 3 4 5 5 6 6 7 7 11 8 8 9 10 10 9 11 12 12 14 13
REMARK SMILES IDX 13 14
REMARK H PARENT
REMARK Flexibility Score: inf
ROOT
ATOM      1  C   UNL     1       5.539   1.917   1.269  1.00  0.00     0.080 C 
ENDROOT
BRANCH   1   2
ATOM      2  C   UNL     1       5.106   0.696   2.003  1.00  0.00     0.130 C 
ATOM      3  C   UNL     1       6.013  -0.468   2.186  1.00  0.00     0.087 C 
ATOM      4  O   UNL     1       3.985   0.615   2.479  1.00  0.00    -0.300 OA
ENDBRANCH   1   2
BRANCH   1   5
ATOM      5  C   UNL     1       5.411   1.732  -0.230  1.00  0.00     0.043 C 
BRANCH   5   6
ATOM      6  C   UNL     1       6.576   1.027  -0.795  1.00  0.00    -0.044 A 
ATOM      7  C   UNL     1       7.884   1.459  -0.550  1.00  0.00     0.008 A 
ATOM      8  C   UNL     1       6.383  -0.086  -1.582  1.00  0.00     0.054 A 
ATOM      9  C   UNL     1       8.938   0.757  -1.106  1.00  0.00     0.051 A 
ATOM     10  C   UNL     1       7.452  -0.793  -2.141  1.00  0.00     0.166 A 
ATOM     11  C   UNL     1       8.740  -0.368  -1.901  1.00  0.00     0.165 A 
ATOM     12  O   UNL     1       7.521  -1.911  -2.945  1.00  0.00    -0.454 OA
ATOM     13  O   UNL     1       9.582  -1.243  -2.570  1.00  0.00    -0.454 OA
ATOM     14  C   UNL     1       8.855  -2.289  -3.169  1.00  0.00     0.468 C 
ENDBRANCH   5   6
ENDBRANCH   1   5
TORSDOF 3
ENDMDL
MODEL 2
REMARK VINA RESULT:      -7.4      1.918      2.408
REMARK SMILES CC(=O)CCc1ccc2c(c1)OCO2
REMARK SMILES IDX 4 1 2 2 1 3 3 4 5 5 6 6 7 7 11 8 8 9 10 10 9 11 12 12 14 13
REMARK SMILES IDX 13 14
REMARK H PARENT
REMARK Flexibility Score: inf
ROOT
ATOM      1  C   UNL     1       5.710   1.266  -0.284  1.00  0.00     0.080 C 
ENDROOT
BRANCH   1   2
ATOM      2  C   UNL     1       5.149   1.229   1.095  1.00  0.00     0.130 C 
ATOM      3  C   UNL     1       5.391   0.078   2.006  1.00  0.00     0.087 C 
ATOM      4  O   UNL     1       4.469   2.149   1.520  1.00  0.00    -0.300 OA
ENDBRANCH   1   2
BRANCH   1   5
ATOM      5  C   UNL     1       7.208   1.037  -0.276  1.00  0.00     0.043 C 
BRANCH   5   6
ATOM      6  C   UNL     1       7.567  -0.253  -0.893  1.00  0.00    -0.044 A 
ATOM      7  C   UNL     1       7.580  -0.422  -2.282  1.00  0.00     0.008 A 
ATOM      8  C   UNL     1       7.903  -1.321  -0.093  1.00  0.00     0.054 A 
ATOM      9  C   UNL     1       7.926  -1.655  -2.804  1.00  0.00     0.051 A 
ATOM     10  C   UNL     1       8.253  -2.566  -0.626  1.00  0.00     0.166 A 
ATOM     11  C   UNL     1       8.264  -2.734  -1.993  1.00  0.00     0.165 A 
ATOM     12  O   UNL     1       8.619  -3.764  -0.052  1.00  0.00    -0.454 OA
ATOM     13  O   UNL     1       8.643  -4.046  -2.232  1.00  0.00    -0.454 OA
ATOM     14  C   UNL     1       8.965  -4.708  -1.032  1.00  0.00     0.468 C 
ENDBRANCH   5   6
ENDBRANCH   1   5
TORSDOF 3
ENDMDL
MODEL 3
REMARK VINA RESULT:      -7.2      2.084      2.619
REMARK SMILES CC(=O)CCc1ccc2c(c1)OCO2
REMARK SMILES IDX 4 1 2 2 1 3 3 4 5 5 6 6 7 7 11 8 8 9 10 10 9 11 12 12 14 13
REMARK SMILES IDX 13 14
REMARK H PARENT
REMARK Flexibility Score: inf
ROOT
ATOM      1  C   UNL     1       5.574   0.030   1.953  1.00  0.00     0.080 C 
ENDROOT
BRANCH   1   2
ATOM      2  C   UNL     1       4.673   1.171   1.632  1.00  0.00     0.130 C 
ATOM      3  C   UNL     1       4.965   2.106   0.512  1.00  0.00     0.087 C 
ATOM      4  O   UNL     1       3.662   1.374   2.285  1.00  0.00    -0.300 OA
ENDBRANCH   1   2
BRANCH   1   5
ATOM      5  C   UNL     1       6.984   0.285   1.458  1.00  0.00     0.043 C 
BRANCH   5   6
ATOM      6  C   UNL     1       7.384  -0.686   0.424  1.00  0.00    -0.044 A 
ATOM      7  C   UNL     1       7.276  -0.391  -0.940  1.00  0.00     0.008 A 
ATOM      8  C   UNL     1       7.880  -1.915   0.797  1.00  0.00     0.054 A 
ATOM      9  C   UNL     1       7.667  -1.341  -1.865  1.00  0.00     0.051 A 
ATOM     10  C   UNL     1       8.275  -2.872  -0.142  1.00  0.00     0.166 A 
ATOM     11  C   UNL     1       8.168  -2.583  -1.485  1.00  0.00     0.165 A 
ATOM     12  O   UNL     1       8.790  -4.145  -0.026  1.00  0.00    -0.454 OA
ATOM     13  O   UNL     1       8.625  -3.696  -2.172  1.00  0.00    -0.454 OA
ATOM     14  C   UNL     1       9.114  -4.675  -1.286  1.00  0.00     0.468 C 
ENDBRANCH   5   6
ENDBRANCH   1   5
TORSDOF 3
ENDMDL
MODEL 4
REMARK VINA RESULT:      -7.1      1.262      1.476
REMARK SMILES CC(=O)CCc1ccc2c(c1)OCO2
REMARK SMILES IDX 4 1 2 2 1 3 3 4 5 5 6 6 7 7 11 8 8 9 10 10 9 11 12 12 14 13
REMARK SMILES IDX 13 14
REMARK H PARENT
REMARK Flexibility Score: inf
ROOT
ATOM      1  C   UNL     1       6.392   1.169   0.963  1.00  0.00     0.080 C 
ENDROOT
BRANCH   1   2
ATOM      2  C   UNL     1       5.645   0.343   1.952  1.00  0.00     0.130 C 
ATOM      3  C   UNL     1       6.234  -0.886   2.547  1.00  0.00     0.087 C 
ATOM      4  O   UNL     1       4.518   0.654   2.304  1.00  0.00    -0.300 OA
ENDBRANCH   1   2
BRANCH   1   5
ATOM      5  C   UNL     1       5.893   0.926  -0.447  1.00  0.00     0.043 C 
BRANCH   5   6
ATOM      6  C   UNL     1       6.830   0.093  -1.223  1.00  0.00    -0.044 A 
ATOM      7  C   UNL     1       7.494   0.592  -2.349  1.00  0.00     0.008 A 
ATOM      8  C   UNL     1       7.066  -1.207  -0.838  1.00  0.00     0.054 A 
ATOM      9  C   UNL     1       8.363  -0.235  -3.037  1.00  0.00     0.051 A 
ATOM     10  C   UNL     1       7.946  -2.039  -1.536  1.00  0.00     0.166 A 
ATOM     11  C   UNL     1       8.599  -1.549  -2.645  1.00  0.00     0.165 A 
ATOM     12  O   UNL     1       8.344  -3.347  -1.358  1.00  0.00    -0.454 OA
ATOM     13  O   UNL     1       9.394  -2.577  -3.129  1.00  0.00    -0.454 OA
ATOM     14  C   UNL     1       9.331  -3.706  -2.290  1.00  0.00     0.468 C 
ENDBRANCH   5   6
ENDBRANCH   1   5
TORSDOF 3
ENDMDL
MODEL 5
REMARK VINA RESULT:      -6.8      1.187      5.162
REMARK SMILES CC(=O)CCc1ccc2c(c1)OCO2
REMARK SMILES IDX 4 1 2 2 1 3 3 4 5 5 6 6 7 7 11 8 8 9 10 10 9 11 12 12 14 13
REMARK SMILES IDX 13 14
REMARK H PARENT
REMARK Flexibility Score: inf
ROOT
ATOM      1  C   UNL     1       8.348   0.189  -2.676  1.00  0.00     0.080 C 
ENDROOT
BRANCH   1   2
ATOM      2  C   UNL     1       8.058  -1.270  -2.766  1.00  0.00     0.130 C 
ATOM      3  C   UNL     1       9.131  -2.264  -3.032  1.00  0.00     0.087 C 
ATOM      4  O   UNL     1       6.922  -1.693  -2.622  1.00  0.00    -0.300 OA
ENDBRANCH   1   2
BRANCH   1   5
ATOM      5  C   UNL     1       8.876   0.561  -1.305  1.00  0.00     0.043 C 
BRANCH   5   6
ATOM      6  C   UNL     1       7.843   0.420  -0.264  1.00  0.00    -0.044 A 
ATOM      7  C   UNL     1       7.951  -0.537   0.752  1.00  0.00     0.008 A 
ATOM      8  C   UNL     1       6.742   1.246  -0.279  1.00  0.00     0.054 A 
ATOM      9  C   UNL     1       6.950  -0.623   1.703  1.00  0.00     0.051 A 
ATOM     10  C   UNL     1       5.733   1.156   0.685  1.00  0.00     0.166 A 
ATOM     11  C   UNL     1       5.838   0.213   1.684  1.00  0.00     0.165 A 
ATOM     12  O   UNL     1       4.558   1.849   0.883  1.00  0.00    -0.454 OA
ATOM     13  O   UNL     1       4.714   0.350   2.484  1.00  0.00    -0.454 OA
ATOM     14  C   UNL     1       3.921   1.435   2.065  1.00  0.00     0.468 C 
ENDBRANCH   5   6
ENDBRANCH   1   5
TORSDOF 3
ENDMDL
