@<TRIPOS>MOLECULE
/home/cewinharhar/GITHUB/reincatalyze/data/processed/docking_pred/2023-May-30-2130_sub9_nm5_bs15_s42_ex16_mel10_mts10000_k50_ec05_g099_lra3e-4_lrc3e-3/5df37410f6adb46b6d78e49091d5d78593939f61_ligand_9.pdbqt
 14 15 0 0 0
SMALL
GASTEIGER

@<TRIPOS>ATOM
      1  C          5.5390    1.9170    1.2690 C.3     1  UNL1        0.0800
      2  C          5.1060    0.6960    2.0030 C.2     1  UNL1        0.1300
      3  C          6.0130   -0.4680    2.1860 C.3     1  UNL1        0.0870
      4  O          3.9850    0.6150    2.4790 O.2     1  UNL1       -0.3000
      5  C          5.4110    1.7320   -0.2300 C.3     1  UNL1        0.0430
      6  C          6.5760    1.0270   -0.7950 C.2     1  UNL1       -0.0440
      7  C          7.8840    1.4590   -0.5500 C.2     1  UNL1        0.0080
      8  C          6.3830   -0.0860   -1.5820 C.2     1  UNL1        0.0540
      9  C          8.9380    0.7570   -1.1060 C.2     1  UNL1        0.0510
     10  C          7.4520   -0.7930   -2.1410 C.2     1  UNL1        0.1660
     11  C          8.7400   -0.3680   -1.9010 C.2     1  UNL1        0.1650
     12  O          7.5210   -1.9110   -2.9450 O.2     1  UNL1       -0.4540
     13  O          9.5820   -1.2430   -2.5700 O.2     1  UNL1       -0.4540
     14  C          8.8550   -2.2890   -3.1690 C.3     1  UNL1        0.4680
@<TRIPOS>BOND
     1    14    12    1
     2    14    13    1
     3    12    10    1
     4    13    11    1
     5    10    11    2
     6    10     8    1
     7    11     9    1
     8     8     6    2
     9     9     7    2
    10     6     7    1
    11     6     5    1
    12     5     1    1
    13     1     2    1
    14     2     3    1
    15     2     4    2
