@<TRIPOS>MOLECULE
/home/cewinharhar/GITHUB/reincatalyze/data/processed/docking_pred/2023-May-30-2130_sub9_nm5_bs15_s42_ex16_mel10_mts10000_k50_ec05_g099_lra3e-4_lrc3e-3/5f00cdda1ab61f28c1ea6d7129614616e9231d70_ligand_9.pdbqt
 14 15 0 0 0
SMALL
GASTEIGER

@<TRIPOS>ATOM
      1  C          6.3750    1.2240    0.9210 C.3     1  UNL1        0.0800
      2  C          5.6640    0.3970    1.9350 C.2     1  UNL1        0.1300
      3  C          6.2870   -0.8160    2.5290 C.3     1  UNL1        0.0870
      4  O          4.5410    0.6930    2.3090 O.2     1  UNL1       -0.3000
      5  C          5.8670    0.9370   -0.4790 C.3     1  UNL1        0.0430
      6  C          6.8160    0.1110   -1.2460 C.2     1  UNL1       -0.0440
      7  C          7.5030    0.6200   -2.3540 C.2     1  UNL1        0.0080
      8  C          7.0420   -1.1940   -0.8710 C.2     1  UNL1        0.0540
      9  C          8.3820   -0.2020   -3.0340 C.2     1  UNL1        0.0510
     10  C          7.9320   -2.0220   -1.5620 C.2     1  UNL1        0.1660
     11  C          8.6080   -1.5210   -2.6530 C.2     1  UNL1        0.1650
     12  O          8.3230   -3.3330   -1.3900 O.2     1  UNL1       -0.4540
     13  O          9.4080   -2.5460   -3.1330 O.2     1  UNL1       -0.4540
     14  C          9.3270   -3.6840   -2.3080 C.3     1  UNL1        0.4680
@<TRIPOS>BOND
     1    13    11    1
     2    13    14    1
     3     9    11    2
     4     9     7    1
     5    11    10    1
     6     7     6    2
     7    14    12    1
     8    10    12    1
     9    10     8    2
    10     6     8    1
    11     6     5    1
    12     5     1    1
    13     1     2    1
    14     2     4    2
    15     2     3    1
