@<TRIPOS>MOLECULE
/home/cewinharhar/GITHUB/reincatalyze/data/processed/docking_pred/2023-May-30-2130_sub9_nm5_bs15_s42_ex16_mel10_mts10000_k50_ec05_g099_lra3e-4_lrc3e-3/5f7ce1df4e505eeb6c5bd28a98530cf3f623dbf2_ligand_9.pdbqt
 14 15 0 0 0
SMALL
GASTEIGER

@<TRIPOS>ATOM
      1  C          5.5380    1.9100    1.2780 C.3     1  UNL1        0.0800
      2  C          5.0870    0.6940    2.0090 C.2     1  UNL1        0.1300
      3  C          5.9720   -0.4900    2.1780 C.3     1  UNL1        0.0870
      4  O          3.9690    0.6330    2.4950 O.2     1  UNL1       -0.3000
      5  C          5.4090    1.7310   -0.2220 C.3     1  UNL1        0.0430
      6  C          6.5720    1.0270   -0.7900 C.2     1  UNL1       -0.0440
      7  C          7.8810    1.4620   -0.5500 C.2     1  UNL1        0.0080
      8  C          6.3800   -0.0860   -1.5760 C.2     1  UNL1        0.0540
      9  C          8.9340    0.7610   -1.1090 C.2     1  UNL1        0.0510
     10  C          7.4480   -0.7910   -2.1390 C.2     1  UNL1        0.1660
     11  C          8.7360   -0.3640   -1.9040 C.2     1  UNL1        0.1650
     12  O          7.5160   -1.9090   -2.9430 O.2     1  UNL1       -0.4540
     13  O          9.5770   -1.2370   -2.5740 O.2     1  UNL1       -0.4540
     14  C          8.8500   -2.2850   -3.1710 C.3     1  UNL1        0.4680
@<TRIPOS>BOND
     1    14    12    1
     2    14    13    1
     3    12    10    1
     4    13    11    1
     5    10    11    2
     6    10     8    1
     7    11     9    1
     8     8     6    2
     9     9     7    2
    10     6     7    1
    11     6     5    1
    12     5     1    1
    13     1     2    1
    14     2     3    1
    15     2     4    2
