@<TRIPOS>MOLECULE
/home/cewinharhar/GITHUB/reincatalyze/data/processed/docking_pred/2023-May-30-2130_sub9_nm5_bs15_s42_ex16_mel10_mts10000_k50_ec05_g099_lra3e-4_lrc3e-3/6047b5c71b47d2a809e14c46b0582b8ae3076bc9_ligand_9.pdbqt
 14 15 0 0 0
SMALL
GASTEIGER

@<TRIPOS>ATOM
      1  C          5.4810   -0.0110    2.0100 C.3     1  UNL1        0.0800
      2  C          4.5940    1.1580    1.7530 C.2     1  UNL1        0.1300
      3  C          4.8890    2.1380    0.6740 C.3     1  UNL1        0.0870
      4  O          3.5940    1.3460    2.4250 O.2     1  UNL1       -0.3000
      5  C          6.8970    0.2580    1.5420 C.3     1  UNL1        0.0430
      6  C          7.3100   -0.6800    0.4830 C.2     1  UNL1       -0.0440
      7  C          7.1870   -0.3550   -0.8730 C.2     1  UNL1        0.0080
      8  C          7.8340   -1.9060    0.8240 C.2     1  UNL1        0.0540
      9  C          7.5930   -1.2750   -1.8230 C.2     1  UNL1        0.0510
     10  C          8.2420   -2.8330   -0.1400 C.2     1  UNL1        0.1660
     11  C          8.1210   -2.5140   -1.4750 C.2     1  UNL1        0.1650
     12  O          8.7840   -4.0980   -0.0580 O.2     1  UNL1       -0.4540
     13  O          8.5960   -3.6010   -2.1910 O.2     1  UNL1       -0.4540
     14  C          9.1110   -4.5910   -1.3320 C.3     1  UNL1        0.4680
@<TRIPOS>BOND
     1    13    11    1
     2    13    14    1
     3     9    11    2
     4     9     7    1
     5    11    10    1
     6    14    12    1
     7     7     6    2
     8    10    12    1
     9    10     8    2
    10     6     8    1
    11     6     5    1
    12     3     2    1
    13     5     1    1
    14     2     1    1
    15     2     4    2
