@<TRIPOS>MOLECULE
/home/cewinharhar/GITHUB/reincatalyze/data/processed/docking_pred/2023-May-30-2130_sub9_nm5_bs15_s42_ex16_mel10_mts10000_k50_ec05_g099_lra3e-4_lrc3e-3/6047b5c71b47d2a809e14c46b0582b8ae3076bc9_ligand_9.pdbqt
 14 15 0 0 0
SMALL
GASTEIGER

@<TRIPOS>ATOM
      1  C          6.7550    1.1460    1.1110 C.3     1  UNL1        0.0800
      2  C          5.3700    1.6420    0.8750 C.2     1  UNL1        0.1300
      3  C          4.9380    2.1480   -0.4550 C.3     1  UNL1        0.0870
      4  O          4.5450    1.6480    1.7750 O.2     1  UNL1       -0.3000
      5  C          7.6040    1.2710   -0.1390 C.3     1  UNL1        0.0430
      6  C          7.8850   -0.0450   -0.7420 C.2     1  UNL1       -0.0440
      7  C          8.0040   -0.2060   -2.1270 C.2     1  UNL1        0.0080
      8  C          8.0380   -1.1470    0.0680 C.2     1  UNL1        0.0540
      9  C          8.2690   -1.4640   -2.6360 C.2     1  UNL1        0.0510
     10  C          8.3070   -2.4170   -0.4520 C.2     1  UNL1        0.1660
     11  C          8.4230   -2.5770   -1.8140 C.2     1  UNL1        0.1650
     12  O          8.4980   -3.6510    0.1340 O.2     1  UNL1       -0.4540
     13  O          8.6860   -3.9190   -2.0400 O.2     1  UNL1       -0.4540
     14  C          8.8320   -4.6190   -0.8270 C.3     1  UNL1        0.4680
@<TRIPOS>BOND
     1     9     7    1
     2     9    11    2
     3     7     6    2
     4    13    11    1
     5    13    14    1
     6    11    10    1
     7    14    12    1
     8     6     5    1
     9     6     8    1
    10     3     2    1
    11    10     8    2
    12    10    12    1
    13     5     1    1
    14     2     1    1
    15     2     4    2
