@<TRIPOS>MOLECULE
/home/cewinharhar/GITHUB/reincatalyze/data/processed/docking_pred/2023-May-30-2130_sub9_nm5_bs15_s42_ex16_mel10_mts10000_k50_ec05_g099_lra3e-4_lrc3e-3/6047b5c71b47d2a809e14c46b0582b8ae3076bc9_ligand_9.pdbqt
 14 15 0 0 0
SMALL
GASTEIGER

@<TRIPOS>ATOM
      1  C          5.7390    1.3380   -0.3080 C.3     1  UNL1        0.0800
      2  C          5.1250    1.2580    1.0470 C.2     1  UNL1        0.1300
      3  C          5.3630    0.0970    1.9450 C.3     1  UNL1        0.0870
      4  O          4.4020    2.1500    1.4610 O.2     1  UNL1       -0.3000
      5  C          7.2350    1.1040   -0.2490 C.3     1  UNL1        0.0430
      6  C          7.6120   -0.1830   -0.8590 C.2     1  UNL1       -0.0440
      7  C          7.6970   -0.3390   -2.2480 C.2     1  UNL1        0.0080
      8  C          7.8920   -1.2640   -0.0550 C.2     1  UNL1        0.0540
      9  C          8.0560   -1.5710   -2.7640 C.2     1  UNL1        0.0510
     10  C          8.2560   -2.5070   -0.5810 C.2     1  UNL1        0.1660
     11  C          8.3380   -2.6620   -1.9470 C.2     1  UNL1        0.1650
     12  O          8.5770   -3.7160   -0.0010 O.2     1  UNL1       -0.4540
     13  O          8.7130   -3.9750   -2.1800 O.2     1  UNL1       -0.4540
     14  C          8.9630   -4.6540   -0.9730 C.3     1  UNL1        0.4680
@<TRIPOS>BOND
     1     9     7    1
     2     9    11    2
     3     7     6    2
     4    13    11    1
     5    13    14    1
     6    11    10    1
     7    14    12    1
     8     6     5    1
     9     6     8    1
    10    10     8    2
    11    10    12    1
    12     1     5    1
    13     1     2    1
    14     2     4    2
    15     2     3    1
