MODEL 1
REMARK VINA RESULT:      -7.6      0.000      0.000
REMARK SMILES CC(=O)CCc1ccc2c(c1)OCO2
REMARK SMILES IDX 4 1 2 2 1 3 3 4 5 5 6 6 7 7 11 8 8 9 10 10 9 11 12 12 14 13
REMARK SMILES IDX 13 14
REMARK H PARENT
REMARK Flexibility Score: inf
ROOT
ATOM      1  C   UNL     1       5.535   1.924   1.268  1.00  0.00     0.080 C 
ENDROOT
BRANCH   1   2
ATOM      2  C   UNL     1       5.099   0.706   2.006  1.00  0.00     0.130 C 
ATOM      3  C   UNL     1       6.001  -0.464   2.182  1.00  0.00     0.087 C 
ATOM      4  O   UNL     1       3.981   0.632   2.489  1.00  0.00    -0.300 OA
ENDBRANCH   1   2
BRANCH   1   5
ATOM      5  C   UNL     1       5.408   1.736  -0.230  1.00  0.00     0.043 C 
BRANCH   5   6
ATOM      6  C   UNL     1       6.573   1.030  -0.793  1.00  0.00    -0.044 A 
ATOM      7  C   UNL     1       7.881   1.456  -0.537  1.00  0.00     0.008 A 
ATOM      8  C   UNL     1       6.381  -0.077  -1.588  1.00  0.00     0.054 A 
ATOM      9  C   UNL     1       8.936   0.753  -1.092  1.00  0.00     0.051 A 
ATOM     10  C   UNL     1       7.451  -0.785  -2.145  1.00  0.00     0.166 A 
ATOM     11  C   UNL     1       8.739  -0.365  -1.895  1.00  0.00     0.165 A 
ATOM     12  O   UNL     1       7.521  -1.897  -2.956  1.00  0.00    -0.454 OA
ATOM     13  O   UNL     1       9.581  -1.239  -2.564  1.00  0.00    -0.454 OA
ATOM     14  C   UNL     1       8.855  -2.279  -3.175  1.00  0.00     0.468 C 
ENDBRANCH   5   6
ENDBRANCH   1   5
TORSDOF 3
ENDMDL
MODEL 2
REMARK VINA RESULT:      -7.5      1.926      2.382
REMARK SMILES CC(=O)CCc1ccc2c(c1)OCO2
REMARK SMILES IDX 4 1 2 2 1 3 3 4 5 5 6 6 7 7 11 8 8 9 10 10 9 11 12 12 14 13
REMARK SMILES IDX 13 14
REMARK H PARENT
REMARK Flexibility Score: inf
ROOT
ATOM      1  C   UNL     1       5.739   1.338  -0.308  1.00  0.00     0.080 C 
ENDROOT
BRANCH   1   2
ATOM      2  C   UNL     1       5.125   1.258   1.047  1.00  0.00     0.130 C 
ATOM      3  C   UNL     1       5.363   0.097   1.945  1.00  0.00     0.087 C 
ATOM      4  O   UNL     1       4.402   2.150   1.461  1.00  0.00    -0.300 OA
ENDBRANCH   1   2
BRANCH   1   5
ATOM      5  C   UNL     1       7.235   1.104  -0.249  1.00  0.00     0.043 C 
BRANCH   5   6
ATOM      6  C   UNL     1       7.612  -0.183  -0.859  1.00  0.00    -0.044 A 
ATOM      7  C   UNL     1       7.697  -0.339  -2.248  1.00  0.00     0.008 A 
ATOM      8  C   UNL     1       7.892  -1.264  -0.055  1.00  0.00     0.054 A 
ATOM      9  C   UNL     1       8.056  -1.571  -2.764  1.00  0.00     0.051 A 
ATOM     10  C   UNL     1       8.256  -2.507  -0.581  1.00  0.00     0.166 A 
ATOM     11  C   UNL     1       8.338  -2.662  -1.947  1.00  0.00     0.165 A 
ATOM     12  O   UNL     1       8.577  -3.716  -0.001  1.00  0.00    -0.454 OA
ATOM     13  O   UNL     1       8.713  -3.975  -2.180  1.00  0.00    -0.454 OA
ATOM     14  C   UNL     1       8.963  -4.654  -0.973  1.00  0.00     0.468 C 
ENDBRANCH   5   6
ENDBRANCH   1   5
TORSDOF 3
ENDMDL
MODEL 3
REMARK VINA RESULT:      -7.2      2.042      2.596
REMARK SMILES CC(=O)CCc1ccc2c(c1)OCO2
REMARK SMILES IDX 4 1 2 2 1 3 3 4 5 5 6 6 7 7 11 8 8 9 10 10 9 11 12 12 14 13
REMARK SMILES IDX 13 14
REMARK H PARENT
REMARK Flexibility Score: inf
ROOT
ATOM      1  C   UNL     1       5.481  -0.011   2.010  1.00  0.00     0.080 C 
ENDROOT
BRANCH   1   2
ATOM      2  C   UNL     1       4.594   1.158   1.753  1.00  0.00     0.130 C 
ATOM      3  C   UNL     1       4.889   2.138   0.674  1.00  0.00     0.087 C 
ATOM      4  O   UNL     1       3.594   1.346   2.425  1.00  0.00    -0.300 OA
ENDBRANCH   1   2
BRANCH   1   5
ATOM      5  C   UNL     1       6.897   0.258   1.542  1.00  0.00     0.043 C 
BRANCH   5   6
ATOM      6  C   UNL     1       7.310  -0.680   0.483  1.00  0.00    -0.044 A 
ATOM      7  C   UNL     1       7.187  -0.355  -0.873  1.00  0.00     0.008 A 
ATOM      8  C   UNL     1       7.834  -1.906   0.824  1.00  0.00     0.054 A 
ATOM      9  C   UNL     1       7.593  -1.275  -1.823  1.00  0.00     0.051 A 
ATOM     10  C   UNL     1       8.242  -2.833  -0.140  1.00  0.00     0.166 A 
ATOM     11  C   UNL     1       8.121  -2.514  -1.475  1.00  0.00     0.165 A 
ATOM     12  O   UNL     1       8.784  -4.098  -0.058  1.00  0.00    -0.454 OA
ATOM     13  O   UNL     1       8.596  -3.601  -2.191  1.00  0.00    -0.454 OA
ATOM     14  C   UNL     1       9.111  -4.591  -1.332  1.00  0.00     0.468 C 
ENDBRANCH   5   6
ENDBRANCH   1   5
TORSDOF 3
ENDMDL
MODEL 4
REMARK VINA RESULT:      -7.1      1.250      1.464
REMARK SMILES CC(=O)CCc1ccc2c(c1)OCO2
REMARK SMILES IDX 4 1 2 2 1 3 3 4 5 5 6 6 7 7 11 8 8 9 10 10 9 11 12 12 14 13
REMARK SMILES IDX 13 14
REMARK H PARENT
REMARK Flexibility Score: inf
ROOT
ATOM      1  C   UNL     1       6.368   1.206   0.913  1.00  0.00     0.080 C 
ENDROOT
BRANCH   1   2
ATOM      2  C   UNL     1       5.672   0.374   1.934  1.00  0.00     0.130 C 
ATOM      3  C   UNL     1       6.310  -0.833   2.525  1.00  0.00     0.087 C 
ATOM      4  O   UNL     1       4.550   0.661   2.317  1.00  0.00    -0.300 OA
ENDBRANCH   1   2
BRANCH   1   5
ATOM      5  C   UNL     1       5.858   0.905  -0.482  1.00  0.00     0.043 C 
BRANCH   5   6
ATOM      6  C   UNL     1       6.815   0.088  -1.249  1.00  0.00    -0.044 A 
ATOM      7  C   UNL     1       7.519   0.613  -2.340  1.00  0.00     0.008 A 
ATOM      8  C   UNL     1       7.032  -1.224  -0.893  1.00  0.00     0.054 A 
ATOM      9  C   UNL     1       8.405  -0.202  -3.021  1.00  0.00     0.051 A 
ATOM     10  C   UNL     1       7.929  -2.043  -1.585  1.00  0.00     0.166 A 
ATOM     11  C   UNL     1       8.621  -1.527  -2.658  1.00  0.00     0.165 A 
ATOM     12  O   UNL     1       8.313  -3.358  -1.429  1.00  0.00    -0.454 OA
ATOM     13  O   UNL     1       9.425  -2.547  -3.144  1.00  0.00    -0.454 OA
ATOM     14  C   UNL     1       9.329  -3.697  -2.338  1.00  0.00     0.468 C 
ENDBRANCH   5   6
ENDBRANCH   1   5
TORSDOF 3
ENDMDL
MODEL 5
REMARK VINA RESULT:      -7.0      1.945      2.575
REMARK SMILES CC(=O)CCc1ccc2c(c1)OCO2
REMARK SMILES IDX 4 1 2 2 1 3 3 4 5 5 6 6 7 7 11 8 8 9 10 10 9 11 12 12 14 13
REMARK SMILES IDX 13 14
REMARK H PARENT
REMARK Flexibility Score: inf
ROOT
ATOM      1  C   UNL     1       6.755   1.146   1.111  1.00  0.00     0.080 C 
ENDROOT
BRANCH   1   2
ATOM      2  C   UNL     1       5.370   1.642   0.875  1.00  0.00     0.130 C 
ATOM      3  C   UNL     1       4.938   2.148  -0.455  1.00  0.00     0.087 C 
ATOM      4  O   UNL     1       4.545   1.648   1.775  1.00  0.00    -0.300 OA
ENDBRANCH   1   2
BRANCH   1   5
ATOM      5  C   UNL     1       7.604   1.271  -0.139  1.00  0.00     0.043 C 
BRANCH   5   6
ATOM      6  C   UNL     1       7.885  -0.045  -0.742  1.00  0.00    -0.044 A 
ATOM      7  C   UNL     1       8.004  -0.206  -2.127  1.00  0.00     0.008 A 
ATOM      8  C   UNL     1       8.038  -1.147   0.068  1.00  0.00     0.054 A 
ATOM      9  C   UNL     1       8.269  -1.464  -2.636  1.00  0.00     0.051 A 
ATOM     10  C   UNL     1       8.307  -2.417  -0.452  1.00  0.00     0.166 A 
ATOM     11  C   UNL     1       8.423  -2.577  -1.814  1.00  0.00     0.165 A 
ATOM     12  O   UNL     1       8.498  -3.651   0.134  1.00  0.00    -0.454 OA
ATOM     13  O   UNL     1       8.686  -3.919  -2.040  1.00  0.00    -0.454 OA
ATOM     14  C   UNL     1       8.832  -4.619  -0.827  1.00  0.00     0.468 C 
ENDBRANCH   5   6
ENDBRANCH   1   5
TORSDOF 3
ENDMDL
