MODEL 1
REMARK VINA RESULT:      -7.6      0.000      0.000
REMARK SMILES CC(=O)CCc1ccc2c(c1)OCO2
REMARK SMILES IDX 4 1 2 2 1 3 3 4 5 5 6 6 7 7 11 8 8 9 10 10 9 11 12 12 14 13
REMARK SMILES IDX 13 14
REMARK H PARENT
REMARK Flexibility Score: inf
ROOT
ATOM      1  C   UNL     1       5.544   1.904   1.287  1.00  0.00     0.080 C 
ENDROOT
BRANCH   1   2
ATOM      2  C   UNL     1       5.102   0.681   2.013  1.00  0.00     0.130 C 
ATOM      3  C   UNL     1       5.997  -0.494   2.180  1.00  0.00     0.087 C 
ATOM      4  O   UNL     1       3.983   0.609   2.496  1.00  0.00    -0.300 OA
ENDBRANCH   1   2
BRANCH   1   5
ATOM      5  C   UNL     1       5.411   1.731  -0.213  1.00  0.00     0.043 C 
BRANCH   5   6
ATOM      6  C   UNL     1       6.575   1.034  -0.788  1.00  0.00    -0.044 A 
ATOM      7  C   UNL     1       7.883   1.473  -0.552  1.00  0.00     0.008 A 
ATOM      8  C   UNL     1       6.384  -0.078  -1.576  1.00  0.00     0.054 A 
ATOM      9  C   UNL     1       8.936   0.778  -1.117  1.00  0.00     0.051 A 
ATOM     10  C   UNL     1       7.452  -0.778  -2.144  1.00  0.00     0.166 A 
ATOM     11  C   UNL     1       8.739  -0.346  -1.913  1.00  0.00     0.165 A 
ATOM     12  O   UNL     1       7.522  -1.893  -2.951  1.00  0.00    -0.454 OA
ATOM     13  O   UNL     1       9.581  -1.215  -2.589  1.00  0.00    -0.454 OA
ATOM     14  C   UNL     1       8.856  -2.264  -3.186  1.00  0.00     0.468 C 
ENDBRANCH   5   6
ENDBRANCH   1   5
TORSDOF 3
ENDMDL
MODEL 2
REMARK VINA RESULT:      -7.5      1.918      2.365
REMARK SMILES CC(=O)CCc1ccc2c(c1)OCO2
REMARK SMILES IDX 4 1 2 2 1 3 3 4 5 5 6 6 7 7 11 8 8 9 10 10 9 11 12 12 14 13
REMARK SMILES IDX 13 14
REMARK H PARENT
REMARK Flexibility Score: inf
ROOT
ATOM      1  C   UNL     1       5.723   1.376  -0.274  1.00  0.00     0.080 C 
ENDROOT
BRANCH   1   2
ATOM      2  C   UNL     1       5.082   1.263   1.066  1.00  0.00     0.130 C 
ATOM      3  C   UNL     1       5.365   0.118   1.972  1.00  0.00     0.087 C 
ATOM      4  O   UNL     1       4.301   2.113   1.460  1.00  0.00    -0.300 OA
ENDBRANCH   1   2
BRANCH   1   5
ATOM      5  C   UNL     1       7.216   1.126  -0.193  1.00  0.00     0.043 C 
BRANCH   5   6
ATOM      6  C   UNL     1       7.591  -0.155  -0.818  1.00  0.00    -0.044 A 
ATOM      7  C   UNL     1       7.655  -0.302  -2.208  1.00  0.00     0.008 A 
ATOM      8  C   UNL     1       7.889  -1.239  -0.024  1.00  0.00     0.054 A 
ATOM      9  C   UNL     1       8.013  -1.528  -2.738  1.00  0.00     0.051 A 
ATOM     10  C   UNL     1       8.252  -2.477  -0.565  1.00  0.00     0.166 A 
ATOM     11  C   UNL     1       8.314  -2.622  -1.933  1.00  0.00     0.165 A 
ATOM     12  O   UNL     1       8.589  -3.687   0.003  1.00  0.00    -0.454 OA
ATOM     13  O   UNL     1       8.693  -3.932  -2.180  1.00  0.00    -0.454 OA
ATOM     14  C   UNL     1       8.966  -4.617  -0.980  1.00  0.00     0.468 C 
ENDBRANCH   5   6
ENDBRANCH   1   5
TORSDOF 3
ENDMDL
MODEL 3
REMARK VINA RESULT:      -7.2      2.081      2.639
REMARK SMILES CC(=O)CCc1ccc2c(c1)OCO2
REMARK SMILES IDX 4 1 2 2 1 3 3 4 5 5 6 6 7 7 11 8 8 9 10 10 9 11 12 12 14 13
REMARK SMILES IDX 13 14
REMARK H PARENT
REMARK Flexibility Score: inf
ROOT
ATOM      1  C   UNL     1       5.511   0.037   2.022  1.00  0.00     0.080 C 
ENDROOT
BRANCH   1   2
ATOM      2  C   UNL     1       4.644   1.195   1.665  1.00  0.00     0.130 C 
ATOM      3  C   UNL     1       5.004   2.132   0.568  1.00  0.00     0.087 C 
ATOM      4  O   UNL     1       3.605   1.408   2.269  1.00  0.00    -0.300 OA
ENDBRANCH   1   2
BRANCH   1   5
ATOM      5  C   UNL     1       6.941   0.262   1.572  1.00  0.00     0.043 C 
BRANCH   5   6
ATOM      6  C   UNL     1       7.339  -0.690   0.519  1.00  0.00    -0.044 A 
ATOM      7  C   UNL     1       7.191  -0.385  -0.839  1.00  0.00     0.008 A 
ATOM      8  C   UNL     1       7.872  -1.910   0.869  1.00  0.00     0.054 A 
ATOM      9  C   UNL     1       7.583  -1.318  -1.782  1.00  0.00     0.051 A 
ATOM     10  C   UNL     1       8.267  -2.849  -0.089  1.00  0.00     0.166 A 
ATOM     11  C   UNL     1       8.121  -2.550  -1.425  1.00  0.00     0.165 A 
ATOM     12  O   UNL     1       8.814  -4.111   0.003  1.00  0.00    -0.454 OA
ATOM     13  O   UNL     1       8.587  -3.646  -2.134  1.00  0.00    -0.454 OA
ATOM     14  C   UNL     1       9.120  -4.622  -1.269  1.00  0.00     0.468 C 
ENDBRANCH   5   6
ENDBRANCH   1   5
TORSDOF 3
ENDMDL
MODEL 4
REMARK VINA RESULT:      -7.1      1.237      1.431
REMARK SMILES CC(=O)CCc1ccc2c(c1)OCO2
REMARK SMILES IDX 4 1 2 2 1 3 3 4 5 5 6 6 7 7 11 8 8 9 10 10 9 11 12 12 14 13
REMARK SMILES IDX 13 14
REMARK H PARENT
REMARK Flexibility Score: inf
ROOT
ATOM      1  C   UNL     1       6.340   1.221   0.943  1.00  0.00     0.080 C 
ENDROOT
BRANCH   1   2
ATOM      2  C   UNL     1       5.637   0.373   1.946  1.00  0.00     0.130 C 
ATOM      3  C   UNL     1       6.270  -0.844   2.521  1.00  0.00     0.087 C 
ATOM      4  O   UNL     1       4.512   0.655   2.326  1.00  0.00    -0.300 OA
ENDBRANCH   1   2
BRANCH   1   5
ATOM      5  C   UNL     1       5.836   0.946  -0.460  1.00  0.00     0.043 C 
BRANCH   5   6
ATOM      6  C   UNL     1       6.790   0.131  -1.233  1.00  0.00    -0.044 A 
ATOM      7  C   UNL     1       7.485   0.657  -2.328  1.00  0.00     0.008 A 
ATOM      8  C   UNL     1       7.013  -1.180  -0.878  1.00  0.00     0.054 A 
ATOM      9  C   UNL     1       8.369  -0.154  -3.016  1.00  0.00     0.051 A 
ATOM     10  C   UNL     1       7.908  -1.997  -1.576  1.00  0.00     0.166 A 
ATOM     11  C   UNL     1       8.591  -1.480  -2.654  1.00  0.00     0.165 A 
ATOM     12  O   UNL     1       8.297  -3.310  -1.422  1.00  0.00    -0.454 OA
ATOM     13  O   UNL     1       9.395  -2.497  -3.144  1.00  0.00    -0.454 OA
ATOM     14  C   UNL     1       9.307  -3.647  -2.338  1.00  0.00     0.468 C 
ENDBRANCH   5   6
ENDBRANCH   1   5
TORSDOF 3
ENDMDL
MODEL 5
REMARK VINA RESULT:      -7.0      1.953      2.500
REMARK SMILES CC(=O)CCc1ccc2c(c1)OCO2
REMARK SMILES IDX 4 1 2 2 1 3 3 4 5 5 6 6 7 7 11 8 8 9 10 10 9 11 12 12 14 13
REMARK SMILES IDX 13 14
REMARK H PARENT
REMARK Flexibility Score: inf
ROOT
ATOM      1  C   UNL     1       6.822   0.879   1.313  1.00  0.00     0.080 C 
ENDROOT
BRANCH   1   2
ATOM      2  C   UNL     1       5.369   1.153   1.487  1.00  0.00     0.130 C 
ATOM      3  C   UNL     1       4.656   2.149   0.643  1.00  0.00     0.087 C 
ATOM      4  O   UNL     1       4.716   0.564   2.333  1.00  0.00    -0.300 OA
ENDBRANCH   1   2
BRANCH   1   5
ATOM      5  C   UNL     1       7.251   1.071  -0.128  1.00  0.00     0.043 C 
BRANCH   5   6
ATOM      6  C   UNL     1       7.606  -0.209  -0.767  1.00  0.00    -0.044 A 
ATOM      7  C   UNL     1       7.619  -0.354  -2.159  1.00  0.00     0.008 A 
ATOM      8  C   UNL     1       7.937  -1.293   0.013  1.00  0.00     0.054 A 
ATOM      9  C   UNL     1       7.961  -1.579  -2.703  1.00  0.00     0.051 A 
ATOM     10  C   UNL     1       8.284  -2.529  -0.541  1.00  0.00     0.166 A 
ATOM     11  C   UNL     1       8.295  -2.673  -1.911  1.00  0.00     0.165 A 
ATOM     12  O   UNL     1       8.646  -3.739   0.012  1.00  0.00    -0.454 OA
ATOM     13  O   UNL     1       8.669  -3.982  -2.173  1.00  0.00    -0.454 OA
ATOM     14  C   UNL     1       8.989  -4.666  -0.985  1.00  0.00     0.468 C 
ENDBRANCH   5   6
ENDBRANCH   1   5
TORSDOF 3
ENDMDL
