@<TRIPOS>MOLECULE
/home/cewinharhar/GITHUB/reincatalyze/data/processed/docking_pred/2023-May-30-2130_sub9_nm5_bs15_s42_ex16_mel10_mts10000_k50_ec05_g099_lra3e-4_lrc3e-3/6070aa1b8336213875ea865ca7f6d729a9af33a9_ligand_9.pdbqt
 14 15 0 0 0
SMALL
GASTEIGER

@<TRIPOS>ATOM
      1  C          5.5440    1.9040    1.2870 C.3     1  UNL1        0.0800
      2  C          5.1020    0.6810    2.0130 C.2     1  UNL1        0.1300
      3  C          5.9970   -0.4940    2.1800 C.3     1  UNL1        0.0870
      4  O          3.9830    0.6090    2.4960 O.2     1  UNL1       -0.3000
      5  C          5.4110    1.7310   -0.2130 C.3     1  UNL1        0.0430
      6  C          6.5750    1.0340   -0.7880 C.2     1  UNL1       -0.0440
      7  C          7.8830    1.4730   -0.5520 C.2     1  UNL1        0.0080
      8  C          6.3840   -0.0780   -1.5760 C.2     1  UNL1        0.0540
      9  C          8.9360    0.7780   -1.1170 C.2     1  UNL1        0.0510
     10  C          7.4520   -0.7780   -2.1440 C.2     1  UNL1        0.1660
     11  C          8.7390   -0.3460   -1.9130 C.2     1  UNL1        0.1650
     12  O          7.5220   -1.8930   -2.9510 O.2     1  UNL1       -0.4540
     13  O          9.5810   -1.2150   -2.5890 O.2     1  UNL1       -0.4540
     14  C          8.8560   -2.2640   -3.1860 C.3     1  UNL1        0.4680
@<TRIPOS>BOND
     1    14    12    1
     2    14    13    1
     3    12    10    1
     4    13    11    1
     5    10    11    2
     6    10     8    1
     7    11     9    1
     8     8     6    2
     9     9     7    2
    10     6     7    1
    11     6     5    1
    12     5     1    1
    13     1     2    1
    14     2     3    1
    15     2     4    2
