@<TRIPOS>MOLECULE
/home/cewinharhar/GITHUB/reincatalyze/data/processed/docking_pred/2023-May-30-2130_sub9_nm5_bs15_s42_ex16_mel10_mts10000_k50_ec05_g099_lra3e-4_lrc3e-3/6070aa1b8336213875ea865ca7f6d729a9af33a9_ligand_9.pdbqt
 14 15 0 0 0
SMALL
GASTEIGER

@<TRIPOS>ATOM
      1  C          6.8220    0.8790    1.3130 C.3     1  UNL1        0.0800
      2  C          5.3690    1.1530    1.4870 C.2     1  UNL1        0.1300
      3  C          4.6560    2.1490    0.6430 C.3     1  UNL1        0.0870
      4  O          4.7160    0.5640    2.3330 O.2     1  UNL1       -0.3000
      5  C          7.2510    1.0710   -0.1280 C.3     1  UNL1        0.0430
      6  C          7.6060   -0.2090   -0.7670 C.2     1  UNL1       -0.0440
      7  C          7.6190   -0.3540   -2.1590 C.2     1  UNL1        0.0080
      8  C          7.9370   -1.2930    0.0130 C.2     1  UNL1        0.0540
      9  C          7.9610   -1.5790   -2.7030 C.2     1  UNL1        0.0510
     10  C          8.2840   -2.5290   -0.5410 C.2     1  UNL1        0.1660
     11  C          8.2950   -2.6730   -1.9110 C.2     1  UNL1        0.1650
     12  O          8.6460   -3.7390    0.0120 O.2     1  UNL1       -0.4540
     13  O          8.6690   -3.9820   -2.1730 O.2     1  UNL1       -0.4540
     14  C          8.9890   -4.6660   -0.9850 C.3     1  UNL1        0.4680
@<TRIPOS>BOND
     1     9     7    1
     2     9    11    2
     3    13    11    1
     4    13    14    1
     5     7     6    2
     6    11    10    1
     7    14    12    1
     8     6     5    1
     9     6     8    1
    10    10    12    1
    11    10     8    2
    12     5     1    1
    13     3     2    1
    14     1     2    1
    15     2     4    2
