@<TRIPOS>MOLECULE
/home/cewinharhar/GITHUB/reincatalyze/data/processed/docking_pred/2023-May-30-2130_sub9_nm5_bs15_s42_ex16_mel10_mts10000_k50_ec05_g099_lra3e-4_lrc3e-3/6070aa1b8336213875ea865ca7f6d729a9af33a9_ligand_9.pdbqt
 14 15 0 0 0
SMALL
GASTEIGER

@<TRIPOS>ATOM
      1  C          6.3400    1.2210    0.9430 C.3     1  UNL1        0.0800
      2  C          5.6370    0.3730    1.9460 C.2     1  UNL1        0.1300
      3  C          6.2700   -0.8440    2.5210 C.3     1  UNL1        0.0870
      4  O          4.5120    0.6550    2.3260 O.2     1  UNL1       -0.3000
      5  C          5.8360    0.9460   -0.4600 C.3     1  UNL1        0.0430
      6  C          6.7900    0.1310   -1.2330 C.2     1  UNL1       -0.0440
      7  C          7.4850    0.6570   -2.3280 C.2     1  UNL1        0.0080
      8  C          7.0130   -1.1800   -0.8780 C.2     1  UNL1        0.0540
      9  C          8.3690   -0.1540   -3.0160 C.2     1  UNL1        0.0510
     10  C          7.9080   -1.9970   -1.5760 C.2     1  UNL1        0.1660
     11  C          8.5910   -1.4800   -2.6540 C.2     1  UNL1        0.1650
     12  O          8.2970   -3.3100   -1.4220 O.2     1  UNL1       -0.4540
     13  O          9.3950   -2.4970   -3.1440 O.2     1  UNL1       -0.4540
     14  C          9.3070   -3.6470   -2.3380 C.3     1  UNL1        0.4680
@<TRIPOS>BOND
     1    13    11    1
     2    13    14    1
     3     9    11    2
     4     9     7    1
     5    11    10    1
     6    14    12    1
     7     7     6    2
     8    10    12    1
     9    10     8    2
    10     6     8    1
    11     6     5    1
    12     5     1    1
    13     1     2    1
    14     2     4    2
    15     2     3    1
