MODEL 1
REMARK VINA RESULT:      -7.7      0.000      0.000
REMARK SMILES CC(=O)CCc1ccc2c(c1)OCO2
REMARK SMILES IDX 4 1 2 2 1 3 3 4 5 5 6 6 7 7 11 8 8 9 10 10 9 11 12 12 14 13
REMARK SMILES IDX 13 14
REMARK H PARENT
REMARK Flexibility Score: inf
ROOT
ATOM      1  C   UNL     1       5.562   1.912   1.289  1.00  0.00     0.080 C 
ENDROOT
BRANCH   1   2
ATOM      2  C   UNL     1       5.112   0.696   2.022  1.00  0.00     0.130 C 
ATOM      3  C   UNL     1       6.002  -0.483   2.199  1.00  0.00     0.087 C 
ATOM      4  O   UNL     1       3.992   0.632   2.501  1.00  0.00    -0.300 OA
ENDBRANCH   1   2
BRANCH   1   5
ATOM      5  C   UNL     1       5.428   1.733  -0.210  1.00  0.00     0.043 C 
BRANCH   5   6
ATOM      6  C   UNL     1       6.589   1.028  -0.782  1.00  0.00    -0.044 A 
ATOM      7  C   UNL     1       7.898   1.464  -0.550  1.00  0.00     0.008 A 
ATOM      8  C   UNL     1       6.393  -0.088  -1.563  1.00  0.00     0.054 A 
ATOM      9  C   UNL     1       8.949   0.763  -1.113  1.00  0.00     0.051 A 
ATOM     10  C   UNL     1       7.458  -0.794  -2.129  1.00  0.00     0.166 A 
ATOM     11  C   UNL     1       8.747  -0.365  -1.902  1.00  0.00     0.165 A 
ATOM     12  O   UNL     1       7.523  -1.914  -2.931  1.00  0.00    -0.454 OA
ATOM     13  O   UNL     1       9.585  -1.240  -2.575  1.00  0.00    -0.454 OA
ATOM     14  C   UNL     1       8.856  -2.290  -3.165  1.00  0.00     0.468 C 
ENDBRANCH   5   6
ENDBRANCH   1   5
TORSDOF 3
ENDMDL
MODEL 2
REMARK VINA RESULT:      -7.3      2.075      2.614
REMARK SMILES CC(=O)CCc1ccc2c(c1)OCO2
REMARK SMILES IDX 4 1 2 2 1 3 3 4 5 5 6 6 7 7 11 8 8 9 10 10 9 11 12 12 14 13
REMARK SMILES IDX 13 14
REMARK H PARENT
REMARK Flexibility Score: inf
ROOT
ATOM      1  C   UNL     1       5.532   0.023   1.974  1.00  0.00     0.080 C 
ENDROOT
BRANCH   1   2
ATOM      2  C   UNL     1       4.647   1.178   1.654  1.00  0.00     0.130 C 
ATOM      3  C   UNL     1       4.962   2.119   0.545  1.00  0.00     0.087 C 
ATOM      4  O   UNL     1       3.631   1.387   2.297  1.00  0.00    -0.300 OA
ENDBRANCH   1   2
BRANCH   1   5
ATOM      5  C   UNL     1       6.952   0.272   1.507  1.00  0.00     0.043 C 
BRANCH   5   6
ATOM      6  C   UNL     1       7.361  -0.687   0.465  1.00  0.00    -0.044 A 
ATOM      7  C   UNL     1       7.257  -0.379  -0.897  1.00  0.00     0.008 A 
ATOM      8  C   UNL     1       7.859  -1.918   0.828  1.00  0.00     0.054 A 
ATOM      9  C   UNL     1       7.657  -1.318  -1.830  1.00  0.00     0.051 A 
ATOM     10  C   UNL     1       8.263  -2.864  -0.119  1.00  0.00     0.166 A 
ATOM     11  C   UNL     1       8.160  -2.562  -1.459  1.00  0.00     0.165 A 
ATOM     12  O   UNL     1       8.782  -4.136  -0.014  1.00  0.00    -0.454 OA
ATOM     13  O   UNL     1       8.624  -3.666  -2.156  1.00  0.00    -0.454 OA
ATOM     14  C   UNL     1       9.113  -4.652  -1.278  1.00  0.00     0.468 C 
ENDBRANCH   5   6
ENDBRANCH   1   5
TORSDOF 3
ENDMDL
MODEL 3
REMARK VINA RESULT:      -7.2      1.246      1.460
REMARK SMILES CC(=O)CCc1ccc2c(c1)OCO2
REMARK SMILES IDX 4 1 2 2 1 3 3 4 5 5 6 6 7 7 11 8 8 9 10 10 9 11 12 12 14 13
REMARK SMILES IDX 13 14
REMARK H PARENT
REMARK Flexibility Score: inf
ROOT
ATOM      1  C   UNL     1       6.383   1.201   0.927  1.00  0.00     0.080 C 
ENDROOT
BRANCH   1   2
ATOM      2  C   UNL     1       5.657   0.385   1.940  1.00  0.00     0.130 C 
ATOM      3  C   UNL     1       6.245  -0.857   2.510  1.00  0.00     0.087 C 
ATOM      4  O   UNL     1       4.550   0.716   2.334  1.00  0.00    -0.300 OA
ENDBRANCH   1   2
BRANCH   1   5
ATOM      5  C   UNL     1       5.875   0.919  -0.473  1.00  0.00     0.043 C 
BRANCH   5   6
ATOM      6  C   UNL     1       6.823   0.094  -1.243  1.00  0.00    -0.044 A 
ATOM      7  C   UNL     1       7.507   0.606  -2.352  1.00  0.00     0.008 A 
ATOM      8  C   UNL     1       7.049  -1.211  -0.871  1.00  0.00     0.054 A 
ATOM      9  C   UNL     1       8.385  -0.215  -3.035  1.00  0.00     0.051 A 
ATOM     10  C   UNL     1       7.939  -2.037  -1.565  1.00  0.00     0.166 A 
ATOM     11  C   UNL     1       8.612  -1.535  -2.657  1.00  0.00     0.165 A 
ATOM     12  O   UNL     1       8.330  -3.348  -1.397  1.00  0.00    -0.454 OA
ATOM     13  O   UNL     1       9.412  -2.558  -3.140  1.00  0.00    -0.454 OA
ATOM     14  C   UNL     1       9.332  -3.697  -2.317  1.00  0.00     0.468 C 
ENDBRANCH   5   6
ENDBRANCH   1   5
TORSDOF 3
ENDMDL
MODEL 4
REMARK VINA RESULT:      -7.1      1.685      2.142
REMARK SMILES CC(=O)CCc1ccc2c(c1)OCO2
REMARK SMILES IDX 4 1 2 2 1 3 3 4 5 5 6 6 7 7 11 8 8 9 10 10 9 11 12 12 14 13
REMARK SMILES IDX 13 14
REMARK H PARENT
REMARK Flexibility Score: inf
ROOT
ATOM      1  C   UNL     1       6.607   1.333   0.388  1.00  0.00     0.080 C 
ENDROOT
BRANCH   1   2
ATOM      2  C   UNL     1       5.456   1.123   1.310  1.00  0.00     0.130 C 
ATOM      3  C   UNL     1       5.327  -0.111   2.130  1.00  0.00     0.087 C 
ATOM      4  O   UNL     1       4.579   1.964   1.419  1.00  0.00    -0.300 OA
ENDBRANCH   1   2
BRANCH   1   5
ATOM      5  C   UNL     1       6.249   0.953  -1.035  1.00  0.00     0.043 C 
BRANCH   5   6
ATOM      6  C   UNL     1       7.029  -0.206  -1.504  1.00  0.00    -0.044 A 
ATOM      7  C   UNL     1       7.535  -0.270  -2.807  1.00  0.00     0.008 A 
ATOM      8  C   UNL     1       7.274  -1.255  -0.647  1.00  0.00     0.054 A 
ATOM      9  C   UNL     1       8.261  -1.383  -3.191  1.00  0.00     0.051 A 
ATOM     10  C   UNL     1       8.009  -2.378  -1.040  1.00  0.00     0.166 A 
ATOM     11  C   UNL     1       8.506  -2.442  -2.323  1.00  0.00     0.165 A 
ATOM     12  O   UNL     1       8.382  -3.533  -0.386  1.00  0.00    -0.454 OA
ATOM     13  O   UNL     1       9.182  -3.648  -2.430  1.00  0.00    -0.454 OA
ATOM     14  C   UNL     1       9.206  -4.329  -1.199  1.00  0.00     0.468 C 
ENDBRANCH   5   6
ENDBRANCH   1   5
TORSDOF 3
ENDMDL
MODEL 5
REMARK VINA RESULT:      -6.9      1.186      5.215
REMARK SMILES CC(=O)CCc1ccc2c(c1)OCO2
REMARK SMILES IDX 4 1 2 2 1 3 3 4 5 5 6 6 7 7 11 8 8 9 10 10 9 11 12 12 14 13
REMARK SMILES IDX 13 14
REMARK H PARENT
REMARK Flexibility Score: inf
ROOT
ATOM      1  C   UNL     1       8.313   0.241  -2.522  1.00  0.00     0.080 C 
ENDROOT
BRANCH   1   2
ATOM      2  C   UNL     1       8.016  -1.207  -2.710  1.00  0.00     0.130 C 
ATOM      3  C   UNL     1       9.081  -2.184  -3.060  1.00  0.00     0.087 C 
ATOM      4  O   UNL     1       6.881  -1.635  -2.580  1.00  0.00    -0.300 OA
ENDBRANCH   1   2
BRANCH   1   5
ATOM      5  C   UNL     1       8.812   0.523  -1.119  1.00  0.00     0.043 C 
BRANCH   5   6
ATOM      6  C   UNL     1       7.737   0.387  -0.119  1.00  0.00    -0.044 A 
ATOM      7  C   UNL     1       7.762  -0.621   0.852  1.00  0.00     0.008 A 
ATOM      8  C   UNL     1       6.680   1.268  -0.130  1.00  0.00     0.054 A 
ATOM      9  C   UNL     1       6.726  -0.700   1.764  1.00  0.00     0.051 A 
ATOM     10  C   UNL     1       5.635   1.185   0.796  1.00  0.00     0.166 A 
ATOM     11  C   UNL     1       5.659   0.193   1.750  1.00  0.00     0.165 A 
ATOM     12  O   UNL     1       4.491   1.928   0.990  1.00  0.00    -0.454 OA
ATOM     13  O   UNL     1       4.516   0.350   2.520  1.00  0.00    -0.454 OA
ATOM     14  C   UNL     1       3.794   1.493   2.129  1.00  0.00     0.468 C 
ENDBRANCH   5   6
ENDBRANCH   1   5
TORSDOF 3
ENDMDL
