@<TRIPOS>MOLECULE
/home/cewinharhar/GITHUB/reincatalyze/data/processed/docking_pred/2023-May-30-2130_sub9_nm5_bs15_s42_ex16_mel10_mts10000_k50_ec05_g099_lra3e-4_lrc3e-3/617c5ea748fa0c13bb70ccf57f665248d4673249_ligand_9.pdbqt
 14 15 0 0 0
SMALL
GASTEIGER

@<TRIPOS>ATOM
      1  C          5.5620    1.9120    1.2890 C.3     1  UNL1        0.0800
      2  C          5.1120    0.6960    2.0220 C.2     1  UNL1        0.1300
      3  C          6.0020   -0.4830    2.1990 C.3     1  UNL1        0.0870
      4  O          3.9920    0.6320    2.5010 O.2     1  UNL1       -0.3000
      5  C          5.4280    1.7330   -0.2100 C.3     1  UNL1        0.0430
      6  C          6.5890    1.0280   -0.7820 C.2     1  UNL1       -0.0440
      7  C          7.8980    1.4640   -0.5500 C.2     1  UNL1        0.0080
      8  C          6.3930   -0.0880   -1.5630 C.2     1  UNL1        0.0540
      9  C          8.9490    0.7630   -1.1130 C.2     1  UNL1        0.0510
     10  C          7.4580   -0.7940   -2.1290 C.2     1  UNL1        0.1660
     11  C          8.7470   -0.3650   -1.9020 C.2     1  UNL1        0.1650
     12  O          7.5230   -1.9140   -2.9310 O.2     1  UNL1       -0.4540
     13  O          9.5850   -1.2400   -2.5750 O.2     1  UNL1       -0.4540
     14  C          8.8560   -2.2900   -3.1650 C.3     1  UNL1        0.4680
@<TRIPOS>BOND
     1    14    12    1
     2    14    13    1
     3    12    10    1
     4    13    11    1
     5    10    11    2
     6    10     8    1
     7    11     9    1
     8     8     6    2
     9     9     7    2
    10     6     7    1
    11     6     5    1
    12     5     1    1
    13     1     2    1
    14     2     3    1
    15     2     4    2
