@<TRIPOS>MOLECULE
/home/cewinharhar/GITHUB/reincatalyze/data/processed/docking_pred/2023-May-30-2130_sub9_nm5_bs15_s42_ex16_mel10_mts10000_k50_ec05_g099_lra3e-4_lrc3e-3/617c5ea748fa0c13bb70ccf57f665248d4673249_ligand_9.pdbqt
 14 15 0 0 0
SMALL
GASTEIGER

@<TRIPOS>ATOM
      1  C          5.5320    0.0230    1.9740 C.3     1  UNL1        0.0800
      2  C          4.6470    1.1780    1.6540 C.2     1  UNL1        0.1300
      3  C          4.9620    2.1190    0.5450 C.3     1  UNL1        0.0870
      4  O          3.6310    1.3870    2.2970 O.2     1  UNL1       -0.3000
      5  C          6.9520    0.2720    1.5070 C.3     1  UNL1        0.0430
      6  C          7.3610   -0.6870    0.4650 C.2     1  UNL1       -0.0440
      7  C          7.2570   -0.3790   -0.8970 C.2     1  UNL1        0.0080
      8  C          7.8590   -1.9180    0.8280 C.2     1  UNL1        0.0540
      9  C          7.6570   -1.3180   -1.8300 C.2     1  UNL1        0.0510
     10  C          8.2630   -2.8640   -0.1190 C.2     1  UNL1        0.1660
     11  C          8.1600   -2.5620   -1.4590 C.2     1  UNL1        0.1650
     12  O          8.7820   -4.1360   -0.0140 O.2     1  UNL1       -0.4540
     13  O          8.6240   -3.6660   -2.1560 O.2     1  UNL1       -0.4540
     14  C          9.1130   -4.6520   -1.2780 C.3     1  UNL1        0.4680
@<TRIPOS>BOND
     1    13    11    1
     2    13    14    1
     3     9    11    2
     4     9     7    1
     5    11    10    1
     6    14    12    1
     7     7     6    2
     8    10    12    1
     9    10     8    2
    10     6     8    1
    11     6     5    1
    12     3     2    1
    13     5     1    1
    14     2     1    1
    15     2     4    2
