@<TRIPOS>MOLECULE
/home/cewinharhar/GITHUB/reincatalyze/data/processed/docking_pred/2023-May-30-2130_sub9_nm5_bs15_s42_ex16_mel10_mts10000_k50_ec05_g099_lra3e-4_lrc3e-3/617c5ea748fa0c13bb70ccf57f665248d4673249_ligand_9.pdbqt
 14 15 0 0 0
SMALL
GASTEIGER

@<TRIPOS>ATOM
      1  C          8.3130    0.2410   -2.5220 C.3     1  UNL1        0.0800
      2  C          8.0160   -1.2070   -2.7100 C.2     1  UNL1        0.1300
      3  C          9.0810   -2.1840   -3.0600 C.3     1  UNL1        0.0870
      4  O          6.8810   -1.6350   -2.5800 O.2     1  UNL1       -0.3000
      5  C          8.8120    0.5230   -1.1190 C.3     1  UNL1        0.0430
      6  C          7.7370    0.3870   -0.1190 C.2     1  UNL1       -0.0440
      7  C          7.7620   -0.6210    0.8520 C.2     1  UNL1        0.0080
      8  C          6.6800    1.2680   -0.1300 C.2     1  UNL1        0.0540
      9  C          6.7260   -0.7000    1.7640 C.2     1  UNL1        0.0510
     10  C          5.6350    1.1850    0.7960 C.2     1  UNL1        0.1660
     11  C          5.6590    0.1930    1.7500 C.2     1  UNL1        0.1650
     12  O          4.4910    1.9280    0.9900 O.2     1  UNL1       -0.4540
     13  O          4.5160    0.3500    2.5200 O.2     1  UNL1       -0.4540
     14  C          3.7940    1.4930    2.1290 C.3     1  UNL1        0.4680
@<TRIPOS>BOND
     1     3     2    1
     2     2     4    2
     3     2     1    1
     4     1     5    1
     5     5     6    1
     6     8     6    2
     7     8    10    1
     8     6     7    1
     9    10    12    1
    10    10    11    2
    11     7     9    2
    12    12    14    1
    13    11     9    1
    14    11    13    1
    15    14    13    1
