@<TRIPOS>MOLECULE
/home/cewinharhar/GITHUB/reincatalyze/data/processed/docking_pred/2023-May-30-2130_sub9_nm5_bs15_s42_ex16_mel10_mts10000_k50_ec05_g099_lra3e-4_lrc3e-3/617c5ea748fa0c13bb70ccf57f665248d4673249_ligand_9.pdbqt
 14 15 0 0 0
SMALL
GASTEIGER

@<TRIPOS>ATOM
      1  C          6.3830    1.2010    0.9270 C.3     1  UNL1        0.0800
      2  C          5.6570    0.3850    1.9400 C.2     1  UNL1        0.1300
      3  C          6.2450   -0.8570    2.5100 C.3     1  UNL1        0.0870
      4  O          4.5500    0.7160    2.3340 O.2     1  UNL1       -0.3000
      5  C          5.8750    0.9190   -0.4730 C.3     1  UNL1        0.0430
      6  C          6.8230    0.0940   -1.2430 C.2     1  UNL1       -0.0440
      7  C          7.5070    0.6060   -2.3520 C.2     1  UNL1        0.0080
      8  C          7.0490   -1.2110   -0.8710 C.2     1  UNL1        0.0540
      9  C          8.3850   -0.2150   -3.0350 C.2     1  UNL1        0.0510
     10  C          7.9390   -2.0370   -1.5650 C.2     1  UNL1        0.1660
     11  C          8.6120   -1.5350   -2.6570 C.2     1  UNL1        0.1650
     12  O          8.3300   -3.3480   -1.3970 O.2     1  UNL1       -0.4540
     13  O          9.4120   -2.5580   -3.1400 O.2     1  UNL1       -0.4540
     14  C          9.3320   -3.6970   -2.3170 C.3     1  UNL1        0.4680
@<TRIPOS>BOND
     1    13    11    1
     2    13    14    1
     3     9    11    2
     4     9     7    1
     5    11    10    1
     6     7     6    2
     7    14    12    1
     8    10    12    1
     9    10     8    2
    10     6     8    1
    11     6     5    1
    12     5     1    1
    13     1     2    1
    14     2     4    2
    15     2     3    1
