@<TRIPOS>MOLECULE
/home/cewinharhar/GITHUB/reincatalyze/data/processed/docking_pred/2023-May-30-2130_sub9_nm5_bs15_s42_ex16_mel10_mts10000_k50_ec05_g099_lra3e-4_lrc3e-3/617c5ea748fa0c13bb70ccf57f665248d4673249_ligand_9.pdbqt
 14 15 0 0 0
SMALL
GASTEIGER

@<TRIPOS>ATOM
      1  C          6.6070    1.3330    0.3880 C.3     1  UNL1        0.0800
      2  C          5.4560    1.1230    1.3100 C.2     1  UNL1        0.1300
      3  C          5.3270   -0.1110    2.1300 C.3     1  UNL1        0.0870
      4  O          4.5790    1.9640    1.4190 O.2     1  UNL1       -0.3000
      5  C          6.2490    0.9530   -1.0350 C.3     1  UNL1        0.0430
      6  C          7.0290   -0.2060   -1.5040 C.2     1  UNL1       -0.0440
      7  C          7.5350   -0.2700   -2.8070 C.2     1  UNL1        0.0080
      8  C          7.2740   -1.2550   -0.6470 C.2     1  UNL1        0.0540
      9  C          8.2610   -1.3830   -3.1910 C.2     1  UNL1        0.0510
     10  C          8.0090   -2.3780   -1.0400 C.2     1  UNL1        0.1660
     11  C          8.5060   -2.4420   -2.3230 C.2     1  UNL1        0.1650
     12  O          8.3820   -3.5330   -0.3860 O.2     1  UNL1       -0.4540
     13  O          9.1820   -3.6480   -2.4300 O.2     1  UNL1       -0.4540
     14  C          9.2060   -4.3290   -1.1990 C.3     1  UNL1        0.4680
@<TRIPOS>BOND
     1     9     7    1
     2     9    11    2
     3     7     6    2
     4    13    11    1
     5    13    14    1
     6    11    10    1
     7     6     5    1
     8     6     8    1
     9    14    12    1
    10    10     8    2
    11    10    12    1
    12     5     1    1
    13     1     2    1
    14     2     4    2
    15     2     3    1
