@<TRIPOS>MOLECULE
/home/cewinharhar/GITHUB/reincatalyze/data/processed/docking_pred/2023-May-30-2130_sub9_nm5_bs15_s42_ex16_mel10_mts10000_k50_ec05_g099_lra3e-4_lrc3e-3/622fdca19e0734e41f50853ef01f91cea2e99850_ligand_9.pdbqt
 14 15 0 0 0
SMALL
GASTEIGER

@<TRIPOS>ATOM
      1  C          5.1260    0.1900    1.7750 C.3     1  UNL1        0.0800
      2  C          5.5800    1.5150    1.2660 C.2     1  UNL1        0.1300
      3  C          5.0060    2.1160    0.0330 C.3     1  UNL1        0.0870
      4  O          6.4430    2.1480    1.8520 O.2     1  UNL1       -0.3000
      5  C          6.1120   -0.3830    2.7740 C.3     1  UNL1        0.0430
      6  C          7.1910   -1.1340    2.1080 C.2     1  UNL1       -0.0440
      7  C          8.4870   -0.6180    2.0040 C.2     1  UNL1        0.0080
      8  C          6.9290   -2.3750    1.5740 C.2     1  UNL1        0.0540
      9  C          9.4600   -1.3680    1.3690 C.2     1  UNL1        0.0510
     10  C          7.9150   -3.1300    0.9330 C.2     1  UNL1        0.1660
     11  C          9.1910   -2.6220    0.8290 C.2     1  UNL1        0.1650
     12  O          7.9060   -4.3700    0.3290 O.2     1  UNL1       -0.4540
     13  O          9.9470   -3.5710    0.1580 O.2     1  UNL1       -0.4540
     14  C          9.1940   -4.7330   -0.0980 C.3     1  UNL1        0.4680
@<TRIPOS>BOND
     1    14    13    1
     2    14    12    1
     3     3     2    1
     4    13    11    1
     5    12    10    1
     6    11    10    2
     7    11     9    1
     8    10     8    1
     9     2     1    1
    10     2     4    2
    11     9     7    2
    12     8     6    2
    13     1     5    1
    14     7     6    1
    15     6     5    1
