@<TRIPOS>MOLECULE
/home/cewinharhar/GITHUB/reincatalyze/data/processed/docking_pred/2023-May-30-2130_sub9_nm5_bs15_s42_ex16_mel10_mts10000_k50_ec05_g099_lra3e-4_lrc3e-3/62f66f9004302081042513b5faa006f3d97c65a4_ligand_9.pdbqt
 14 15 0 0 0
SMALL
GASTEIGER

@<TRIPOS>ATOM
      1  C          5.3550   -0.0790    1.9690 C.3     1  UNL1        0.0800
      2  C          4.4600    1.0980    1.7900 C.2     1  UNL1        0.1300
      3  C          4.7340    2.1370    0.7610 C.3     1  UNL1        0.0870
      4  O          3.4700    1.2450    2.4870 O.2     1  UNL1       -0.3000
      5  C          6.8150    0.3230    1.9010 C.3     1  UNL1        0.0430
      6  C          7.4190   -0.0280    0.6040 C.2     1  UNL1       -0.0440
      7  C          7.9310    0.9510   -0.2550 C.2     1  UNL1        0.0080
      8  C          7.4880   -1.3480    0.2190 C.2     1  UNL1        0.0540
      9  C          8.4870    0.5620   -1.4600 C.2     1  UNL1        0.0510
     10  C          8.0520   -1.7360   -1.0000 C.2     1  UNL1        0.1660
     11  C          8.5550   -0.7730   -1.8470 C.2     1  UNL1        0.1650
     12  O          8.2360   -2.9630   -1.6020 O.2     1  UNL1       -0.4540
     13  O          9.0430   -1.4360   -2.9620 O.2     1  UNL1       -0.4540
     14  C          8.9440   -2.8310   -2.8090 C.3     1  UNL1        0.4680
@<TRIPOS>BOND
     1    13    14    1
     2    13    11    1
     3    14    12    1
     4    11     9    2
     5    11    10    1
     6    12    10    1
     7     9     7    1
     8    10     8    2
     9     7     6    2
    10     8     6    1
    11     6     5    1
    12     3     2    1
    13     2     1    1
    14     2     4    2
    15     5     1    1
