@<TRIPOS>MOLECULE
/home/cewinharhar/GITHUB/reincatalyze/data/processed/docking_pred/2023-May-30-2130_sub9_nm5_bs15_s42_ex16_mel10_mts10000_k50_ec05_g099_lra3e-4_lrc3e-3/64ade7361adfbcba1ebdf367c3e16aacabd62181_ligand_9.pdbqt
 14 15 0 0 0
SMALL
GASTEIGER

@<TRIPOS>ATOM
      1  C          5.3880   -0.0730    2.0170 C.3     1  UNL1        0.0800
      2  C          4.5560    1.1380    1.7720 C.2     1  UNL1        0.1300
      3  C          4.9080    2.1280    0.7190 C.3     1  UNL1        0.0870
      4  O          3.5540    1.3550    2.4350 O.2     1  UNL1       -0.3000
      5  C          6.8340    0.1650    1.6300 C.3     1  UNL1        0.0430
      6  C          7.2690   -0.7460    0.5560 C.2     1  UNL1       -0.0440
      7  C          7.1530   -0.3960   -0.7940 C.2     1  UNL1        0.0080
      8  C          7.8070   -1.9720    0.8780 C.2     1  UNL1        0.0540
      9  C          7.5790   -1.2920   -1.7580 C.2     1  UNL1        0.0510
     10  C          8.2370   -2.8730   -0.1010 C.2     1  UNL1        0.1660
     11  C          8.1220   -2.5300   -1.4290 C.2     1  UNL1        0.1650
     12  O          8.7960   -4.1320   -0.0380 O.2     1  UNL1       -0.4540
     13  O          8.6180   -3.5960   -2.1630 O.2     1  UNL1       -0.4540
     14  C          9.1400   -4.5950   -1.3190 C.3     1  UNL1        0.4680
@<TRIPOS>BOND
     1    13    11    1
     2    13    14    1
     3     9    11    2
     4     9     7    1
     5    11    10    1
     6    14    12    1
     7     7     6    2
     8    10    12    1
     9    10     8    2
    10     6     8    1
    11     6     5    1
    12     3     2    1
    13     5     1    1
    14     2     1    1
    15     2     4    2
