@<TRIPOS>MOLECULE
/home/cewinharhar/GITHUB/reincatalyze/data/processed/docking_pred/2023-May-30-2130_sub9_nm5_bs15_s42_ex16_mel10_mts10000_k50_ec05_g099_lra3e-4_lrc3e-3/64ade7361adfbcba1ebdf367c3e16aacabd62181_ligand_9.pdbqt
 14 15 0 0 0
SMALL
GASTEIGER

@<TRIPOS>ATOM
      1  C          5.5280    1.9090    1.2700 C.3     1  UNL1        0.0800
      2  C          5.0870    0.6890    2.0010 C.2     1  UNL1        0.1300
      3  C          5.9800   -0.4900    2.1640 C.3     1  UNL1        0.0870
      4  O          3.9710    0.6200    2.4900 O.2     1  UNL1       -0.3000
      5  C          5.4050    1.7270   -0.2300 C.3     1  UNL1        0.0430
      6  C          6.5710    1.0240   -0.7930 C.2     1  UNL1       -0.0440
      7  C          7.8790    1.4530   -0.5380 C.2     1  UNL1        0.0080
      8  C          6.3820   -0.0840   -1.5870 C.2     1  UNL1        0.0540
      9  C          8.9350    0.7520   -1.0930 C.2     1  UNL1        0.0510
     10  C          7.4530   -0.7890   -2.1450 C.2     1  UNL1        0.1660
     11  C          8.7400   -0.3670   -1.8960 C.2     1  UNL1        0.1650
     12  O          7.5250   -1.9020   -2.9550 O.2     1  UNL1       -0.4540
     13  O          9.5840   -1.2390   -2.5650 O.2     1  UNL1       -0.4540
     14  C          8.8590   -2.2810   -3.1740 C.3     1  UNL1        0.4680
@<TRIPOS>BOND
     1    14    12    1
     2    14    13    1
     3    12    10    1
     4    13    11    1
     5    10    11    2
     6    10     8    1
     7    11     9    1
     8     8     6    2
     9     9     7    2
    10     6     7    1
    11     6     5    1
    12     5     1    1
    13     1     2    1
    14     2     3    1
    15     2     4    2
