@<TRIPOS>MOLECULE
/home/cewinharhar/GITHUB/reincatalyze/data/processed/docking_pred/2023-May-30-2130_sub9_nm5_bs15_s42_ex16_mel10_mts10000_k50_ec05_g099_lra3e-4_lrc3e-3/64ade7361adfbcba1ebdf367c3e16aacabd62181_ligand_9.pdbqt
 14 15 0 0 0
SMALL
GASTEIGER

@<TRIPOS>ATOM
      1  C          6.3730    1.2550    0.9040 C.3     1  UNL1        0.0800
      2  C          5.6740    0.4140    1.9160 C.2     1  UNL1        0.1300
      3  C          6.3190   -0.7830    2.5170 C.3     1  UNL1        0.0870
      4  O          4.5420    0.6860    2.2820 O.2     1  UNL1       -0.3000
      5  C          5.8730    0.9610   -0.4960 C.3     1  UNL1        0.0430
      6  C          6.8240    0.1270   -1.2520 C.2     1  UNL1       -0.0440
      7  C          7.5310    0.6330   -2.3500 C.2     1  UNL1        0.0080
      8  C          7.0320   -1.1810   -0.8780 C.2     1  UNL1        0.0540
      9  C          8.4110   -0.1960   -3.0210 C.2     1  UNL1        0.0510
     10  C          7.9240   -2.0150   -1.5590 C.2     1  UNL1        0.1660
     11  C          8.6190   -1.5180   -2.6400 C.2     1  UNL1        0.1650
     12  O          8.2990   -3.3300   -1.3860 O.2     1  UNL1       -0.4540
     13  O          9.4160   -2.5490   -3.1120 O.2     1  UNL1       -0.4540
     14  C          9.3120   -3.6880   -2.2910 C.3     1  UNL1        0.4680
@<TRIPOS>BOND
     1    13    11    1
     2    13    14    1
     3     9    11    2
     4     9     7    1
     5    11    10    1
     6     7     6    2
     7    14    12    1
     8    10    12    1
     9    10     8    2
    10     6     8    1
    11     6     5    1
    12     5     1    1
    13     1     2    1
    14     2     4    2
    15     2     3    1
