MODEL 1
REMARK VINA RESULT:      -7.6      0.000      0.000
REMARK SMILES CC(=O)CCc1ccc2c(c1)OCO2
REMARK SMILES IDX 4 1 2 2 1 3 3 4 5 5 6 6 7 7 11 8 8 9 10 10 9 11 12 12 14 13
REMARK SMILES IDX 13 14
REMARK H PARENT
REMARK Flexibility Score: inf
ROOT
ATOM      1  C   UNL     1       5.528   1.909   1.270  1.00  0.00     0.080 C 
ENDROOT
BRANCH   1   2
ATOM      2  C   UNL     1       5.087   0.689   2.001  1.00  0.00     0.130 C 
ATOM      3  C   UNL     1       5.980  -0.490   2.164  1.00  0.00     0.087 C 
ATOM      4  O   UNL     1       3.971   0.620   2.490  1.00  0.00    -0.300 OA
ENDBRANCH   1   2
BRANCH   1   5
ATOM      5  C   UNL     1       5.405   1.727  -0.230  1.00  0.00     0.043 C 
BRANCH   5   6
ATOM      6  C   UNL     1       6.571   1.024  -0.793  1.00  0.00    -0.044 A 
ATOM      7  C   UNL     1       7.879   1.453  -0.538  1.00  0.00     0.008 A 
ATOM      8  C   UNL     1       6.382  -0.084  -1.587  1.00  0.00     0.054 A 
ATOM      9  C   UNL     1       8.935   0.752  -1.093  1.00  0.00     0.051 A 
ATOM     10  C   UNL     1       7.453  -0.789  -2.145  1.00  0.00     0.166 A 
ATOM     11  C   UNL     1       8.740  -0.367  -1.896  1.00  0.00     0.165 A 
ATOM     12  O   UNL     1       7.525  -1.902  -2.955  1.00  0.00    -0.454 OA
ATOM     13  O   UNL     1       9.584  -1.239  -2.565  1.00  0.00    -0.454 OA
ATOM     14  C   UNL     1       8.859  -2.281  -3.174  1.00  0.00     0.468 C 
ENDBRANCH   5   6
ENDBRANCH   1   5
TORSDOF 3
ENDMDL
MODEL 2
REMARK VINA RESULT:      -7.5      1.932      2.391
REMARK SMILES CC(=O)CCc1ccc2c(c1)OCO2
REMARK SMILES IDX 4 1 2 2 1 3 3 4 5 5 6 6 7 7 11 8 8 9 10 10 9 11 12 12 14 13
REMARK SMILES IDX 13 14
REMARK H PARENT
REMARK Flexibility Score: inf
ROOT
ATOM      1  C   UNL     1       5.749   1.371  -0.345  1.00  0.00     0.080 C 
ENDROOT
BRANCH   1   2
ATOM      2  C   UNL     1       5.121   1.289   1.003  1.00  0.00     0.130 C 
ATOM      3  C   UNL     1       5.439   0.184   1.947  1.00  0.00     0.087 C 
ATOM      4  O   UNL     1       4.322   2.133   1.375  1.00  0.00    -0.300 OA
ENDBRANCH   1   2
BRANCH   1   5
ATOM      5  C   UNL     1       7.244   1.129  -0.272  1.00  0.00     0.043 C 
BRANCH   5   6
ATOM      6  C   UNL     1       7.617  -0.167  -0.866  1.00  0.00    -0.044 A 
ATOM      7  C   UNL     1       7.696  -0.342  -2.253  1.00  0.00     0.008 A 
ATOM      8  C   UNL     1       7.901  -1.236  -0.047  1.00  0.00     0.054 A 
ATOM      9  C   UNL     1       8.052  -1.581  -2.753  1.00  0.00     0.051 A 
ATOM     10  C   UNL     1       8.262  -2.486  -0.558  1.00  0.00     0.166 A 
ATOM     11  C   UNL     1       8.338  -2.660  -1.922  1.00  0.00     0.165 A 
ATOM     12  O   UNL     1       8.586  -3.687   0.038  1.00  0.00    -0.454 OA
ATOM     13  O   UNL     1       8.712  -3.978  -2.138  1.00  0.00    -0.454 OA
ATOM     14  C   UNL     1       8.968  -4.639  -0.922  1.00  0.00     0.468 C 
ENDBRANCH   5   6
ENDBRANCH   1   5
TORSDOF 3
ENDMDL
MODEL 3
REMARK VINA RESULT:      -7.2      2.047      2.624
REMARK SMILES CC(=O)CCc1ccc2c(c1)OCO2
REMARK SMILES IDX 4 1 2 2 1 3 3 4 5 5 6 6 7 7 11 8 8 9 10 10 9 11 12 12 14 13
REMARK SMILES IDX 13 14
REMARK H PARENT
REMARK Flexibility Score: inf
ROOT
ATOM      1  C   UNL     1       5.388  -0.073   2.017  1.00  0.00     0.080 C 
ENDROOT
BRANCH   1   2
ATOM      2  C   UNL     1       4.556   1.138   1.772  1.00  0.00     0.130 C 
ATOM      3  C   UNL     1       4.908   2.128   0.719  1.00  0.00     0.087 C 
ATOM      4  O   UNL     1       3.554   1.355   2.435  1.00  0.00    -0.300 OA
ENDBRANCH   1   2
BRANCH   1   5
ATOM      5  C   UNL     1       6.834   0.165   1.630  1.00  0.00     0.043 C 
BRANCH   5   6
ATOM      6  C   UNL     1       7.269  -0.746   0.556  1.00  0.00    -0.044 A 
ATOM      7  C   UNL     1       7.153  -0.396  -0.794  1.00  0.00     0.008 A 
ATOM      8  C   UNL     1       7.807  -1.972   0.878  1.00  0.00     0.054 A 
ATOM      9  C   UNL     1       7.579  -1.292  -1.758  1.00  0.00     0.051 A 
ATOM     10  C   UNL     1       8.237  -2.873  -0.101  1.00  0.00     0.166 A 
ATOM     11  C   UNL     1       8.122  -2.530  -1.429  1.00  0.00     0.165 A 
ATOM     12  O   UNL     1       8.796  -4.132  -0.038  1.00  0.00    -0.454 OA
ATOM     13  O   UNL     1       8.618  -3.596  -2.163  1.00  0.00    -0.454 OA
ATOM     14  C   UNL     1       9.140  -4.595  -1.319  1.00  0.00     0.468 C 
ENDBRANCH   5   6
ENDBRANCH   1   5
TORSDOF 3
ENDMDL
MODEL 4
REMARK VINA RESULT:      -7.1      1.249      1.452
REMARK SMILES CC(=O)CCc1ccc2c(c1)OCO2
REMARK SMILES IDX 4 1 2 2 1 3 3 4 5 5 6 6 7 7 11 8 8 9 10 10 9 11 12 12 14 13
REMARK SMILES IDX 13 14
REMARK H PARENT
REMARK Flexibility Score: inf
ROOT
ATOM      1  C   UNL     1       6.373   1.255   0.904  1.00  0.00     0.080 C 
ENDROOT
BRANCH   1   2
ATOM      2  C   UNL     1       5.674   0.414   1.916  1.00  0.00     0.130 C 
ATOM      3  C   UNL     1       6.319  -0.783   2.517  1.00  0.00     0.087 C 
ATOM      4  O   UNL     1       4.542   0.686   2.282  1.00  0.00    -0.300 OA
ENDBRANCH   1   2
BRANCH   1   5
ATOM      5  C   UNL     1       5.873   0.961  -0.496  1.00  0.00     0.043 C 
BRANCH   5   6
ATOM      6  C   UNL     1       6.824   0.127  -1.252  1.00  0.00    -0.044 A 
ATOM      7  C   UNL     1       7.531   0.633  -2.350  1.00  0.00     0.008 A 
ATOM      8  C   UNL     1       7.032  -1.181  -0.878  1.00  0.00     0.054 A 
ATOM      9  C   UNL     1       8.411  -0.196  -3.021  1.00  0.00     0.051 A 
ATOM     10  C   UNL     1       7.924  -2.015  -1.559  1.00  0.00     0.166 A 
ATOM     11  C   UNL     1       8.619  -1.518  -2.640  1.00  0.00     0.165 A 
ATOM     12  O   UNL     1       8.299  -3.330  -1.386  1.00  0.00    -0.454 OA
ATOM     13  O   UNL     1       9.416  -2.549  -3.112  1.00  0.00    -0.454 OA
ATOM     14  C   UNL     1       9.312  -3.688  -2.291  1.00  0.00     0.468 C 
ENDBRANCH   5   6
ENDBRANCH   1   5
TORSDOF 3
ENDMDL
MODEL 5
REMARK VINA RESULT:      -6.9      1.890      2.503
REMARK SMILES CC(=O)CCc1ccc2c(c1)OCO2
REMARK SMILES IDX 4 1 2 2 1 3 3 4 5 5 6 6 7 7 11 8 8 9 10 10 9 11 12 12 14 13
REMARK SMILES IDX 13 14
REMARK H PARENT
REMARK Flexibility Score: inf
ROOT
ATOM      1  C   UNL     1       6.861   0.746   1.062  1.00  0.00     0.080 C 
ENDROOT
BRANCH   1   2
ATOM      2  C   UNL     1       5.462   1.114   1.418  1.00  0.00     0.130 C 
ATOM      3  C   UNL     1       4.711   2.150   0.661  1.00  0.00     0.087 C 
ATOM      4  O   UNL     1       4.889   0.571   2.348  1.00  0.00    -0.300 OA
ENDBRANCH   1   2
BRANCH   1   5
ATOM      5  C   UNL     1       7.113   0.912  -0.424  1.00  0.00     0.043 C 
BRANCH   5   6
ATOM      6  C   UNL     1       7.583  -0.341  -1.041  1.00  0.00    -0.044 A 
ATOM      7  C   UNL     1       7.767  -0.452  -2.425  1.00  0.00     0.008 A 
ATOM      8  C   UNL     1       7.854  -1.433  -0.249  1.00  0.00     0.054 A 
ATOM      9  C   UNL     1       8.211  -1.653  -2.948  1.00  0.00     0.051 A 
ATOM     10  C   UNL     1       8.303  -2.644  -0.783  1.00  0.00     0.166 A 
ATOM     11  C   UNL     1       8.483  -2.755  -2.144  1.00  0.00     0.165 A 
ATOM     12  O   UNL     1       8.635  -3.856  -0.215  1.00  0.00    -0.454 OA
ATOM     13  O   UNL     1       8.927  -4.046  -2.385  1.00  0.00    -0.454 OA
ATOM     14  C   UNL     1       9.124  -4.749  -1.182  1.00  0.00     0.468 C 
ENDBRANCH   5   6
ENDBRANCH   1   5
TORSDOF 3
ENDMDL
