@<TRIPOS>MOLECULE
/home/cewinharhar/GITHUB/reincatalyze/data/processed/docking_pred/2023-May-30-2130_sub9_nm5_bs15_s42_ex16_mel10_mts10000_k50_ec05_g099_lra3e-4_lrc3e-3/650932a4c96e02f0afcc120cab6b741f416c7ae8_ligand_9.pdbqt
 14 15 0 0 0
SMALL
GASTEIGER

@<TRIPOS>ATOM
      1  C          5.5290    1.8920    1.2900 C.3     1  UNL1        0.0800
      2  C          5.0960    0.6740    2.0290 C.2     1  UNL1        0.1300
      3  C          5.9870   -0.5090    2.1750 C.3     1  UNL1        0.0870
      4  O          3.9890    0.6100    2.5390 O.2     1  UNL1       -0.3000
      5  C          5.3930    1.7050   -0.2080 C.3     1  UNL1        0.0430
      6  C          6.5620    1.0140   -0.7800 C.2     1  UNL1       -0.0440
      7  C          7.8670    1.4630   -0.5450 C.2     1  UNL1        0.0080
      8  C          6.3790   -0.1020   -1.5650 C.2     1  UNL1        0.0540
      9  C          8.9260    0.7730   -1.1080 C.2     1  UNL1        0.0510
     10  C          7.4520   -0.7960   -2.1310 C.2     1  UNL1        0.1660
     11  C          8.7360   -0.3550   -1.9010 C.2     1  UNL1        0.1650
     12  O          7.5300   -1.9140   -2.9350 O.2     1  UNL1       -0.4540
     13  O          9.5840   -1.2200   -2.5740 O.2     1  UNL1       -0.4540
     14  C          8.8670   -2.2750   -3.1680 C.3     1  UNL1        0.4680
@<TRIPOS>BOND
     1    14    12    1
     2    14    13    1
     3    12    10    1
     4    13    11    1
     5    10    11    2
     6    10     8    1
     7    11     9    1
     8     8     6    2
     9     9     7    2
    10     6     7    1
    11     6     5    1
    12     5     1    1
    13     1     2    1
    14     2     3    1
    15     2     4    2
