@<TRIPOS>MOLECULE
/home/cewinharhar/GITHUB/reincatalyze/data/processed/docking_pred/2023-May-30-2130_sub9_nm5_bs15_s42_ex16_mel10_mts10000_k50_ec05_g099_lra3e-4_lrc3e-3/650932a4c96e02f0afcc120cab6b741f416c7ae8_ligand_9.pdbqt
 14 15 0 0 0
SMALL
GASTEIGER

@<TRIPOS>ATOM
      1  C          5.5830    1.3340   -0.3310 C.3     1  UNL1        0.0800
      2  C          5.0350    1.2690    1.0520 C.2     1  UNL1        0.1300
      3  C          5.3490    0.1370    1.9650 C.3     1  UNL1        0.0870
      4  O          4.3060    2.1500    1.4800 O.2     1  UNL1       -0.3000
      5  C          7.0920    1.1870   -0.3320 C.3     1  UNL1        0.0430
      6  C          7.5150   -0.0960   -0.9210 C.2     1  UNL1       -0.0440
      7  C          7.6410   -0.2620   -2.3050 C.2     1  UNL1        0.0080
      8  C          7.7990   -1.1630   -0.0990 C.2     1  UNL1        0.0540
      9  C          8.0430   -1.4890   -2.8000 C.2     1  UNL1        0.0510
     10  C          8.2060   -2.4010   -0.6040 C.2     1  UNL1        0.1660
     11  C          8.3280   -2.5660   -1.9660 C.2     1  UNL1        0.1650
     12  O          8.5400   -3.5970   -0.0040 O.2     1  UNL1       -0.4540
     13  O          8.7410   -3.8720   -2.1760 O.2     1  UNL1       -0.4540
     14  C          8.9750   -4.5340   -0.9560 C.3     1  UNL1        0.4680
@<TRIPOS>BOND
     1     9     7    1
     2     9    11    2
     3     7     6    2
     4    13    11    1
     5    13    14    1
     6    11    10    1
     7    14    12    1
     8     6     5    1
     9     6     8    1
    10    10     8    2
    11    10    12    1
    12     5     1    1
    13     1     2    1
    14     2     4    2
    15     2     3    1
