@<TRIPOS>MOLECULE
/home/cewinharhar/GITHUB/reincatalyze/data/processed/docking_pred/2023-May-30-2130_sub9_nm5_bs15_s42_ex16_mel10_mts10000_k50_ec05_g099_lra3e-4_lrc3e-3/65610c622cc3bd86a4d466f03d6f61670904542e_ligand_9.pdbqt
 14 15 0 0 0
SMALL
GASTEIGER

@<TRIPOS>ATOM
      1  C          6.3520    1.2470    0.8850 C.3     1  UNL1        0.0800
      2  C          5.6590    0.4250    1.9150 C.2     1  UNL1        0.1300
      3  C          6.2870   -0.7920    2.4950 C.3     1  UNL1        0.0870
      4  O          4.5470    0.7290    2.3160 O.2     1  UNL1       -0.3000
      5  C          5.8370    0.9340   -0.5060 C.3     1  UNL1        0.0430
      6  C          6.7970    0.1190   -1.2730 C.2     1  UNL1       -0.0440
      7  C          7.5020    0.6460   -2.3610 C.2     1  UNL1        0.0080
      8  C          7.0130   -1.1930   -0.9170 C.2     1  UNL1        0.0540
      9  C          8.3900   -0.1670   -3.0420 C.2     1  UNL1        0.0510
     10  C          7.9130   -2.0100   -1.6090 C.2     1  UNL1        0.1660
     11  C          8.6060   -1.4930   -2.6800 C.2     1  UNL1        0.1650
     12  O          8.2980   -3.3250   -1.4540 O.2     1  UNL1       -0.4540
     13  O          9.4120   -2.5110   -3.1660 O.2     1  UNL1       -0.4540
     14  C          9.3150   -3.6630   -2.3620 C.3     1  UNL1        0.4680
@<TRIPOS>BOND
     1    13    11    1
     2    13    14    1
     3     9    11    2
     4     9     7    1
     5    11    10    1
     6    14    12    1
     7     7     6    2
     8    10    12    1
     9    10     8    2
    10     6     8    1
    11     6     5    1
    12     5     1    1
    13     1     2    1
    14     2     4    2
    15     2     3    1
