@<TRIPOS>MOLECULE
/home/cewinharhar/GITHUB/reincatalyze/data/processed/docking_pred/2023-May-30-2130_sub9_nm5_bs15_s42_ex16_mel10_mts10000_k50_ec05_g099_lra3e-4_lrc3e-3/65610c622cc3bd86a4d466f03d6f61670904542e_ligand_9.pdbqt
 14 15 0 0 0
SMALL
GASTEIGER

@<TRIPOS>ATOM
      1  C          5.9240    1.2250   -0.2000 C.3     1  UNL1        0.0800
      2  C          5.8830    1.2010    1.2890 C.2     1  UNL1        0.1300
      3  C          5.2520    0.0790    2.0340 C.3     1  UNL1        0.0870
      4  O          6.3690    2.1080    1.9440 O.2     1  UNL1       -0.3000
      5  C          7.3490    1.1730   -0.7130 C.3     1  UNL1        0.0430
      6  C          7.7100   -0.1740   -1.1890 C.2     1  UNL1       -0.0440
      7  C          7.8390   -0.4590   -2.5530 C.2     1  UNL1        0.0080
      8  C          7.9300   -1.1830   -0.2790 C.2     1  UNL1        0.0540
      9  C          8.1800   -1.7420   -2.9420 C.2     1  UNL1        0.0510
     10  C          8.2760   -2.4780   -0.6770 C.2     1  UNL1        0.1660
     11  C          8.4010   -2.7600   -2.0190 C.2     1  UNL1        0.1650
     12  O          8.5410   -3.6360    0.0220 O.2     1  UNL1       -0.4540
     13  O          8.7460   -4.0990   -2.1170 O.2     1  UNL1       -0.4540
     14  C          8.9340   -4.6700   -0.8440 C.3     1  UNL1        0.4680
@<TRIPOS>BOND
     1     9     7    1
     2     9    11    2
     3     7     6    2
     4    13    11    1
     5    13    14    1
     6    11    10    1
     7     6     5    1
     8     6     8    1
     9    14    12    1
    10     5     1    1
    11    10     8    2
    12    10    12    1
    13     1     2    1
    14     2     4    2
    15     2     3    1
