@<TRIPOS>MOLECULE
/home/cewinharhar/GITHUB/reincatalyze/data/processed/docking_pred/2023-May-30-2130_sub9_nm5_bs15_s42_ex16_mel10_mts10000_k50_ec05_g099_lra3e-4_lrc3e-3/65610c622cc3bd86a4d466f03d6f61670904542e_ligand_9.pdbqt
 14 15 0 0 0
SMALL
GASTEIGER

@<TRIPOS>ATOM
      1  C          6.1420    1.6410    1.5120 C.3     1  UNL1        0.0800
      2  C          5.5190    0.4290    2.1140 C.2     1  UNL1        0.1300
      3  C          6.2980   -0.8180    2.3390 C.3     1  UNL1        0.0870
      4  O          4.3430    0.4240    2.4400 O.2     1  UNL1       -0.3000
      5  C          5.9380    1.6770    0.0100 C.3     1  UNL1        0.0430
      6  C          6.9760    0.9080   -0.7000 C.2     1  UNL1       -0.0440
      7  C          8.2980    1.3600   -0.7800 C.2     1  UNL1        0.0080
      8  C          6.6480   -0.2870   -1.2990 C.2     1  UNL1        0.0540
      9  C          9.2290    0.5950   -1.4590 C.2     1  UNL1        0.0510
     10  C          7.5930   -1.0570   -1.9840 C.2     1  UNL1        0.1660
     11  C          8.8940   -0.6120   -2.0650 C.2     1  UNL1        0.1650
     12  O          7.5180   -2.2600   -2.6540 O.2     1  UNL1       -0.4540
     13  O          9.5980   -1.5610   -2.7900 O.2     1  UNL1       -0.4540
     14  C          8.7850   -2.6660   -3.1050 C.3     1  UNL1        0.4680
@<TRIPOS>BOND
     1    14    13    1
     2    14    12    1
     3    13    11    1
     4    12    10    1
     5    11    10    2
     6    11     9    1
     7    10     8    1
     8     9     7    2
     9     8     6    2
    10     7     6    1
    11     6     5    1
    12     5     1    1
    13     1     2    1
    14     2     3    1
    15     2     4    2
