MODEL 1
REMARK VINA RESULT:      -7.2      0.000      0.000
REMARK SMILES CC(=O)CCc1ccc2c(c1)OCO2
REMARK SMILES IDX 4 1 2 2 1 3 3 4 5 5 6 6 7 7 11 8 8 9 10 10 9 11 12 12 14 13
REMARK SMILES IDX 13 14
REMARK H PARENT
REMARK Flexibility Score: inf
ROOT
ATOM      1  C   UNL     1       6.142   1.641   1.512  1.00  0.00     0.080 C 
ENDROOT
BRANCH   1   2
ATOM      2  C   UNL     1       5.519   0.429   2.114  1.00  0.00     0.130 C 
ATOM      3  C   UNL     1       6.298  -0.818   2.339  1.00  0.00     0.087 C 
ATOM      4  O   UNL     1       4.343   0.424   2.440  1.00  0.00    -0.300 OA
ENDBRANCH   1   2
BRANCH   1   5
ATOM      5  C   UNL     1       5.938   1.677   0.010  1.00  0.00     0.043 C 
BRANCH   5   6
ATOM      6  C   UNL     1       6.976   0.908  -0.700  1.00  0.00    -0.044 A 
ATOM      7  C   UNL     1       8.298   1.360  -0.780  1.00  0.00     0.008 A 
ATOM      8  C   UNL     1       6.648  -0.287  -1.299  1.00  0.00     0.054 A 
ATOM      9  C   UNL     1       9.229   0.595  -1.459  1.00  0.00     0.051 A 
ATOM     10  C   UNL     1       7.593  -1.057  -1.984  1.00  0.00     0.166 A 
ATOM     11  C   UNL     1       8.894  -0.612  -2.065  1.00  0.00     0.165 A 
ATOM     12  O   UNL     1       7.518  -2.260  -2.654  1.00  0.00    -0.454 OA
ATOM     13  O   UNL     1       9.598  -1.561  -2.790  1.00  0.00    -0.454 OA
ATOM     14  C   UNL     1       8.785  -2.666  -3.105  1.00  0.00     0.468 C 
ENDBRANCH   5   6
ENDBRANCH   1   5
TORSDOF 3
ENDMDL
MODEL 2
REMARK VINA RESULT:      -7.2      1.149      1.184
REMARK SMILES CC(=O)CCc1ccc2c(c1)OCO2
REMARK SMILES IDX 4 1 2 2 1 3 3 4 5 5 6 6 7 7 11 8 8 9 10 10 9 11 12 12 14 13
REMARK SMILES IDX 13 14
REMARK H PARENT
REMARK Flexibility Score: inf
ROOT
ATOM      1  C   UNL     1       6.352   1.247   0.885  1.00  0.00     0.080 C 
ENDROOT
BRANCH   1   2
ATOM      2  C   UNL     1       5.659   0.425   1.915  1.00  0.00     0.130 C 
ATOM      3  C   UNL     1       6.287  -0.792   2.495  1.00  0.00     0.087 C 
ATOM      4  O   UNL     1       4.547   0.729   2.316  1.00  0.00    -0.300 OA
ENDBRANCH   1   2
BRANCH   1   5
ATOM      5  C   UNL     1       5.837   0.934  -0.506  1.00  0.00     0.043 C 
BRANCH   5   6
ATOM      6  C   UNL     1       6.797   0.119  -1.273  1.00  0.00    -0.044 A 
ATOM      7  C   UNL     1       7.502   0.646  -2.361  1.00  0.00     0.008 A 
ATOM      8  C   UNL     1       7.013  -1.193  -0.917  1.00  0.00     0.054 A 
ATOM      9  C   UNL     1       8.390  -0.167  -3.042  1.00  0.00     0.051 A 
ATOM     10  C   UNL     1       7.913  -2.010  -1.609  1.00  0.00     0.166 A 
ATOM     11  C   UNL     1       8.606  -1.493  -2.680  1.00  0.00     0.165 A 
ATOM     12  O   UNL     1       8.298  -3.325  -1.454  1.00  0.00    -0.454 OA
ATOM     13  O   UNL     1       9.412  -2.511  -3.166  1.00  0.00    -0.454 OA
ATOM     14  C   UNL     1       9.315  -3.663  -2.362  1.00  0.00     0.468 C 
ENDBRANCH   5   6
ENDBRANCH   1   5
TORSDOF 3
ENDMDL
MODEL 3
REMARK VINA RESULT:      -7.0      1.779      2.288
REMARK SMILES CC(=O)CCc1ccc2c(c1)OCO2
REMARK SMILES IDX 4 1 2 2 1 3 3 4 5 5 6 6 7 7 11 8 8 9 10 10 9 11 12 12 14 13
REMARK SMILES IDX 13 14
REMARK H PARENT
REMARK Flexibility Score: inf
ROOT
ATOM      1  C   UNL     1       5.924   1.225  -0.200  1.00  0.00     0.080 C 
ENDROOT
BRANCH   1   2
ATOM      2  C   UNL     1       5.883   1.201   1.289  1.00  0.00     0.130 C 
ATOM      3  C   UNL     1       5.252   0.079   2.034  1.00  0.00     0.087 C 
ATOM      4  O   UNL     1       6.369   2.108   1.944  1.00  0.00    -0.300 OA
ENDBRANCH   1   2
BRANCH   1   5
ATOM      5  C   UNL     1       7.349   1.173  -0.713  1.00  0.00     0.043 C 
BRANCH   5   6
ATOM      6  C   UNL     1       7.710  -0.174  -1.189  1.00  0.00    -0.044 A 
ATOM      7  C   UNL     1       7.839  -0.459  -2.553  1.00  0.00     0.008 A 
ATOM      8  C   UNL     1       7.930  -1.183  -0.279  1.00  0.00     0.054 A 
ATOM      9  C   UNL     1       8.180  -1.742  -2.942  1.00  0.00     0.051 A 
ATOM     10  C   UNL     1       8.276  -2.478  -0.677  1.00  0.00     0.166 A 
ATOM     11  C   UNL     1       8.401  -2.760  -2.019  1.00  0.00     0.165 A 
ATOM     12  O   UNL     1       8.541  -3.636   0.022  1.00  0.00    -0.454 OA
ATOM     13  O   UNL     1       8.746  -4.099  -2.117  1.00  0.00    -0.454 OA
ATOM     14  C   UNL     1       8.934  -4.670  -0.844  1.00  0.00     0.468 C 
ENDBRANCH   5   6
ENDBRANCH   1   5
TORSDOF 3
ENDMDL
MODEL 4
REMARK VINA RESULT:      -6.6      2.037      2.597
REMARK SMILES CC(=O)CCc1ccc2c(c1)OCO2
REMARK SMILES IDX 4 1 2 2 1 3 3 4 5 5 6 6 7 7 11 8 8 9 10 10 9 11 12 12 14 13
REMARK SMILES IDX 13 14
REMARK H PARENT
REMARK Flexibility Score: inf
ROOT
ATOM      1  C   UNL     1       6.166  -0.393   2.314  1.00  0.00     0.080 C 
ENDROOT
BRANCH   1   2
ATOM      2  C   UNL     1       5.110   0.563   1.880  1.00  0.00     0.130 C 
ATOM      3  C   UNL     1       5.264   1.395   0.657  1.00  0.00     0.087 C 
ATOM      4  O   UNL     1       4.080   0.692   2.522  1.00  0.00    -0.300 OA
ENDBRANCH   1   2
BRANCH   1   5
ATOM      5  C   UNL     1       7.493  -0.087   1.647  1.00  0.00     0.043 C 
BRANCH   5   6
ATOM      6  C   UNL     1       7.786  -1.032   0.555  1.00  0.00    -0.044 A 
ATOM      7  C   UNL     1       7.660  -0.661  -0.789  1.00  0.00     0.008 A 
ATOM      8  C   UNL     1       8.198  -2.311   0.851  1.00  0.00     0.054 A 
ATOM      9  C   UNL     1       7.950  -1.589  -1.772  1.00  0.00     0.051 A 
ATOM     10  C   UNL     1       8.491  -3.246  -0.146  1.00  0.00     0.166 A 
ATOM     11  C   UNL     1       8.365  -2.882  -1.468  1.00  0.00     0.165 A 
ATOM     12  O   UNL     1       8.911  -4.559  -0.109  1.00  0.00    -0.454 OA
ATOM     13  O   UNL     1       8.715  -3.990  -2.224  1.00  0.00    -0.454 OA
ATOM     14  C   UNL     1       9.155  -5.047  -1.404  1.00  0.00     0.468 C 
ENDBRANCH   5   6
ENDBRANCH   1   5
TORSDOF 3
ENDMDL
MODEL 5
REMARK VINA RESULT:      -6.4      2.101      2.539
REMARK SMILES CC(=O)CCc1ccc2c(c1)OCO2
REMARK SMILES IDX 4 1 2 2 1 3 3 4 5 5 6 6 7 7 11 8 8 9 10 10 9 11 12 12 14 13
REMARK SMILES IDX 13 14
REMARK H PARENT
REMARK Flexibility Score: inf
ROOT
ATOM      1  C   UNL     1       5.805   1.081  -0.312  1.00  0.00     0.080 C 
ENDROOT
BRANCH   1   2
ATOM      2  C   UNL     1       5.721   1.254   1.165  1.00  0.00     0.130 C 
ATOM      3  C   UNL     1       4.897   0.350   2.011  1.00  0.00     0.087 C 
ATOM      4  O   UNL     1       6.330   2.149   1.727  1.00  0.00    -0.300 OA
ENDBRANCH   1   2
BRANCH   1   5
ATOM      5  C   UNL     1       7.237   0.859  -0.760  1.00  0.00     0.043 C 
BRANCH   5   6
ATOM      6  C   UNL     1       7.693  -0.512  -0.469  1.00  0.00    -0.044 A 
ATOM      7  C   UNL     1       7.914  -0.949   0.842  1.00  0.00     0.008 A 
ATOM      8  C   UNL     1       7.909  -1.393  -1.505  1.00  0.00     0.054 A 
ATOM      9  C   UNL     1       8.341  -2.247   1.054  1.00  0.00     0.051 A 
ATOM     10  C   UNL     1       8.341  -2.704  -1.285  1.00  0.00     0.166 A 
ATOM     11  C   UNL     1       8.559  -3.135   0.004  1.00  0.00     0.165 A 
ATOM     12  O   UNL     1       8.623  -3.755  -2.133  1.00  0.00    -0.454 OA
ATOM     13  O   UNL     1       8.974  -4.455  -0.078  1.00  0.00    -0.454 OA
ATOM     14  C   UNL     1       8.942  -4.915  -1.408  1.00  0.00     0.468 C 
ENDBRANCH   5   6
ENDBRANCH   1   5
TORSDOF 3
ENDMDL
