@<TRIPOS>MOLECULE
/home/cewinharhar/GITHUB/reincatalyze/data/processed/docking_pred/2023-May-30-2130_sub9_nm5_bs15_s42_ex16_mel10_mts10000_k50_ec05_g099_lra3e-4_lrc3e-3/65610c622cc3bd86a4d466f03d6f61670904542e_ligand_9.pdbqt
 14 15 0 0 0
SMALL
GASTEIGER

@<TRIPOS>ATOM
      1  C          6.1660   -0.3930    2.3140 C.3     1  UNL1        0.0800
      2  C          5.1100    0.5630    1.8800 C.2     1  UNL1        0.1300
      3  C          5.2640    1.3950    0.6570 C.3     1  UNL1        0.0870
      4  O          4.0800    0.6920    2.5220 O.2     1  UNL1       -0.3000
      5  C          7.4930   -0.0870    1.6470 C.3     1  UNL1        0.0430
      6  C          7.7860   -1.0320    0.5550 C.2     1  UNL1       -0.0440
      7  C          7.6600   -0.6610   -0.7890 C.2     1  UNL1        0.0080
      8  C          8.1980   -2.3110    0.8510 C.2     1  UNL1        0.0540
      9  C          7.9500   -1.5890   -1.7720 C.2     1  UNL1        0.0510
     10  C          8.4910   -3.2460   -0.1460 C.2     1  UNL1        0.1660
     11  C          8.3650   -2.8820   -1.4680 C.2     1  UNL1        0.1650
     12  O          8.9110   -4.5590   -0.1090 O.2     1  UNL1       -0.4540
     13  O          8.7150   -3.9900   -2.2240 O.2     1  UNL1       -0.4540
     14  C          9.1550   -5.0470   -1.4040 C.3     1  UNL1        0.4680
@<TRIPOS>BOND
     1    13    11    1
     2    13    14    1
     3     9    11    2
     4     9     7    1
     5    11    10    1
     6    14    12    1
     7     7     6    2
     8    10    12    1
     9    10     8    2
    10     6     8    1
    11     6     5    1
    12     3     2    1
    13     5     1    1
    14     2     1    1
    15     2     4    2
