@<TRIPOS>MOLECULE
/home/cewinharhar/GITHUB/reincatalyze/data/processed/docking_pred/2023-May-30-2130_sub9_nm5_bs15_s42_ex16_mel10_mts10000_k50_ec05_g099_lra3e-4_lrc3e-3/65610c622cc3bd86a4d466f03d6f61670904542e_ligand_9.pdbqt
 14 15 0 0 0
SMALL
GASTEIGER

@<TRIPOS>ATOM
      1  C          5.8050    1.0810   -0.3120 C.3     1  UNL1        0.0800
      2  C          5.7210    1.2540    1.1650 C.2     1  UNL1        0.1300
      3  C          4.8970    0.3500    2.0110 C.3     1  UNL1        0.0870
      4  O          6.3300    2.1490    1.7270 O.2     1  UNL1       -0.3000
      5  C          7.2370    0.8590   -0.7600 C.3     1  UNL1        0.0430
      6  C          7.6930   -0.5120   -0.4690 C.2     1  UNL1       -0.0440
      7  C          7.9140   -0.9490    0.8420 C.2     1  UNL1        0.0080
      8  C          7.9090   -1.3930   -1.5050 C.2     1  UNL1        0.0540
      9  C          8.3410   -2.2470    1.0540 C.2     1  UNL1        0.0510
     10  C          8.3410   -2.7040   -1.2850 C.2     1  UNL1        0.1660
     11  C          8.5590   -3.1350    0.0040 C.2     1  UNL1        0.1650
     12  O          8.6230   -3.7550   -2.1330 O.2     1  UNL1       -0.4540
     13  O          8.9740   -4.4550   -0.0780 O.2     1  UNL1       -0.4540
     14  C          8.9420   -4.9150   -1.4080 C.3     1  UNL1        0.4680
@<TRIPOS>BOND
     1    12    14    1
     2    12    10    1
     3     8    10    1
     4     8     6    2
     5    14    13    1
     6    10    11    2
     7     5     6    1
     8     5     1    1
     9     6     7    1
    10     1     2    1
    11    13    11    1
    12    11     9    1
    13     7     9    2
    14     2     4    2
    15     2     3    1
