@<TRIPOS>MOLECULE
/home/cewinharhar/GITHUB/reincatalyze/data/processed/docking_pred/2023-May-30-2130_sub9_nm5_bs15_s42_ex16_mel10_mts10000_k50_ec05_g099_lra3e-4_lrc3e-3/661305b30cebe31e235170a50c1781f21e405ac9_ligand_9.pdbqt
 14 15 0 0 0
SMALL
GASTEIGER

@<TRIPOS>ATOM
      1  C          5.6100    1.8590    1.3010 C.3     1  UNL1        0.0800
      2  C          5.1500    0.6470    2.0340 C.2     1  UNL1        0.1300
      3  C          6.0330   -0.5360    2.2200 C.3     1  UNL1        0.0870
      4  O          4.0260    0.5890    2.5070 O.2     1  UNL1       -0.3000
      5  C          5.4610    1.6850   -0.1980 C.3     1  UNL1        0.0430
      6  C          6.6170    0.9850   -0.7850 C.2     1  UNL1       -0.0440
      7  C          7.9280    1.4280   -0.5710 C.2     1  UNL1        0.0080
      8  C          6.4160   -0.1340   -1.5610 C.2     1  UNL1        0.0540
      9  C          8.9740    0.7300   -1.1470 C.2     1  UNL1        0.0510
     10  C          7.4770   -0.8360   -2.1400 C.2     1  UNL1        0.1660
     11  C          8.7660   -0.4000   -1.9320 C.2     1  UNL1        0.1650
     12  O          7.5360   -1.9570   -2.9400 O.2     1  UNL1       -0.4540
     13  O          9.6000   -1.2730   -2.6140 O.2     1  UNL1       -0.4540
     14  C          8.8680   -2.3270   -3.1920 C.3     1  UNL1        0.4680
@<TRIPOS>BOND
     1    14    12    1
     2    14    13    1
     3    12    10    1
     4    13    11    1
     5    10    11    2
     6    10     8    1
     7    11     9    1
     8     8     6    2
     9     9     7    2
    10     6     7    1
    11     6     5    1
    12     5     1    1
    13     1     2    1
    14     2     3    1
    15     2     4    2
