@<TRIPOS>MOLECULE
/home/cewinharhar/GITHUB/reincatalyze/data/processed/docking_pred/2023-May-30-2130_sub9_nm5_bs15_s42_ex16_mel10_mts10000_k50_ec05_g099_lra3e-4_lrc3e-3/67714d3181cdcfbe83529be90e704c7fe5693ba3_ligand_9.pdbqt
 14 15 0 0 0
SMALL
GASTEIGER

@<TRIPOS>ATOM
      1  C          9.6600    1.3690    2.6470 C.3     1  UNL1        0.0800
      2  C         11.0960    0.9760    2.6810 C.2     1  UNL1        0.1300
      3  C         12.0850    1.7030    3.5220 C.3     1  UNL1        0.0870
      4  O         11.5060    0.0400    2.0130 O.2     1  UNL1       -0.3000
      5  C          9.3070    2.0540    1.3420 C.3     1  UNL1        0.0430
      6  C          8.5470    1.1650    0.4460 C.2     1  UNL1       -0.0440
      7  C          7.1570    1.0320    0.5500 C.2     1  UNL1        0.0080
      8  C          9.2090    0.4440   -0.5220 C.2     1  UNL1        0.0540
      9  C          6.4970    0.1830   -0.3190 C.2     1  UNL1        0.0510
     10  C          8.5360   -0.4130   -1.3990 C.2     1  UNL1        0.1660
     11  C          7.1690   -0.5450   -1.2960 C.2     1  UNL1        0.1650
     12  O          8.9610   -1.2250   -2.4290 O.2     1  UNL1       -0.4540
     13  O          6.7790   -1.4440   -2.2760 O.2     1  UNL1       -0.4540
     14  C          7.8710   -1.8310   -3.0750 C.3     1  UNL1        0.4680
@<TRIPOS>BOND
     1    14    12    1
     2    14    13    1
     3    12    10    1
     4    13    11    1
     5    10    11    2
     6    10     8    1
     7    11     9    1
     8     8     6    2
     9     9     7    2
    10     6     7    1
    11     6     5    1
    12     5     1    1
    13     4     2    2
    14     1     2    1
    15     2     3    1
