@<TRIPOS>MOLECULE
/home/cewinharhar/GITHUB/reincatalyze/data/processed/docking_pred/2023-May-30-2130_sub9_nm5_bs15_s42_ex16_mel10_mts10000_k50_ec05_g099_lra3e-4_lrc3e-3/67714d3181cdcfbe83529be90e704c7fe5693ba3_ligand_9.pdbqt
 14 15 0 0 0
SMALL
GASTEIGER

@<TRIPOS>ATOM
      1  C          5.5720    1.8780    1.3510 C.3     1  UNL1        0.0800
      2  C          5.0840    0.6560    2.0490 C.2     1  UNL1        0.1300
      3  C          5.9350   -0.5560    2.1880 C.3     1  UNL1        0.0870
      4  O          3.9630    0.6140    2.5280 O.2     1  UNL1       -0.3000
      5  C          5.4470    1.7410   -0.1530 C.3     1  UNL1        0.0430
      6  C          6.6040    1.0380   -0.7360 C.2     1  UNL1       -0.0440
      7  C          7.9170    1.4530   -0.4820 C.2     1  UNL1        0.0080
      8  C          6.4010   -0.0540   -1.5490 C.2     1  UNL1        0.0540
      9  C          8.9640    0.7540   -1.0560 C.2     1  UNL1        0.0510
     10  C          7.4630   -0.7570   -2.1260 C.2     1  UNL1        0.1660
     11  C          8.7550   -0.3490   -1.8780 C.2     1  UNL1        0.1650
     12  O          7.5210   -1.8550   -2.9570 O.2     1  UNL1       -0.4540
     13  O          9.5880   -1.2160   -2.5670 O.2     1  UNL1       -0.4540
     14  C          8.8520   -2.2400   -3.1910 C.3     1  UNL1        0.4680
@<TRIPOS>BOND
     1    14    12    1
     2    14    13    1
     3    12    10    1
     4    13    11    1
     5    10    11    2
     6    10     8    1
     7    11     9    1
     8     8     6    2
     9     9     7    2
    10     6     7    1
    11     6     5    1
    12     5     1    1
    13     1     2    1
    14     2     3    1
    15     2     4    2
