@<TRIPOS>MOLECULE
/home/cewinharhar/GITHUB/reincatalyze/data/processed/docking_pred/2023-May-30-2130_sub9_nm5_bs15_s42_ex16_mel10_mts10000_k50_ec05_g099_lra3e-4_lrc3e-3/67714d3181cdcfbe83529be90e704c7fe5693ba3_ligand_9.pdbqt
 14 15 0 0 0
SMALL
GASTEIGER

@<TRIPOS>ATOM
      1  C          5.8250    0.2660    1.6590 C.3     1  UNL1        0.0800
      2  C          5.0110    1.3830    1.1020 C.2     1  UNL1        0.1300
      3  C          5.2920    1.9600   -0.2400 C.3     1  UNL1        0.0870
      4  O          4.0850    1.8600    1.7370 O.2     1  UNL1       -0.3000
      5  C          7.0560    0.0070    0.8120 C.3     1  UNL1        0.0430
      6  C          8.2870    0.4580    1.4860 C.2     1  UNL1       -0.0440
      7  C          8.2860    1.5510    2.3590 C.2     1  UNL1        0.0080
      8  C          9.4710   -0.2060    1.2590 C.2     1  UNL1        0.0540
      9  C          9.4710    1.9290    2.9630 C.2     1  UNL1        0.0510
     10  C         10.6670    0.1790    1.8730 C.2     1  UNL1        0.1660
     11  C         10.6670    1.2560    2.7310 C.2     1  UNL1        0.1650
     12  O         11.9540   -0.3090    1.8110 O.2     1  UNL1       -0.4540
     13  O         11.9680    1.4070    3.1850 O.2     1  UNL1       -0.4540
     14  C         12.7980    0.3800    2.6970 C.3     1  UNL1        0.4680
@<TRIPOS>BOND
     1     3     2    1
     2     5     6    1
     3     5     1    1
     4     2     1    1
     5     2     4    2
     6     8     6    2
     7     8    10    1
     8     6     7    1
     9    12    10    1
    10    12    14    1
    11    10    11    2
    12     7     9    2
    13    14    13    1
    14    11     9    1
    15    11    13    1
