@<TRIPOS>MOLECULE
/home/cewinharhar/GITHUB/reincatalyze/data/processed/docking_pred/2023-May-30-2130_sub9_nm5_bs15_s42_ex16_mel10_mts10000_k50_ec05_g099_lra3e-4_lrc3e-3/67714d3181cdcfbe83529be90e704c7fe5693ba3_ligand_9.pdbqt
 14 15 0 0 0
SMALL
GASTEIGER

@<TRIPOS>ATOM
      1  C          6.4410    0.3470   -0.8190 C.3     1  UNL1        0.0800
      2  C          7.1070   -0.4070   -1.9180 C.2     1  UNL1        0.1300
      3  C          8.2670    0.1560   -2.6600 C.3     1  UNL1        0.0870
      4  O          6.7160   -1.5160   -2.2430 O.2     1  UNL1       -0.3000
      5  C          6.7300   -0.2790    0.5310 C.3     1  UNL1        0.0430
      6  C          7.9170    0.3190    1.1680 C.2     1  UNL1       -0.0440
      7  C          7.8460    1.5370    1.8550 C.2     1  UNL1        0.0080
      8  C          9.1300   -0.3280    1.0940 C.2     1  UNL1        0.0540
      9  C          8.9930    2.0490    2.4330 C.2     1  UNL1        0.0510
     10  C         10.2860    0.1940    1.6810 C.2     1  UNL1        0.1660
     11  C         10.2170    1.3920    2.3560 C.2     1  UNL1        0.1650
     12  O         11.5900   -0.2500    1.7460 O.2     1  UNL1       -0.4540
     13  O         11.4930    1.6610    2.8270 O.2     1  UNL1       -0.4540
     14  C         12.3740    0.6020    2.5400 C.3     1  UNL1        0.4680
@<TRIPOS>BOND
     1     3     2    1
     2     4     2    2
     3     2     1    1
     4     1     5    1
     5     5     6    1
     6     8     6    2
     7     8    10    1
     8     6     7    1
     9    10    12    1
    10    10    11    2
    11    12    14    1
    12     7     9    2
    13    11     9    1
    14    11    13    1
    15    14    13    1
