@<TRIPOS>MOLECULE
/home/cewinharhar/GITHUB/reincatalyze/data/processed/docking_pred/2023-May-30-2130_sub9_nm5_bs15_s42_ex16_mel10_mts10000_k50_ec05_g099_lra3e-4_lrc3e-3/67714d3181cdcfbe83529be90e704c7fe5693ba3_ligand_9.pdbqt
 14 15 0 0 0
SMALL
GASTEIGER

@<TRIPOS>ATOM
      1  C          5.8050    1.2200   -0.3310 C.3     1  UNL1        0.0800
      2  C          5.2160    1.1990    1.0370 C.2     1  UNL1        0.1300
      3  C          5.3780    0.0280    1.9390 C.3     1  UNL1        0.0870
      4  O          4.5770    2.1500    1.4590 O.2     1  UNL1       -0.3000
      5  C          7.3050    1.0060   -0.2870 C.3     1  UNL1        0.0430
      6  C          7.6910   -0.2840   -0.8870 C.2     1  UNL1       -0.0440
      7  C          7.7940   -0.4450   -2.2740 C.2     1  UNL1        0.0080
      8  C          7.9610   -1.3610   -0.0740 C.2     1  UNL1        0.0540
      9  C          8.1610   -1.6790   -2.7800 C.2     1  UNL1        0.0510
     10  C          8.3320   -2.6060   -0.5910 C.2     1  UNL1        0.1660
     11  C          8.4320   -2.7660   -1.9550 C.2     1  UNL1        0.1650
     12  O          8.6460   -3.8120   -0.0020 O.2     1  UNL1       -0.4540
     13  O          8.8110   -4.0810   -2.1780 O.2     1  UNL1       -0.4540
     14  C          9.0460   -4.7540   -0.9640 C.3     1  UNL1        0.4680
@<TRIPOS>BOND
     1     9     7    1
     2     9    11    2
     3     7     6    2
     4    13    11    1
     5    13    14    1
     6    11    10    1
     7    14    12    1
     8     6     5    1
     9     6     8    1
    10    10     8    2
    11    10    12    1
    12     1     5    1
    13     1     2    1
    14     2     4    2
    15     2     3    1
