MODEL 1
REMARK VINA RESULT:      -7.1      0.000      0.000
REMARK SMILES CC(=O)CCc1ccc2c(c1)OCO2
REMARK SMILES IDX 4 1 2 2 1 3 3 4 5 5 6 6 7 7 11 8 8 9 10 10 9 11 12 12 14 13
REMARK SMILES IDX 13 14
REMARK H PARENT
REMARK Flexibility Score: inf
ROOT
ATOM      1  C   UNL     1       9.660   1.369   2.647  1.00  0.00     0.080 C 
ENDROOT
BRANCH   1   2
ATOM      2  C   UNL     1      11.096   0.976   2.681  1.00  0.00     0.130 C 
ATOM      3  C   UNL     1      12.085   1.703   3.522  1.00  0.00     0.087 C 
ATOM      4  O   UNL     1      11.506   0.040   2.013  1.00  0.00    -0.300 OA
ENDBRANCH   1   2
BRANCH   1   5
ATOM      5  C   UNL     1       9.307   2.054   1.342  1.00  0.00     0.043 C 
BRANCH   5   6
ATOM      6  C   UNL     1       8.547   1.165   0.446  1.00  0.00    -0.044 A 
ATOM      7  C   UNL     1       7.157   1.032   0.550  1.00  0.00     0.008 A 
ATOM      8  C   UNL     1       9.209   0.444  -0.522  1.00  0.00     0.054 A 
ATOM      9  C   UNL     1       6.497   0.183  -0.319  1.00  0.00     0.051 A 
ATOM     10  C   UNL     1       8.536  -0.413  -1.399  1.00  0.00     0.166 A 
ATOM     11  C   UNL     1       7.169  -0.545  -1.296  1.00  0.00     0.165 A 
ATOM     12  O   UNL     1       8.961  -1.225  -2.429  1.00  0.00    -0.454 OA
ATOM     13  O   UNL     1       6.779  -1.444  -2.276  1.00  0.00    -0.454 OA
ATOM     14  C   UNL     1       7.871  -1.831  -3.075  1.00  0.00     0.468 C 
ENDBRANCH   5   6
ENDBRANCH   1   5
TORSDOF 3
ENDMDL
MODEL 2
REMARK VINA RESULT:      -7.1      2.715      3.914
REMARK SMILES CC(=O)CCc1ccc2c(c1)OCO2
REMARK SMILES IDX 4 1 2 2 1 3 3 4 5 5 6 6 7 7 11 8 8 9 10 10 9 11 12 12 14 13
REMARK SMILES IDX 13 14
REMARK H PARENT
REMARK Flexibility Score: inf
ROOT
ATOM      1  C   UNL     1       5.572   1.878   1.351  1.00  0.00     0.080 C 
ENDROOT
BRANCH   1   2
ATOM      2  C   UNL     1       5.084   0.656   2.049  1.00  0.00     0.130 C 
ATOM      3  C   UNL     1       5.935  -0.556   2.188  1.00  0.00     0.087 C 
ATOM      4  O   UNL     1       3.963   0.614   2.528  1.00  0.00    -0.300 OA
ENDBRANCH   1   2
BRANCH   1   5
ATOM      5  C   UNL     1       5.447   1.741  -0.153  1.00  0.00     0.043 C 
BRANCH   5   6
ATOM      6  C   UNL     1       6.604   1.038  -0.736  1.00  0.00    -0.044 A 
ATOM      7  C   UNL     1       7.917   1.453  -0.482  1.00  0.00     0.008 A 
ATOM      8  C   UNL     1       6.401  -0.054  -1.549  1.00  0.00     0.054 A 
ATOM      9  C   UNL     1       8.964   0.754  -1.056  1.00  0.00     0.051 A 
ATOM     10  C   UNL     1       7.463  -0.757  -2.126  1.00  0.00     0.166 A 
ATOM     11  C   UNL     1       8.755  -0.349  -1.878  1.00  0.00     0.165 A 
ATOM     12  O   UNL     1       7.521  -1.855  -2.957  1.00  0.00    -0.454 OA
ATOM     13  O   UNL     1       9.588  -1.216  -2.567  1.00  0.00    -0.454 OA
ATOM     14  C   UNL     1       8.852  -2.240  -3.191  1.00  0.00     0.468 C 
ENDBRANCH   5   6
ENDBRANCH   1   5
TORSDOF 3
ENDMDL
MODEL 3
REMARK VINA RESULT:      -7.1      2.772      5.478
REMARK SMILES CC(=O)CCc1ccc2c(c1)OCO2
REMARK SMILES IDX 4 1 2 2 1 3 3 4 5 5 6 6 7 7 11 8 8 9 10 10 9 11 12 12 14 13
REMARK SMILES IDX 13 14
REMARK H PARENT
REMARK Flexibility Score: inf
ROOT
ATOM      1  C   UNL     1       5.825   0.266   1.659  1.00  0.00     0.080 C 
ENDROOT
BRANCH   1   2
ATOM      2  C   UNL     1       5.011   1.383   1.102  1.00  0.00     0.130 C 
ATOM      3  C   UNL     1       5.292   1.960  -0.240  1.00  0.00     0.087 C 
ATOM      4  O   UNL     1       4.085   1.860   1.737  1.00  0.00    -0.300 OA
ENDBRANCH   1   2
BRANCH   1   5
ATOM      5  C   UNL     1       7.056   0.007   0.812  1.00  0.00     0.043 C 
BRANCH   5   6
ATOM      6  C   UNL     1       8.287   0.458   1.486  1.00  0.00    -0.044 A 
ATOM      7  C   UNL     1       8.286   1.551   2.359  1.00  0.00     0.008 A 
ATOM      8  C   UNL     1       9.471  -0.206   1.259  1.00  0.00     0.054 A 
ATOM      9  C   UNL     1       9.471   1.929   2.963  1.00  0.00     0.051 A 
ATOM     10  C   UNL     1      10.667   0.179   1.873  1.00  0.00     0.166 A 
ATOM     11  C   UNL     1      10.667   1.256   2.731  1.00  0.00     0.165 A 
ATOM     12  O   UNL     1      11.954  -0.309   1.811  1.00  0.00    -0.454 OA
ATOM     13  O   UNL     1      11.968   1.407   3.185  1.00  0.00    -0.454 OA
ATOM     14  C   UNL     1      12.798   0.380   2.697  1.00  0.00     0.468 C 
ENDBRANCH   5   6
ENDBRANCH   1   5
TORSDOF 3
ENDMDL
MODEL 4
REMARK VINA RESULT:      -7.0      3.140      4.268
REMARK SMILES CC(=O)CCc1ccc2c(c1)OCO2
REMARK SMILES IDX 4 1 2 2 1 3 3 4 5 5 6 6 7 7 11 8 8 9 10 10 9 11 12 12 14 13
REMARK SMILES IDX 13 14
REMARK H PARENT
REMARK Flexibility Score: inf
ROOT
ATOM      1  C   UNL     1       5.805   1.220  -0.331  1.00  0.00     0.080 C 
ENDROOT
BRANCH   1   2
ATOM      2  C   UNL     1       5.216   1.199   1.037  1.00  0.00     0.130 C 
ATOM      3  C   UNL     1       5.378   0.028   1.939  1.00  0.00     0.087 C 
ATOM      4  O   UNL     1       4.577   2.150   1.459  1.00  0.00    -0.300 OA
ENDBRANCH   1   2
BRANCH   1   5
ATOM      5  C   UNL     1       7.305   1.006  -0.287  1.00  0.00     0.043 C 
BRANCH   5   6
ATOM      6  C   UNL     1       7.691  -0.284  -0.887  1.00  0.00    -0.044 A 
ATOM      7  C   UNL     1       7.794  -0.445  -2.274  1.00  0.00     0.008 A 
ATOM      8  C   UNL     1       7.961  -1.361  -0.074  1.00  0.00     0.054 A 
ATOM      9  C   UNL     1       8.161  -1.679  -2.780  1.00  0.00     0.051 A 
ATOM     10  C   UNL     1       8.332  -2.606  -0.591  1.00  0.00     0.166 A 
ATOM     11  C   UNL     1       8.432  -2.766  -1.955  1.00  0.00     0.165 A 
ATOM     12  O   UNL     1       8.646  -3.812  -0.002  1.00  0.00    -0.454 OA
ATOM     13  O   UNL     1       8.811  -4.081  -2.178  1.00  0.00    -0.454 OA
ATOM     14  C   UNL     1       9.046  -4.754  -0.964  1.00  0.00     0.468 C 
ENDBRANCH   5   6
ENDBRANCH   1   5
TORSDOF 3
ENDMDL
MODEL 5
REMARK VINA RESULT:      -7.0      1.289      5.200
REMARK SMILES CC(=O)CCc1ccc2c(c1)OCO2
REMARK SMILES IDX 4 1 2 2 1 3 3 4 5 5 6 6 7 7 11 8 8 9 10 10 9 11 12 12 14 13
REMARK SMILES IDX 13 14
REMARK H PARENT
REMARK Flexibility Score: inf
ROOT
ATOM      1  C   UNL     1       6.441   0.347  -0.819  1.00  0.00     0.080 C 
ENDROOT
BRANCH   1   2
ATOM      2  C   UNL     1       7.107  -0.407  -1.918  1.00  0.00     0.130 C 
ATOM      3  C   UNL     1       8.267   0.156  -2.660  1.00  0.00     0.087 C 
ATOM      4  O   UNL     1       6.716  -1.516  -2.243  1.00  0.00    -0.300 OA
ENDBRANCH   1   2
BRANCH   1   5
ATOM      5  C   UNL     1       6.730  -0.279   0.531  1.00  0.00     0.043 C 
BRANCH   5   6
ATOM      6  C   UNL     1       7.917   0.319   1.168  1.00  0.00    -0.044 A 
ATOM      7  C   UNL     1       7.846   1.537   1.855  1.00  0.00     0.008 A 
ATOM      8  C   UNL     1       9.130  -0.328   1.094  1.00  0.00     0.054 A 
ATOM      9  C   UNL     1       8.993   2.049   2.433  1.00  0.00     0.051 A 
ATOM     10  C   UNL     1      10.286   0.194   1.681  1.00  0.00     0.166 A 
ATOM     11  C   UNL     1      10.217   1.392   2.356  1.00  0.00     0.165 A 
ATOM     12  O   UNL     1      11.590  -0.250   1.746  1.00  0.00    -0.454 OA
ATOM     13  O   UNL     1      11.493   1.661   2.827  1.00  0.00    -0.454 OA
ATOM     14  C   UNL     1      12.374   0.602   2.540  1.00  0.00     0.468 C 
ENDBRANCH   5   6
ENDBRANCH   1   5
TORSDOF 3
ENDMDL
