MODEL 1
REMARK VINA RESULT:      -7.6      0.000      0.000
REMARK SMILES CC(=O)CCc1ccc2c(c1)OCO2
REMARK SMILES IDX 4 1 2 2 1 3 3 4 5 5 6 6 7 7 11 8 8 9 10 10 9 11 12 12 14 13
REMARK SMILES IDX 13 14
REMARK H PARENT
REMARK Flexibility Score: inf
ROOT
ATOM      1  C   UNL     1       5.537   1.909   1.279  1.00  0.00     0.080 C 
ENDROOT
BRANCH   1   2
ATOM      2  C   UNL     1       5.097   0.689   2.012  1.00  0.00     0.130 C 
ATOM      3  C   UNL     1       5.995  -0.484   2.183  1.00  0.00     0.087 C 
ATOM      4  O   UNL     1       3.980   0.618   2.496  1.00  0.00    -0.300 OA
ENDBRANCH   1   2
BRANCH   1   5
ATOM      5  C   UNL     1       5.408   1.727  -0.220  1.00  0.00     0.043 C 
BRANCH   5   6
ATOM      6  C   UNL     1       6.574   1.026  -0.788  1.00  0.00    -0.044 A 
ATOM      7  C   UNL     1       7.881   1.458  -0.538  1.00  0.00     0.008 A 
ATOM      8  C   UNL     1       6.384  -0.082  -1.581  1.00  0.00     0.054 A 
ATOM      9  C   UNL     1       8.937   0.761  -1.097  1.00  0.00     0.051 A 
ATOM     10  C   UNL     1       7.454  -0.784  -2.143  1.00  0.00     0.166 A 
ATOM     11  C   UNL     1       8.741  -0.359  -1.899  1.00  0.00     0.165 A 
ATOM     12  O   UNL     1       7.525  -1.897  -2.954  1.00  0.00    -0.454 OA
ATOM     13  O   UNL     1       9.585  -1.230  -2.572  1.00  0.00    -0.454 OA
ATOM     14  C   UNL     1       8.860  -2.273  -3.179  1.00  0.00     0.468 C 
ENDBRANCH   5   6
ENDBRANCH   1   5
TORSDOF 3
ENDMDL
MODEL 2
REMARK VINA RESULT:      -7.4      1.933      2.409
REMARK SMILES CC(=O)CCc1ccc2c(c1)OCO2
REMARK SMILES IDX 4 1 2 2 1 3 3 4 5 5 6 6 7 7 11 8 8 9 10 10 9 11 12 12 14 13
REMARK SMILES IDX 13 14
REMARK H PARENT
REMARK Flexibility Score: inf
ROOT
ATOM      1  C   UNL     1       5.724   1.286  -0.289  1.00  0.00     0.080 C 
ENDROOT
BRANCH   1   2
ATOM      2  C   UNL     1       5.178   1.214   1.094  1.00  0.00     0.130 C 
ATOM      3  C   UNL     1       5.363   0.008   1.945  1.00  0.00     0.087 C 
ATOM      4  O   UNL     1       4.557   2.150   1.573  1.00  0.00    -0.300 OA
ENDBRANCH   1   2
BRANCH   1   5
ATOM      5  C   UNL     1       7.226   1.080  -0.300  1.00  0.00     0.043 C 
BRANCH   5   6
ATOM      6  C   UNL     1       7.596  -0.216  -0.897  1.00  0.00    -0.044 A 
ATOM      7  C   UNL     1       7.625  -0.402  -2.283  1.00  0.00     0.008 A 
ATOM      8  C   UNL     1       7.925  -1.274  -0.080  1.00  0.00     0.054 A 
ATOM      9  C   UNL     1       7.981  -1.640  -2.787  1.00  0.00     0.051 A 
ATOM     10  C   UNL     1       8.284  -2.523  -0.594  1.00  0.00     0.166 A 
ATOM     11  C   UNL     1       8.312  -2.708  -1.958  1.00  0.00     0.165 A 
ATOM     12  O   UNL     1       8.647  -3.714  -0.001  1.00  0.00    -0.454 OA
ATOM     13  O   UNL     1       8.697  -4.022  -2.177  1.00  0.00    -0.454 OA
ATOM     14  C   UNL     1       9.007  -4.669  -0.966  1.00  0.00     0.468 C 
ENDBRANCH   5   6
ENDBRANCH   1   5
TORSDOF 3
ENDMDL
MODEL 3
REMARK VINA RESULT:      -7.2      2.043      2.610
REMARK SMILES CC(=O)CCc1ccc2c(c1)OCO2
REMARK SMILES IDX 4 1 2 2 1 3 3 4 5 5 6 6 7 7 11 8 8 9 10 10 9 11 12 12 14 13
REMARK SMILES IDX 13 14
REMARK H PARENT
REMARK Flexibility Score: inf
ROOT
ATOM      1  C   UNL     1       5.438  -0.028   2.071  1.00  0.00     0.080 C 
ENDROOT
BRANCH   1   2
ATOM      2  C   UNL     1       4.553   1.135   1.781  1.00  0.00     0.130 C 
ATOM      3  C   UNL     1       4.881   2.119   0.714  1.00  0.00     0.087 C 
ATOM      4  O   UNL     1       3.527   1.316   2.416  1.00  0.00    -0.300 OA
ENDBRANCH   1   2
BRANCH   1   5
ATOM      5  C   UNL     1       6.861   0.238   1.624  1.00  0.00     0.043 C 
BRANCH   5   6
ATOM      6  C   UNL     1       7.281  -0.687   0.556  1.00  0.00    -0.044 A 
ATOM      7  C   UNL     1       7.153  -0.352  -0.797  1.00  0.00     0.008 A 
ATOM      8  C   UNL     1       7.815  -1.912   0.886  1.00  0.00     0.054 A 
ATOM      9  C   UNL     1       7.565  -1.261  -1.755  1.00  0.00     0.051 A 
ATOM     10  C   UNL     1       8.230  -2.827  -0.086  1.00  0.00     0.166 A 
ATOM     11  C   UNL     1       8.103  -2.498  -1.418  1.00  0.00     0.165 A 
ATOM     12  O   UNL     1       8.782  -4.088  -0.015  1.00  0.00    -0.454 OA
ATOM     13  O   UNL     1       8.587  -3.576  -2.144  1.00  0.00    -0.454 OA
ATOM     14  C   UNL     1       9.111  -4.568  -1.293  1.00  0.00     0.468 C 
ENDBRANCH   5   6
ENDBRANCH   1   5
TORSDOF 3
ENDMDL
MODEL 4
REMARK VINA RESULT:      -7.0      1.272      1.498
REMARK SMILES CC(=O)CCc1ccc2c(c1)OCO2
REMARK SMILES IDX 4 1 2 2 1 3 3 4 5 5 6 6 7 7 11 8 8 9 10 10 9 11 12 12 14 13
REMARK SMILES IDX 13 14
REMARK H PARENT
REMARK Flexibility Score: inf
ROOT
ATOM      1  C   UNL     1       6.367   1.134   0.959  1.00  0.00     0.080 C 
ENDROOT
BRANCH   1   2
ATOM      2  C   UNL     1       5.638   0.307   1.961  1.00  0.00     0.130 C 
ATOM      3  C   UNL     1       6.238  -0.924   2.542  1.00  0.00     0.087 C 
ATOM      4  O   UNL     1       4.519   0.618   2.335  1.00  0.00    -0.300 OA
ENDBRANCH   1   2
BRANCH   1   5
ATOM      5  C   UNL     1       5.859   0.872  -0.445  1.00  0.00     0.043 C 
BRANCH   5   6
ATOM      6  C   UNL     1       6.805   0.053  -1.224  1.00  0.00    -0.044 A 
ATOM      7  C   UNL     1       7.461   0.562  -2.351  1.00  0.00     0.008 A 
ATOM      8  C   UNL     1       7.059  -1.245  -0.842  1.00  0.00     0.054 A 
ATOM      9  C   UNL     1       8.338  -0.253  -3.042  1.00  0.00     0.051 A 
ATOM     10  C   UNL     1       7.947  -2.065  -1.545  1.00  0.00     0.166 A 
ATOM     11  C   UNL     1       8.592  -1.564  -2.654  1.00  0.00     0.165 A 
ATOM     12  O   UNL     1       8.362  -3.368  -1.370  1.00  0.00    -0.454 OA
ATOM     13  O   UNL     1       9.398  -2.581  -3.141  1.00  0.00    -0.454 OA
ATOM     14  C   UNL     1       9.352  -3.712  -2.305  1.00  0.00     0.468 C 
ENDBRANCH   5   6
ENDBRANCH   1   5
TORSDOF 3
ENDMDL
MODEL 5
REMARK VINA RESULT:      -7.0      1.955      2.501
REMARK SMILES CC(=O)CCc1ccc2c(c1)OCO2
REMARK SMILES IDX 4 1 2 2 1 3 3 4 5 5 6 6 7 7 11 8 8 9 10 10 9 11 12 12 14 13
REMARK SMILES IDX 13 14
REMARK H PARENT
REMARK Flexibility Score: inf
ROOT
ATOM      1  C   UNL     1       6.836   0.864   1.330  1.00  0.00     0.080 C 
ENDROOT
BRANCH   1   2
ATOM      2  C   UNL     1       5.381   1.125   1.510  1.00  0.00     0.130 C 
ATOM      3  C   UNL     1       4.666   2.150   0.704  1.00  0.00     0.087 C 
ATOM      4  O   UNL     1       4.730   0.500   2.332  1.00  0.00    -0.300 OA
ENDBRANCH   1   2
BRANCH   1   5
ATOM      5  C   UNL     1       7.255   1.056  -0.114  1.00  0.00     0.043 C 
BRANCH   5   6
ATOM      6  C   UNL     1       7.606  -0.223  -0.757  1.00  0.00    -0.044 A 
ATOM      7  C   UNL     1       7.631  -0.362  -2.149  1.00  0.00     0.008 A 
ATOM      8  C   UNL     1       7.920  -1.314   0.022  1.00  0.00     0.054 A 
ATOM      9  C   UNL     1       7.968  -1.587  -2.696  1.00  0.00     0.051 A 
ATOM     10  C   UNL     1       8.261  -2.550  -0.535  1.00  0.00     0.166 A 
ATOM     11  C   UNL     1       8.285  -2.688  -1.905  1.00  0.00     0.165 A 
ATOM     12  O   UNL     1       8.607  -3.766   0.015  1.00  0.00    -0.454 OA
ATOM     13  O   UNL     1       8.650  -3.998  -2.170  1.00  0.00    -0.454 OA
ATOM     14  C   UNL     1       8.952  -4.692  -0.983  1.00  0.00     0.468 C 
ENDBRANCH   5   6
ENDBRANCH   1   5
TORSDOF 3
ENDMDL
