@<TRIPOS>MOLECULE
/home/cewinharhar/GITHUB/reincatalyze/data/processed/docking_pred/2023-May-30-2130_sub9_nm5_bs15_s42_ex16_mel10_mts10000_k50_ec05_g099_lra3e-4_lrc3e-3/677496c5c46bc5e4ac1ff58ba47d0b72a83fedc5_ligand_9.pdbqt
 14 15 0 0 0
SMALL
GASTEIGER

@<TRIPOS>ATOM
      1  C          5.5370    1.9090    1.2790 C.3     1  UNL1        0.0800
      2  C          5.0970    0.6890    2.0120 C.2     1  UNL1        0.1300
      3  C          5.9950   -0.4840    2.1830 C.3     1  UNL1        0.0870
      4  O          3.9800    0.6180    2.4960 O.2     1  UNL1       -0.3000
      5  C          5.4080    1.7270   -0.2200 C.3     1  UNL1        0.0430
      6  C          6.5740    1.0260   -0.7880 C.2     1  UNL1       -0.0440
      7  C          7.8810    1.4580   -0.5380 C.2     1  UNL1        0.0080
      8  C          6.3840   -0.0820   -1.5810 C.2     1  UNL1        0.0540
      9  C          8.9370    0.7610   -1.0970 C.2     1  UNL1        0.0510
     10  C          7.4540   -0.7840   -2.1430 C.2     1  UNL1        0.1660
     11  C          8.7410   -0.3590   -1.8990 C.2     1  UNL1        0.1650
     12  O          7.5250   -1.8970   -2.9540 O.2     1  UNL1       -0.4540
     13  O          9.5850   -1.2300   -2.5720 O.2     1  UNL1       -0.4540
     14  C          8.8600   -2.2730   -3.1790 C.3     1  UNL1        0.4680
@<TRIPOS>BOND
     1    14    12    1
     2    14    13    1
     3    12    10    1
     4    13    11    1
     5    10    11    2
     6    10     8    1
     7    11     9    1
     8     8     6    2
     9     9     7    2
    10     6     7    1
    11     6     5    1
    12     5     1    1
    13     1     2    1
    14     2     3    1
    15     2     4    2
