@<TRIPOS>MOLECULE
/home/cewinharhar/GITHUB/reincatalyze/data/processed/docking_pred/2023-May-30-2130_sub9_nm5_bs15_s42_ex16_mel10_mts10000_k50_ec05_g099_lra3e-4_lrc3e-3/677496c5c46bc5e4ac1ff58ba47d0b72a83fedc5_ligand_9.pdbqt
 14 15 0 0 0
SMALL
GASTEIGER

@<TRIPOS>ATOM
      1  C          6.3670    1.1340    0.9590 C.3     1  UNL1        0.0800
      2  C          5.6380    0.3070    1.9610 C.2     1  UNL1        0.1300
      3  C          6.2380   -0.9240    2.5420 C.3     1  UNL1        0.0870
      4  O          4.5190    0.6180    2.3350 O.2     1  UNL1       -0.3000
      5  C          5.8590    0.8720   -0.4450 C.3     1  UNL1        0.0430
      6  C          6.8050    0.0530   -1.2240 C.2     1  UNL1       -0.0440
      7  C          7.4610    0.5620   -2.3510 C.2     1  UNL1        0.0080
      8  C          7.0590   -1.2450   -0.8420 C.2     1  UNL1        0.0540
      9  C          8.3380   -0.2530   -3.0420 C.2     1  UNL1        0.0510
     10  C          7.9470   -2.0650   -1.5450 C.2     1  UNL1        0.1660
     11  C          8.5920   -1.5640   -2.6540 C.2     1  UNL1        0.1650
     12  O          8.3620   -3.3680   -1.3700 O.2     1  UNL1       -0.4540
     13  O          9.3980   -2.5810   -3.1410 O.2     1  UNL1       -0.4540
     14  C          9.3520   -3.7120   -2.3050 C.3     1  UNL1        0.4680
@<TRIPOS>BOND
     1    13    11    1
     2    13    14    1
     3     9    11    2
     4     9     7    1
     5    11    10    1
     6     7     6    2
     7    14    12    1
     8    10    12    1
     9    10     8    2
    10     6     8    1
    11     6     5    1
    12     5     1    1
    13     1     2    1
    14     2     4    2
    15     2     3    1
