@<TRIPOS>MOLECULE
/home/cewinharhar/GITHUB/reincatalyze/data/processed/docking_pred/2023-May-30-2130_sub9_nm5_bs15_s42_ex16_mel10_mts10000_k50_ec05_g099_lra3e-4_lrc3e-3/677496c5c46bc5e4ac1ff58ba47d0b72a83fedc5_ligand_9.pdbqt
 14 15 0 0 0
SMALL
GASTEIGER

@<TRIPOS>ATOM
      1  C          5.7240    1.2860   -0.2890 C.3     1  UNL1        0.0800
      2  C          5.1780    1.2140    1.0940 C.2     1  UNL1        0.1300
      3  C          5.3630    0.0080    1.9450 C.3     1  UNL1        0.0870
      4  O          4.5570    2.1500    1.5730 O.2     1  UNL1       -0.3000
      5  C          7.2260    1.0800   -0.3000 C.3     1  UNL1        0.0430
      6  C          7.5960   -0.2160   -0.8970 C.2     1  UNL1       -0.0440
      7  C          7.6250   -0.4020   -2.2830 C.2     1  UNL1        0.0080
      8  C          7.9250   -1.2740   -0.0800 C.2     1  UNL1        0.0540
      9  C          7.9810   -1.6400   -2.7870 C.2     1  UNL1        0.0510
     10  C          8.2840   -2.5230   -0.5940 C.2     1  UNL1        0.1660
     11  C          8.3120   -2.7080   -1.9580 C.2     1  UNL1        0.1650
     12  O          8.6470   -3.7140   -0.0010 O.2     1  UNL1       -0.4540
     13  O          8.6970   -4.0220   -2.1770 O.2     1  UNL1       -0.4540
     14  C          9.0070   -4.6690   -0.9660 C.3     1  UNL1        0.4680
@<TRIPOS>BOND
     1     9     7    1
     2     9    11    2
     3     7     6    2
     4    13    11    1
     5    13    14    1
     6    11    10    1
     7    14    12    1
     8     6     5    1
     9     6     8    1
    10    10     8    2
    11    10    12    1
    12     5     1    1
    13     1     2    1
    14     2     4    2
    15     2     3    1
