MODEL 1
REMARK VINA RESULT:      -7.7      0.000      0.000
REMARK SMILES CC(=O)CCc1ccc2c(c1)OCO2
REMARK SMILES IDX 4 1 2 2 1 3 3 4 5 5 6 6 7 7 11 8 8 9 10 10 9 11 12 12 14 13
REMARK SMILES IDX 13 14
REMARK H PARENT
REMARK Flexibility Score: inf
ROOT
ATOM      1  C   UNL     1       5.499   1.920   1.245  1.00  0.00     0.080 C 
ENDROOT
BRANCH   1   2
ATOM      2  C   UNL     1       5.030   0.717   1.987  1.00  0.00     0.130 C 
ATOM      3  C   UNL     1       5.875  -0.501   2.113  1.00  0.00     0.087 C 
ATOM      4  O   UNL     1       3.931   0.696   2.516  1.00  0.00    -0.300 OA
ENDBRANCH   1   2
BRANCH   1   5
ATOM      5  C   UNL     1       5.382   1.723  -0.254  1.00  0.00     0.043 C 
BRANCH   5   6
ATOM      6  C   UNL     1       6.557   1.024  -0.806  1.00  0.00    -0.044 A 
ATOM      7  C   UNL     1       7.860   1.456  -0.536  1.00  0.00     0.008 A 
ATOM      8  C   UNL     1       6.379  -0.083  -1.605  1.00  0.00     0.054 A 
ATOM      9  C   UNL     1       8.924   0.760  -1.081  1.00  0.00     0.051 A 
ATOM     10  C   UNL     1       7.457  -0.783  -2.153  1.00  0.00     0.166 A 
ATOM     11  C   UNL     1       8.741  -0.358  -1.889  1.00  0.00     0.165 A 
ATOM     12  O   UNL     1       7.541  -1.894  -2.965  1.00  0.00    -0.454 OA
ATOM     13  O   UNL     1       9.594  -1.227  -2.551  1.00  0.00    -0.454 OA
ATOM     14  C   UNL     1       8.879  -2.269  -3.171  1.00  0.00     0.468 C 
ENDBRANCH   5   6
ENDBRANCH   1   5
TORSDOF 3
ENDMDL
MODEL 2
REMARK VINA RESULT:      -7.3      1.945      2.456
REMARK SMILES CC(=O)CCc1ccc2c(c1)OCO2
REMARK SMILES IDX 4 1 2 2 1 3 3 4 5 5 6 6 7 7 11 8 8 9 10 10 9 11 12 12 14 13
REMARK SMILES IDX 13 14
REMARK H PARENT
REMARK Flexibility Score: inf
ROOT
ATOM      1  C   UNL     1       5.741   1.175  -0.333  1.00  0.00     0.080 C 
ENDROOT
BRANCH   1   2
ATOM      2  C   UNL     1       5.304   1.155   1.090  1.00  0.00     0.130 C 
ATOM      3  C   UNL     1       5.425  -0.068   1.928  1.00  0.00     0.087 C 
ATOM      4  O   UNL     1       4.829   2.150   1.614  1.00  0.00    -0.300 OA
ENDBRANCH   1   2
BRANCH   1   5
ATOM      5  C   UNL     1       7.247   1.039  -0.448  1.00  0.00     0.043 C 
BRANCH   5   6
ATOM      6  C   UNL     1       7.637  -0.269  -1.003  1.00  0.00    -0.044 A 
ATOM      7  C   UNL     1       7.710  -0.488  -2.384  1.00  0.00     0.008 A 
ATOM      8  C   UNL     1       7.941  -1.308  -0.153  1.00  0.00     0.054 A 
ATOM      9  C   UNL     1       8.082  -1.737  -2.847  1.00  0.00     0.051 A 
ATOM     10  C   UNL     1       8.318  -2.568  -0.625  1.00  0.00     0.166 A 
ATOM     11  C   UNL     1       8.389  -2.784  -1.984  1.00  0.00     0.165 A 
ATOM     12  O   UNL     1       8.663  -3.744   0.006  1.00  0.00    -0.454 OA
ATOM     13  O   UNL     1       8.781  -4.102  -2.160  1.00  0.00    -0.454 OA
ATOM     14  C   UNL     1       9.054  -4.721  -0.925  1.00  0.00     0.468 C 
ENDBRANCH   5   6
ENDBRANCH   1   5
TORSDOF 3
ENDMDL
MODEL 3
REMARK VINA RESULT:      -7.2      2.097      2.642
REMARK SMILES CC(=O)CCc1ccc2c(c1)OCO2
REMARK SMILES IDX 4 1 2 2 1 3 3 4 5 5 6 6 7 7 11 8 8 9 10 10 9 11 12 12 14 13
REMARK SMILES IDX 13 14
REMARK H PARENT
REMARK Flexibility Score: inf
ROOT
ATOM      1  C   UNL     1       5.531  -0.023   1.948  1.00  0.00     0.080 C 
ENDROOT
BRANCH   1   2
ATOM      2  C   UNL     1       4.655   1.144   1.648  1.00  0.00     0.130 C 
ATOM      3  C   UNL     1       4.958   2.082   0.534  1.00  0.00     0.087 C 
ATOM      4  O   UNL     1       3.656   1.365   2.313  1.00  0.00    -0.300 OA
ENDBRANCH   1   2
BRANCH   1   5
ATOM      5  C   UNL     1       6.953   0.222   1.482  1.00  0.00     0.043 C 
BRANCH   5   6
ATOM      6  C   UNL     1       7.359  -0.738   0.440  1.00  0.00    -0.044 A 
ATOM      7  C   UNL     1       7.233  -0.439  -0.922  1.00  0.00     0.008 A 
ATOM      8  C   UNL     1       7.878  -1.960   0.803  1.00  0.00     0.054 A 
ATOM      9  C   UNL     1       7.632  -1.378  -1.855  1.00  0.00     0.051 A 
ATOM     10  C   UNL     1       8.281  -2.906  -0.145  1.00  0.00     0.166 A 
ATOM     11  C   UNL     1       8.156  -2.613  -1.485  1.00  0.00     0.165 A 
ATOM     12  O   UNL     1       8.818  -4.172  -0.040  1.00  0.00    -0.454 OA
ATOM     13  O   UNL     1       8.625  -3.715  -2.181  1.00  0.00    -0.454 OA
ATOM     14  C   UNL     1       9.138  -4.690  -1.305  1.00  0.00     0.468 C 
ENDBRANCH   5   6
ENDBRANCH   1   5
TORSDOF 3
ENDMDL
MODEL 4
REMARK VINA RESULT:      -7.1      1.271      1.483
REMARK SMILES CC(=O)CCc1ccc2c(c1)OCO2
REMARK SMILES IDX 4 1 2 2 1 3 3 4 5 5 6 6 7 7 11 8 8 9 10 10 9 11 12 12 14 13
REMARK SMILES IDX 13 14
REMARK H PARENT
REMARK Flexibility Score: inf
ROOT
ATOM      1  C   UNL     1       6.390   1.210   0.941  1.00  0.00     0.080 C 
ENDROOT
BRANCH   1   2
ATOM      2  C   UNL     1       5.651   0.388   1.939  1.00  0.00     0.130 C 
ATOM      3  C   UNL     1       6.244  -0.841   2.531  1.00  0.00     0.087 C 
ATOM      4  O   UNL     1       4.529   0.702   2.302  1.00  0.00    -0.300 OA
ENDBRANCH   1   2
BRANCH   1   5
ATOM      5  C   UNL     1       5.887   0.953  -0.465  1.00  0.00     0.043 C 
BRANCH   5   6
ATOM      6  C   UNL     1       6.824   0.116  -1.236  1.00  0.00    -0.044 A 
ATOM      7  C   UNL     1       7.493   0.611  -2.361  1.00  0.00     0.008 A 
ATOM      8  C   UNL     1       7.055  -1.184  -0.848  1.00  0.00     0.054 A 
ATOM      9  C   UNL     1       8.362  -0.221  -3.045  1.00  0.00     0.051 A 
ATOM     10  C   UNL     1       7.934  -2.021  -1.543  1.00  0.00     0.166 A 
ATOM     11  C   UNL     1       8.592  -1.535  -2.650  1.00  0.00     0.165 A 
ATOM     12  O   UNL     1       8.327  -3.330  -1.361  1.00  0.00    -0.454 OA
ATOM     13  O   UNL     1       9.385  -2.566  -3.130  1.00  0.00    -0.454 OA
ATOM     14  C   UNL     1       9.316  -3.693  -2.289  1.00  0.00     0.468 C 
ENDBRANCH   5   6
ENDBRANCH   1   5
TORSDOF 3
ENDMDL
MODEL 5
REMARK VINA RESULT:      -7.0      1.924      2.490
REMARK SMILES CC(=O)CCc1ccc2c(c1)OCO2
REMARK SMILES IDX 4 1 2 2 1 3 3 4 5 5 6 6 7 7 11 8 8 9 10 10 9 11 12 12 14 13
REMARK SMILES IDX 13 14
REMARK H PARENT
REMARK Flexibility Score: inf
ROOT
ATOM      1  C   UNL     1       6.956   1.037   1.169  1.00  0.00     0.080 C 
ENDROOT
BRANCH   1   2
ATOM      2  C   UNL     1       5.501   1.241   1.412  1.00  0.00     0.130 C 
ATOM      3  C   UNL     1       4.687   2.150   0.561  1.00  0.00     0.087 C 
ATOM      4  O   UNL     1       4.931   0.663   2.323  1.00  0.00    -0.300 OA
ENDBRANCH   1   2
BRANCH   1   5
ATOM      5  C   UNL     1       7.292   1.164  -0.304  1.00  0.00     0.043 C 
BRANCH   5   6
ATOM      6  C   UNL     1       7.641  -0.138  -0.900  1.00  0.00    -0.044 A 
ATOM      7  C   UNL     1       7.678  -0.324  -2.287  1.00  0.00     0.008 A 
ATOM      8  C   UNL     1       7.942  -1.204  -0.082  1.00  0.00     0.054 A 
ATOM      9  C   UNL     1       8.013  -1.568  -2.788  1.00  0.00     0.051 A 
ATOM     10  C   UNL     1       8.280  -2.460  -0.594  1.00  0.00     0.166 A 
ATOM     11  C   UNL     1       8.316  -2.643  -1.959  1.00  0.00     0.165 A 
ATOM     12  O   UNL     1       8.615  -3.658   0.000  1.00  0.00    -0.454 OA
ATOM     13  O   UNL     1       8.676  -3.964  -2.176  1.00  0.00    -0.454 OA
ATOM     14  C   UNL     1       8.963  -4.619  -0.963  1.00  0.00     0.468 C 
ENDBRANCH   5   6
ENDBRANCH   1   5
TORSDOF 3
ENDMDL
