@<TRIPOS>MOLECULE
/home/cewinharhar/GITHUB/reincatalyze/data/processed/docking_pred/2023-May-30-2130_sub9_nm5_bs15_s42_ex16_mel10_mts10000_k50_ec05_g099_lra3e-4_lrc3e-3/6d158fe290fd5017d73aec191e5eef2bb245b649_ligand_9.pdbqt
 14 15 0 0 0
SMALL
GASTEIGER

@<TRIPOS>ATOM
      1  C          6.3860    1.1710    0.9640 C.3     1  UNL1        0.0800
      2  C          5.6480    0.3510    1.9650 C.2     1  UNL1        0.1300
      3  C          6.2380   -0.8820    2.5520 C.3     1  UNL1        0.0870
      4  O          4.5300    0.6700    2.3350 O.2     1  UNL1       -0.3000
      5  C          5.8770    0.9140   -0.4400 C.3     1  UNL1        0.0430
      6  C          6.8210    0.0960   -1.2230 C.2     1  UNL1       -0.0440
      7  C          7.4930    0.6160   -2.3350 C.2     1  UNL1        0.0080
      8  C          7.0570   -1.2090   -0.8580 C.2     1  UNL1        0.0540
      9  C          8.3680   -0.1990   -3.0310 C.2     1  UNL1        0.0510
     10  C          7.9440   -2.0280   -1.5630 C.2     1  UNL1        0.1660
     11  C          8.6040   -1.5190   -2.6590 C.2     1  UNL1        0.1650
     12  O          8.3430   -3.3380   -1.4040 O.2     1  UNL1       -0.4540
     13  O          9.4040   -2.5370   -3.1540 O.2     1  UNL1       -0.4540
     14  C          9.3380   -3.6790   -2.3350 C.3     1  UNL1        0.4680
@<TRIPOS>BOND
     1    13    11    1
     2    13    14    1
     3     9    11    2
     4     9     7    1
     5    11    10    1
     6     7     6    2
     7    14    12    1
     8    10    12    1
     9    10     8    2
    10     6     8    1
    11     6     5    1
    12     5     1    1
    13     1     2    1
    14     2     4    2
    15     2     3    1
