MODEL 1
REMARK VINA RESULT:      -7.7      0.000      0.000
REMARK SMILES CC(=O)CCc1ccc2c(c1)OCO2
REMARK SMILES IDX 4 1 2 2 1 3 3 4 5 5 6 6 7 7 11 8 8 9 10 10 9 11 12 12 14 13
REMARK SMILES IDX 13 14
REMARK H PARENT
REMARK Flexibility Score: inf
ROOT
ATOM      1  C   UNL     1       5.542   1.890   1.278  1.00  0.00     0.080 C 
ENDROOT
BRANCH   1   2
ATOM      2  C   UNL     1       5.098   0.671   2.010  1.00  0.00     0.130 C 
ATOM      3  C   UNL     1       5.984  -0.513   2.165  1.00  0.00     0.087 C 
ATOM      4  O   UNL     1       3.985   0.610   2.507  1.00  0.00    -0.300 OA
ENDBRANCH   1   2
BRANCH   1   5
ATOM      5  C   UNL     1       5.410   1.710  -0.221  1.00  0.00     0.043 C 
BRANCH   5   6
ATOM      6  C   UNL     1       6.575   1.011  -0.793  1.00  0.00    -0.044 A 
ATOM      7  C   UNL     1       7.883   1.446  -0.549  1.00  0.00     0.008 A 
ATOM      8  C   UNL     1       6.384  -0.100  -1.583  1.00  0.00     0.054 A 
ATOM      9  C   UNL     1       8.937   0.749  -1.111  1.00  0.00     0.051 A 
ATOM     10  C   UNL     1       7.453  -0.801  -2.149  1.00  0.00     0.166 A 
ATOM     11  C   UNL     1       8.740  -0.373  -1.911  1.00  0.00     0.165 A 
ATOM     12  O   UNL     1       7.523  -1.915  -2.958  1.00  0.00    -0.454 OA
ATOM     13  O   UNL     1       9.583  -1.242  -2.585  1.00  0.00    -0.454 OA
ATOM     14  C   UNL     1       8.858  -2.288  -3.187  1.00  0.00     0.468 C 
ENDBRANCH   5   6
ENDBRANCH   1   5
TORSDOF 3
ENDMDL
MODEL 2
REMARK VINA RESULT:      -7.4      1.878      2.327
REMARK SMILES CC(=O)CCc1ccc2c(c1)OCO2
REMARK SMILES IDX 4 1 2 2 1 3 3 4 5 5 6 6 7 7 11 8 8 9 10 10 9 11 12 12 14 13
REMARK SMILES IDX 13 14
REMARK H PARENT
REMARK Flexibility Score: inf
ROOT
ATOM      1  C   UNL     1       5.739   1.413  -0.299  1.00  0.00     0.080 C 
ENDROOT
BRANCH   1   2
ATOM      2  C   UNL     1       5.192   1.300   1.082  1.00  0.00     0.130 C 
ATOM      3  C   UNL     1       5.538   0.157   1.968  1.00  0.00     0.087 C 
ATOM      4  O   UNL     1       4.438   2.150   1.529  1.00  0.00    -0.300 OA
ENDBRANCH   1   2
BRANCH   1   5
ATOM      5  C   UNL     1       7.240   1.207  -0.315  1.00  0.00     0.043 C 
BRANCH   5   6
ATOM      6  C   UNL     1       7.608  -0.089  -0.911  1.00  0.00    -0.044 A 
ATOM      7  C   UNL     1       7.701  -0.259  -2.298  1.00  0.00     0.008 A 
ATOM      8  C   UNL     1       7.871  -1.166  -0.095  1.00  0.00     0.054 A 
ATOM      9  C   UNL     1       8.051  -1.499  -2.800  1.00  0.00     0.051 A 
ATOM     10  C   UNL     1       8.226  -2.417  -0.608  1.00  0.00     0.166 A 
ATOM     11  C   UNL     1       8.316  -2.585  -1.972  1.00  0.00     0.165 A 
ATOM     12  O   UNL     1       8.531  -3.624  -0.015  1.00  0.00    -0.454 OA
ATOM     13  O   UNL     1       8.680  -3.904  -2.190  1.00  0.00    -0.454 OA
ATOM     14  C   UNL     1       8.915  -4.575  -0.975  1.00  0.00     0.468 C 
ENDBRANCH   5   6
ENDBRANCH   1   5
TORSDOF 3
ENDMDL
MODEL 3
REMARK VINA RESULT:      -7.2      2.070      2.624
REMARK SMILES CC(=O)CCc1ccc2c(c1)OCO2
REMARK SMILES IDX 4 1 2 2 1 3 3 4 5 5 6 6 7 7 11 8 8 9 10 10 9 11 12 12 14 13
REMARK SMILES IDX 13 14
REMARK H PARENT
REMARK Flexibility Score: inf
ROOT
ATOM      1  C   UNL     1       5.469  -0.018   2.007  1.00  0.00     0.080 C 
ENDROOT
BRANCH   1   2
ATOM      2  C   UNL     1       4.590   1.156   1.748  1.00  0.00     0.130 C 
ATOM      3  C   UNL     1       4.894   2.136   0.670  1.00  0.00     0.087 C 
ATOM      4  O   UNL     1       3.589   1.350   2.418  1.00  0.00    -0.300 OA
ENDBRANCH   1   2
BRANCH   1   5
ATOM      5  C   UNL     1       6.889   0.244   1.547  1.00  0.00     0.043 C 
BRANCH   5   6
ATOM      6  C   UNL     1       7.308  -0.704   0.500  1.00  0.00    -0.044 A 
ATOM      7  C   UNL     1       7.189  -0.396  -0.860  1.00  0.00     0.008 A 
ATOM      8  C   UNL     1       7.834  -1.925   0.857  1.00  0.00     0.054 A 
ATOM      9  C   UNL     1       7.599  -1.325  -1.798  1.00  0.00     0.051 A 
ATOM     10  C   UNL     1       8.249  -2.862  -0.095  1.00  0.00     0.166 A 
ATOM     11  C   UNL     1       8.130  -2.559  -1.433  1.00  0.00     0.165 A 
ATOM     12  O   UNL     1       8.794  -4.124   0.004  1.00  0.00    -0.454 OA
ATOM     13  O   UNL     1       8.611  -3.653  -2.136  1.00  0.00    -0.454 OA
ATOM     14  C   UNL     1       9.126  -4.631  -1.264  1.00  0.00     0.468 C 
ENDBRANCH   5   6
ENDBRANCH   1   5
TORSDOF 3
ENDMDL
MODEL 4
REMARK VINA RESULT:      -7.1      1.251      1.453
REMARK SMILES CC(=O)CCc1ccc2c(c1)OCO2
REMARK SMILES IDX 4 1 2 2 1 3 3 4 5 5 6 6 7 7 11 8 8 9 10 10 9 11 12 12 14 13
REMARK SMILES IDX 13 14
REMARK H PARENT
REMARK Flexibility Score: inf
ROOT
ATOM      1  C   UNL     1       6.386   1.171   0.964  1.00  0.00     0.080 C 
ENDROOT
BRANCH   1   2
ATOM      2  C   UNL     1       5.648   0.351   1.965  1.00  0.00     0.130 C 
ATOM      3  C   UNL     1       6.238  -0.882   2.552  1.00  0.00     0.087 C 
ATOM      4  O   UNL     1       4.530   0.670   2.335  1.00  0.00    -0.300 OA
ENDBRANCH   1   2
BRANCH   1   5
ATOM      5  C   UNL     1       5.877   0.914  -0.440  1.00  0.00     0.043 C 
BRANCH   5   6
ATOM      6  C   UNL     1       6.821   0.096  -1.223  1.00  0.00    -0.044 A 
ATOM      7  C   UNL     1       7.493   0.616  -2.335  1.00  0.00     0.008 A 
ATOM      8  C   UNL     1       7.057  -1.209  -0.858  1.00  0.00     0.054 A 
ATOM      9  C   UNL     1       8.368  -0.199  -3.031  1.00  0.00     0.051 A 
ATOM     10  C   UNL     1       7.944  -2.028  -1.563  1.00  0.00     0.166 A 
ATOM     11  C   UNL     1       8.604  -1.519  -2.659  1.00  0.00     0.165 A 
ATOM     12  O   UNL     1       8.343  -3.338  -1.404  1.00  0.00    -0.454 OA
ATOM     13  O   UNL     1       9.404  -2.537  -3.154  1.00  0.00    -0.454 OA
ATOM     14  C   UNL     1       9.338  -3.679  -2.335  1.00  0.00     0.468 C 
ENDBRANCH   5   6
ENDBRANCH   1   5
TORSDOF 3
ENDMDL
MODEL 5
REMARK VINA RESULT:      -6.8      1.268      1.752
REMARK SMILES CC(=O)CCc1ccc2c(c1)OCO2
REMARK SMILES IDX 4 1 2 2 1 3 3 4 5 5 6 6 7 7 11 8 8 9 10 10 9 11 12 12 14 13
REMARK SMILES IDX 13 14
REMARK H PARENT
REMARK Flexibility Score: inf
ROOT
ATOM      1  C   UNL     1       5.318  -0.068   1.971  1.00  0.00     0.080 C 
ENDROOT
BRANCH   1   2
ATOM      2  C   UNL     1       4.438   1.120   1.789  1.00  0.00     0.130 C 
ATOM      3  C   UNL     1       4.721   2.150   0.754  1.00  0.00     0.087 C 
ATOM      4  O   UNL     1       3.452   1.282   2.490  1.00  0.00    -0.300 OA
ENDBRANCH   1   2
BRANCH   1   5
ATOM      5  C   UNL     1       6.783   0.318   1.909  1.00  0.00     0.043 C 
BRANCH   5   6
ATOM      6  C   UNL     1       7.388  -0.041   0.613  1.00  0.00    -0.044 A 
ATOM      7  C   UNL     1       7.881   0.935  -0.260  1.00  0.00     0.008 A 
ATOM      8  C   UNL     1       7.477  -1.364   0.245  1.00  0.00     0.054 A 
ATOM      9  C   UNL     1       8.439   0.540  -1.462  1.00  0.00     0.051 A 
ATOM     10  C   UNL     1       8.042  -1.759  -0.971  1.00  0.00     0.166 A 
ATOM     11  C   UNL     1       8.527  -0.799  -1.832  1.00  0.00     0.165 A 
ATOM     12  O   UNL     1       8.243  -2.990  -1.558  1.00  0.00    -0.454 OA
ATOM     13  O   UNL     1       9.021  -1.468  -2.941  1.00  0.00    -0.454 OA
ATOM     14  C   UNL     1       8.944  -2.863  -2.769  1.00  0.00     0.468 C 
ENDBRANCH   5   6
ENDBRANCH   1   5
TORSDOF 3
ENDMDL
