@<TRIPOS>MOLECULE
/home/cewinharhar/GITHUB/reincatalyze/data/processed/docking_pred/2023-May-30-2130_sub9_nm5_bs15_s42_ex16_mel10_mts10000_k50_ec05_g099_lra3e-4_lrc3e-3/6d158fe290fd5017d73aec191e5eef2bb245b649_ligand_9.pdbqt
 14 15 0 0 0
SMALL
GASTEIGER

@<TRIPOS>ATOM
      1  C          5.3180   -0.0680    1.9710 C.3     1  UNL1        0.0800
      2  C          4.4380    1.1200    1.7890 C.2     1  UNL1        0.1300
      3  C          4.7210    2.1500    0.7540 C.3     1  UNL1        0.0870
      4  O          3.4520    1.2820    2.4900 O.2     1  UNL1       -0.3000
      5  C          6.7830    0.3180    1.9090 C.3     1  UNL1        0.0430
      6  C          7.3880   -0.0410    0.6130 C.2     1  UNL1       -0.0440
      7  C          7.8810    0.9350   -0.2600 C.2     1  UNL1        0.0080
      8  C          7.4770   -1.3640    0.2450 C.2     1  UNL1        0.0540
      9  C          8.4390    0.5400   -1.4620 C.2     1  UNL1        0.0510
     10  C          8.0420   -1.7590   -0.9710 C.2     1  UNL1        0.1660
     11  C          8.5270   -0.7990   -1.8320 C.2     1  UNL1        0.1650
     12  O          8.2430   -2.9900   -1.5580 O.2     1  UNL1       -0.4540
     13  O          9.0210   -1.4680   -2.9410 O.2     1  UNL1       -0.4540
     14  C          8.9440   -2.8630   -2.7690 C.3     1  UNL1        0.4680
@<TRIPOS>BOND
     1    13    14    1
     2    13    11    1
     3    14    12    1
     4    11     9    2
     5    11    10    1
     6    12    10    1
     7     9     7    1
     8    10     8    2
     9     7     6    2
    10     8     6    1
    11     6     5    1
    12     3     2    1
    13     2     1    1
    14     2     4    2
    15     5     1    1
