@<TRIPOS>MOLECULE
/home/cewinharhar/GITHUB/reincatalyze/data/processed/docking_pred/2023-May-30-2130_sub9_nm5_bs15_s42_ex16_mel10_mts10000_k50_ec05_g099_lra3e-4_lrc3e-3/6d158fe290fd5017d73aec191e5eef2bb245b649_ligand_9.pdbqt
 14 15 0 0 0
SMALL
GASTEIGER

@<TRIPOS>ATOM
      1  C          5.7390    1.4130   -0.2990 C.3     1  UNL1        0.0800
      2  C          5.1920    1.3000    1.0820 C.2     1  UNL1        0.1300
      3  C          5.5380    0.1570    1.9680 C.3     1  UNL1        0.0870
      4  O          4.4380    2.1500    1.5290 O.2     1  UNL1       -0.3000
      5  C          7.2400    1.2070   -0.3150 C.3     1  UNL1        0.0430
      6  C          7.6080   -0.0890   -0.9110 C.2     1  UNL1       -0.0440
      7  C          7.7010   -0.2590   -2.2980 C.2     1  UNL1        0.0080
      8  C          7.8710   -1.1660   -0.0950 C.2     1  UNL1        0.0540
      9  C          8.0510   -1.4990   -2.8000 C.2     1  UNL1        0.0510
     10  C          8.2260   -2.4170   -0.6080 C.2     1  UNL1        0.1660
     11  C          8.3160   -2.5850   -1.9720 C.2     1  UNL1        0.1650
     12  O          8.5310   -3.6240   -0.0150 O.2     1  UNL1       -0.4540
     13  O          8.6800   -3.9040   -2.1900 O.2     1  UNL1       -0.4540
     14  C          8.9150   -4.5750   -0.9750 C.3     1  UNL1        0.4680
@<TRIPOS>BOND
     1     9     7    1
     2     9    11    2
     3     7     6    2
     4    13    11    1
     5    13    14    1
     6    11    10    1
     7    14    12    1
     8     6     5    1
     9     6     8    1
    10    10     8    2
    11    10    12    1
    12     5     1    1
    13     1     2    1
    14     2     4    2
    15     2     3    1
