MODEL 1
REMARK VINA RESULT:      -7.7      0.000      0.000
REMARK SMILES CC(=O)CCc1ccc2c(c1)OCO2
REMARK SMILES IDX 4 1 2 2 1 3 3 4 5 5 6 6 7 7 11 8 8 9 10 10 9 11 12 12 14 13
REMARK SMILES IDX 13 14
REMARK H PARENT
REMARK Flexibility Score: inf
ROOT
ATOM      1  C   UNL     1       5.537   1.930   1.263  1.00  0.00     0.080 C 
ENDROOT
BRANCH   1   2
ATOM      2  C   UNL     1       5.111   0.712   2.007  1.00  0.00     0.130 C 
ATOM      3  C   UNL     1       6.022  -0.449   2.190  1.00  0.00     0.087 C 
ATOM      4  O   UNL     1       3.994   0.632   2.491  1.00  0.00    -0.300 OA
ENDBRANCH   1   2
BRANCH   1   5
ATOM      5  C   UNL     1       5.408   1.734  -0.234  1.00  0.00     0.043 C 
BRANCH   5   6
ATOM      6  C   UNL     1       6.574   1.027  -0.795  1.00  0.00    -0.044 A 
ATOM      7  C   UNL     1       7.882   1.453  -0.538  1.00  0.00     0.008 A 
ATOM      8  C   UNL     1       6.382  -0.080  -1.590  1.00  0.00     0.054 A 
ATOM      9  C   UNL     1       8.937   0.749  -1.091  1.00  0.00     0.051 A 
ATOM     10  C   UNL     1       7.452  -0.788  -2.146  1.00  0.00     0.166 A 
ATOM     11  C   UNL     1       8.740  -0.369  -1.895  1.00  0.00     0.165 A 
ATOM     12  O   UNL     1       7.523  -1.901  -2.957  1.00  0.00    -0.454 OA
ATOM     13  O   UNL     1       9.583  -1.244  -2.562  1.00  0.00    -0.454 OA
ATOM     14  C   UNL     1       8.857  -2.283  -3.174  1.00  0.00     0.468 C 
ENDBRANCH   5   6
ENDBRANCH   1   5
TORSDOF 3
ENDMDL
MODEL 2
REMARK VINA RESULT:      -7.5      1.931      2.381
REMARK SMILES CC(=O)CCc1ccc2c(c1)OCO2
REMARK SMILES IDX 4 1 2 2 1 3 3 4 5 5 6 6 7 7 11 8 8 9 10 10 9 11 12 12 14 13
REMARK SMILES IDX 13 14
REMARK H PARENT
REMARK Flexibility Score: inf
ROOT
ATOM      1  C   UNL     1       5.720   1.335  -0.304  1.00  0.00     0.080 C 
ENDROOT
BRANCH   1   2
ATOM      2  C   UNL     1       5.094   1.268   1.046  1.00  0.00     0.130 C 
ATOM      3  C   UNL     1       5.354   0.133   1.971  1.00  0.00     0.087 C 
ATOM      4  O   UNL     1       4.344   2.149   1.434  1.00  0.00    -0.300 OA
ENDBRANCH   1   2
BRANCH   1   5
ATOM      5  C   UNL     1       7.216   1.100  -0.229  1.00  0.00     0.043 C 
BRANCH   5   6
ATOM      6  C   UNL     1       7.599  -0.185  -0.841  1.00  0.00    -0.044 A 
ATOM      7  C   UNL     1       7.688  -0.339  -2.229  1.00  0.00     0.008 A 
ATOM      8  C   UNL     1       7.879  -1.266  -0.037  1.00  0.00     0.054 A 
ATOM      9  C   UNL     1       8.052  -1.569  -2.746  1.00  0.00     0.051 A 
ATOM     10  C   UNL     1       8.248  -2.507  -0.564  1.00  0.00     0.166 A 
ATOM     11  C   UNL     1       8.335  -2.660  -1.930  1.00  0.00     0.165 A 
ATOM     12  O   UNL     1       8.571  -3.716   0.015  1.00  0.00    -0.454 OA
ATOM     13  O   UNL     1       8.715  -3.972  -2.163  1.00  0.00    -0.454 OA
ATOM     14  C   UNL     1       8.964  -4.652  -0.956  1.00  0.00     0.468 C 
ENDBRANCH   5   6
ENDBRANCH   1   5
TORSDOF 3
ENDMDL
MODEL 3
REMARK VINA RESULT:      -7.3      2.052      2.639
REMARK SMILES CC(=O)CCc1ccc2c(c1)OCO2
REMARK SMILES IDX 4 1 2 2 1 3 3 4 5 5 6 6 7 7 11 8 8 9 10 10 9 11 12 12 14 13
REMARK SMILES IDX 13 14
REMARK H PARENT
REMARK Flexibility Score: inf
ROOT
ATOM      1  C   UNL     1       5.387  -0.080   2.049  1.00  0.00     0.080 C 
ENDROOT
BRANCH   1   2
ATOM      2  C   UNL     1       4.556   1.128   1.783  1.00  0.00     0.130 C 
ATOM      3  C   UNL     1       4.921   2.109   0.726  1.00  0.00     0.087 C 
ATOM      4  O   UNL     1       3.546   1.349   2.431  1.00  0.00    -0.300 OA
ENDBRANCH   1   2
BRANCH   1   5
ATOM      5  C   UNL     1       6.834   0.152   1.664  1.00  0.00     0.043 C 
BRANCH   5   6
ATOM      6  C   UNL     1       7.266  -0.757   0.587  1.00  0.00    -0.044 A 
ATOM      7  C   UNL     1       7.137  -0.408  -0.763  1.00  0.00     0.008 A 
ATOM      8  C   UNL     1       7.812  -1.980   0.904  1.00  0.00     0.054 A 
ATOM      9  C   UNL     1       7.560  -1.301  -1.730  1.00  0.00     0.051 A 
ATOM     10  C   UNL     1       8.238  -2.879  -0.078  1.00  0.00     0.166 A 
ATOM     11  C   UNL     1       8.111  -2.537  -1.406  1.00  0.00     0.165 A 
ATOM     12  O   UNL     1       8.804  -4.135  -0.020  1.00  0.00    -0.454 OA
ATOM     13  O   UNL     1       8.607  -3.601  -2.143  1.00  0.00    -0.454 OA
ATOM     14  C   UNL     1       9.140  -4.597  -1.303  1.00  0.00     0.468 C 
ENDBRANCH   5   6
ENDBRANCH   1   5
TORSDOF 3
ENDMDL
MODEL 4
REMARK VINA RESULT:      -7.1      1.256      1.461
REMARK SMILES CC(=O)CCc1ccc2c(c1)OCO2
REMARK SMILES IDX 4 1 2 2 1 3 3 4 5 5 6 6 7 7 11 8 8 9 10 10 9 11 12 12 14 13
REMARK SMILES IDX 13 14
REMARK H PARENT
REMARK Flexibility Score: inf
ROOT
ATOM      1  C   UNL     1       6.380   1.206   0.954  1.00  0.00     0.080 C 
ENDROOT
BRANCH   1   2
ATOM      2  C   UNL     1       5.642   0.373   1.943  1.00  0.00     0.130 C 
ATOM      3  C   UNL     1       6.240  -0.856   2.530  1.00  0.00     0.087 C 
ATOM      4  O   UNL     1       4.516   0.677   2.302  1.00  0.00    -0.300 OA
ENDBRANCH   1   2
BRANCH   1   5
ATOM      5  C   UNL     1       5.881   0.959  -0.456  1.00  0.00     0.043 C 
BRANCH   5   6
ATOM      6  C   UNL     1       6.818   0.124  -1.229  1.00  0.00    -0.044 A 
ATOM      7  C   UNL     1       7.490   0.623  -2.351  1.00  0.00     0.008 A 
ATOM      8  C   UNL     1       7.048  -1.177  -0.845  1.00  0.00     0.054 A 
ATOM      9  C   UNL     1       8.359  -0.207  -3.037  1.00  0.00     0.051 A 
ATOM     10  C   UNL     1       7.928  -2.012  -1.542  1.00  0.00     0.166 A 
ATOM     11  C   UNL     1       8.588  -1.522  -2.647  1.00  0.00     0.165 A 
ATOM     12  O   UNL     1       8.320  -3.322  -1.364  1.00  0.00    -0.454 OA
ATOM     13  O   UNL     1       9.381  -2.552  -3.129  1.00  0.00    -0.454 OA
ATOM     14  C   UNL     1       9.310  -3.682  -2.292  1.00  0.00     0.468 C 
ENDBRANCH   5   6
ENDBRANCH   1   5
TORSDOF 3
ENDMDL
MODEL 5
REMARK VINA RESULT:      -7.0      1.983      2.574
REMARK SMILES CC(=O)CCc1ccc2c(c1)OCO2
REMARK SMILES IDX 4 1 2 2 1 3 3 4 5 5 6 6 7 7 11 8 8 9 10 10 9 11 12 12 14 13
REMARK SMILES IDX 13 14
REMARK H PARENT
REMARK Flexibility Score: inf
ROOT
ATOM      1  C   UNL     1       6.925   0.849   1.173  1.00  0.00     0.080 C 
ENDROOT
BRANCH   1   2
ATOM      2  C   UNL     1       5.490   1.129   1.457  1.00  0.00     0.130 C 
ATOM      3  C   UNL     1       4.727   2.150   0.690  1.00  0.00     0.087 C 
ATOM      4  O   UNL     1       4.895   0.525   2.335  1.00  0.00    -0.300 OA
ENDBRANCH   1   2
BRANCH   1   5
ATOM      5  C   UNL     1       7.227   0.970  -0.307  1.00  0.00     0.043 C 
BRANCH   5   6
ATOM      6  C   UNL     1       7.599  -0.329  -0.896  1.00  0.00    -0.044 A 
ATOM      7  C   UNL     1       7.625  -0.525  -2.282  1.00  0.00     0.008 A 
ATOM      8  C   UNL     1       7.933  -1.381  -0.073  1.00  0.00     0.054 A 
ATOM      9  C   UNL     1       7.984  -1.766  -2.777  1.00  0.00     0.051 A 
ATOM     10  C   UNL     1       8.295  -2.633  -0.579  1.00  0.00     0.166 A 
ATOM     11  C   UNL     1       8.320  -2.827  -1.943  1.00  0.00     0.165 A 
ATOM     12  O   UNL     1       8.663  -3.818   0.021  1.00  0.00    -0.454 OA
ATOM     13  O   UNL     1       8.708  -4.141  -2.153  1.00  0.00    -0.454 OA
ATOM     14  C   UNL     1       9.023  -4.779  -0.939  1.00  0.00     0.468 C 
ENDBRANCH   5   6
ENDBRANCH   1   5
TORSDOF 3
ENDMDL
