@<TRIPOS>MOLECULE
/home/cewinharhar/GITHUB/reincatalyze/data/processed/docking_pred/2023-May-30-2130_sub9_nm5_bs15_s42_ex16_mel10_mts10000_k50_ec05_g099_lra3e-4_lrc3e-3/6dc168e099aae66a1c19408847f7f9495b2b5216_ligand_9.pdbqt
 14 15 0 0 0
SMALL
GASTEIGER

@<TRIPOS>ATOM
      1  C          5.3870   -0.0800    2.0490 C.3     1  UNL1        0.0800
      2  C          4.5560    1.1280    1.7830 C.2     1  UNL1        0.1300
      3  C          4.9210    2.1090    0.7260 C.3     1  UNL1        0.0870
      4  O          3.5460    1.3490    2.4310 O.2     1  UNL1       -0.3000
      5  C          6.8340    0.1520    1.6640 C.3     1  UNL1        0.0430
      6  C          7.2660   -0.7570    0.5870 C.2     1  UNL1       -0.0440
      7  C          7.1370   -0.4080   -0.7630 C.2     1  UNL1        0.0080
      8  C          7.8120   -1.9800    0.9040 C.2     1  UNL1        0.0540
      9  C          7.5600   -1.3010   -1.7300 C.2     1  UNL1        0.0510
     10  C          8.2380   -2.8790   -0.0780 C.2     1  UNL1        0.1660
     11  C          8.1110   -2.5370   -1.4060 C.2     1  UNL1        0.1650
     12  O          8.8040   -4.1350   -0.0200 O.2     1  UNL1       -0.4540
     13  O          8.6070   -3.6010   -2.1430 O.2     1  UNL1       -0.4540
     14  C          9.1400   -4.5970   -1.3030 C.3     1  UNL1        0.4680
@<TRIPOS>BOND
     1    13    11    1
     2    13    14    1
     3     9    11    2
     4     9     7    1
     5    11    10    1
     6    14    12    1
     7     7     6    2
     8    10    12    1
     9    10     8    2
    10     6     8    1
    11     6     5    1
    12     3     2    1
    13     5     1    1
    14     2     1    1
    15     2     4    2
