@<TRIPOS>MOLECULE
/home/cewinharhar/GITHUB/reincatalyze/data/processed/docking_pred/2023-May-30-2130_sub9_nm5_bs15_s42_ex16_mel10_mts10000_k50_ec05_g099_lra3e-4_lrc3e-3/6dc168e099aae66a1c19408847f7f9495b2b5216_ligand_9.pdbqt
 14 15 0 0 0
SMALL
GASTEIGER

@<TRIPOS>ATOM
      1  C          6.3800    1.2060    0.9540 C.3     1  UNL1        0.0800
      2  C          5.6420    0.3730    1.9430 C.2     1  UNL1        0.1300
      3  C          6.2400   -0.8560    2.5300 C.3     1  UNL1        0.0870
      4  O          4.5160    0.6770    2.3020 O.2     1  UNL1       -0.3000
      5  C          5.8810    0.9590   -0.4560 C.3     1  UNL1        0.0430
      6  C          6.8180    0.1240   -1.2290 C.2     1  UNL1       -0.0440
      7  C          7.4900    0.6230   -2.3510 C.2     1  UNL1        0.0080
      8  C          7.0480   -1.1770   -0.8450 C.2     1  UNL1        0.0540
      9  C          8.3590   -0.2070   -3.0370 C.2     1  UNL1        0.0510
     10  C          7.9280   -2.0120   -1.5420 C.2     1  UNL1        0.1660
     11  C          8.5880   -1.5220   -2.6470 C.2     1  UNL1        0.1650
     12  O          8.3200   -3.3220   -1.3640 O.2     1  UNL1       -0.4540
     13  O          9.3810   -2.5520   -3.1290 O.2     1  UNL1       -0.4540
     14  C          9.3100   -3.6820   -2.2920 C.3     1  UNL1        0.4680
@<TRIPOS>BOND
     1    13    11    1
     2    13    14    1
     3     9    11    2
     4     9     7    1
     5    11    10    1
     6     7     6    2
     7    14    12    1
     8    10    12    1
     9    10     8    2
    10     6     8    1
    11     6     5    1
    12     5     1    1
    13     1     2    1
    14     2     4    2
    15     2     3    1
