@<TRIPOS>MOLECULE
/home/cewinharhar/GITHUB/reincatalyze/data/processed/docking_pred/2023-May-30-2130_sub9_nm5_bs15_s42_ex16_mel10_mts10000_k50_ec05_g099_lra3e-4_lrc3e-3/6e01533e6265e20f53eb8495178921d7241890ed_ligand_9.pdbqt
 14 15 0 0 0
SMALL
GASTEIGER

@<TRIPOS>ATOM
      1  C          5.5660    1.9150    1.2770 C.3     1  UNL1        0.0800
      2  C          5.1340    0.6970    2.0170 C.2     1  UNL1        0.1300
      3  C          6.0430   -0.4650    2.2060 C.3     1  UNL1        0.0870
      4  O          4.0130    0.6170    2.4920 O.2     1  UNL1       -0.3000
      5  C          5.4290    1.7270   -0.2210 C.3     1  UNL1        0.0430
      6  C          6.5900    1.0210   -0.7920 C.2     1  UNL1       -0.0440
      7  C          7.9000    1.4500   -0.5510 C.2     1  UNL1        0.0080
      8  C          6.3920   -0.0900   -1.5800 C.2     1  UNL1        0.0540
      9  C          8.9500    0.7470   -1.1130 C.2     1  UNL1        0.0510
     10  C          7.4570   -0.7980   -2.1450 C.2     1  UNL1        0.1660
     11  C          8.7470   -0.3760   -1.9100 C.2     1  UNL1        0.1650
     12  O          7.5210   -1.9140   -2.9520 O.2     1  UNL1       -0.4540
     13  O          9.5840   -1.2510   -2.5830 O.2     1  UNL1       -0.4540
     14  C          8.8530   -2.2950   -3.1820 C.3     1  UNL1        0.4680
@<TRIPOS>BOND
     1    14    12    1
     2    14    13    1
     3    12    10    1
     4    13    11    1
     5    10    11    2
     6    10     8    1
     7    11     9    1
     8     8     6    2
     9     9     7    2
    10     6     7    1
    11     6     5    1
    12     5     1    1
    13     1     2    1
    14     2     3    1
    15     2     4    2
