MODEL 1
REMARK VINA RESULT:      -7.6      0.000      0.000
REMARK SMILES CC(=O)CCc1ccc2c(c1)OCO2
REMARK SMILES IDX 4 1 2 2 1 3 3 4 5 5 6 6 7 7 11 8 8 9 10 10 9 11 12 12 14 13
REMARK SMILES IDX 13 14
REMARK H PARENT
REMARK Flexibility Score: inf
ROOT
ATOM      1  C   UNL     1       5.566   1.915   1.277  1.00  0.00     0.080 C 
ENDROOT
BRANCH   1   2
ATOM      2  C   UNL     1       5.134   0.697   2.017  1.00  0.00     0.130 C 
ATOM      3  C   UNL     1       6.043  -0.465   2.206  1.00  0.00     0.087 C 
ATOM      4  O   UNL     1       4.013   0.617   2.492  1.00  0.00    -0.300 OA
ENDBRANCH   1   2
BRANCH   1   5
ATOM      5  C   UNL     1       5.429   1.727  -0.221  1.00  0.00     0.043 C 
BRANCH   5   6
ATOM      6  C   UNL     1       6.590   1.021  -0.792  1.00  0.00    -0.044 A 
ATOM      7  C   UNL     1       7.900   1.450  -0.551  1.00  0.00     0.008 A 
ATOM      8  C   UNL     1       6.392  -0.090  -1.580  1.00  0.00     0.054 A 
ATOM      9  C   UNL     1       8.950   0.747  -1.113  1.00  0.00     0.051 A 
ATOM     10  C   UNL     1       7.457  -0.798  -2.145  1.00  0.00     0.166 A 
ATOM     11  C   UNL     1       8.747  -0.376  -1.910  1.00  0.00     0.165 A 
ATOM     12  O   UNL     1       7.521  -1.914  -2.952  1.00  0.00    -0.454 OA
ATOM     13  O   UNL     1       9.584  -1.251  -2.583  1.00  0.00    -0.454 OA
ATOM     14  C   UNL     1       8.853  -2.295  -3.182  1.00  0.00     0.468 C 
ENDBRANCH   5   6
ENDBRANCH   1   5
TORSDOF 3
ENDMDL
MODEL 2
REMARK VINA RESULT:      -7.4      1.947      2.431
REMARK SMILES CC(=O)CCc1ccc2c(c1)OCO2
REMARK SMILES IDX 4 1 2 2 1 3 3 4 5 5 6 6 7 7 11 8 8 9 10 10 9 11 12 12 14 13
REMARK SMILES IDX 13 14
REMARK H PARENT
REMARK Flexibility Score: inf
ROOT
ATOM      1  C   UNL     1       5.730   1.239  -0.322  1.00  0.00     0.080 C 
ENDROOT
BRANCH   1   2
ATOM      2  C   UNL     1       5.169   1.203   1.057  1.00  0.00     0.130 C 
ATOM      3  C   UNL     1       5.348   0.021   1.943  1.00  0.00     0.087 C 
ATOM      4  O   UNL     1       4.541   2.150   1.503  1.00  0.00    -0.300 OA
ENDBRANCH   1   2
BRANCH   1   5
ATOM      5  C   UNL     1       7.232   1.031  -0.311  1.00  0.00     0.043 C 
BRANCH   5   6
ATOM      6  C   UNL     1       7.608  -0.265  -0.903  1.00  0.00    -0.044 A 
ATOM      7  C   UNL     1       7.663  -0.450  -2.289  1.00  0.00     0.008 A 
ATOM      8  C   UNL     1       7.918  -1.326  -0.082  1.00  0.00     0.054 A 
ATOM      9  C   UNL     1       8.024  -1.689  -2.787  1.00  0.00     0.051 A 
ATOM     10  C   UNL     1       8.283  -2.576  -0.590  1.00  0.00     0.166 A 
ATOM     11  C   UNL     1       8.336  -2.759  -1.954  1.00  0.00     0.165 A 
ATOM     12  O   UNL     1       8.630  -3.769   0.008  1.00  0.00    -0.454 OA
ATOM     13  O   UNL     1       8.720  -4.074  -2.167  1.00  0.00    -0.454 OA
ATOM     14  C   UNL     1       9.004  -4.724  -0.952  1.00  0.00     0.468 C 
ENDBRANCH   5   6
ENDBRANCH   1   5
TORSDOF 3
ENDMDL
MODEL 3
REMARK VINA RESULT:      -7.2      2.048      2.627
REMARK SMILES CC(=O)CCc1ccc2c(c1)OCO2
REMARK SMILES IDX 4 1 2 2 1 3 3 4 5 5 6 6 7 7 11 8 8 9 10 10 9 11 12 12 14 13
REMARK SMILES IDX 13 14
REMARK H PARENT
REMARK Flexibility Score: inf
ROOT
ATOM      1  C   UNL     1       5.393  -0.081   2.012  1.00  0.00     0.080 C 
ENDROOT
BRANCH   1   2
ATOM      2  C   UNL     1       4.560   1.130   1.773  1.00  0.00     0.130 C 
ATOM      3  C   UNL     1       4.911   2.124   0.723  1.00  0.00     0.087 C 
ATOM      4  O   UNL     1       3.558   1.343   2.436  1.00  0.00    -0.300 OA
ENDBRANCH   1   2
BRANCH   1   5
ATOM      5  C   UNL     1       6.837   0.157   1.620  1.00  0.00     0.043 C 
BRANCH   5   6
ATOM      6  C   UNL     1       7.271  -0.756   0.548  1.00  0.00    -0.044 A 
ATOM      7  C   UNL     1       7.153  -0.409  -0.803  1.00  0.00     0.008 A 
ATOM      8  C   UNL     1       7.809  -1.981   0.872  1.00  0.00     0.054 A 
ATOM      9  C   UNL     1       7.577  -1.307  -1.765  1.00  0.00     0.051 A 
ATOM     10  C   UNL     1       8.237  -2.885  -0.105  1.00  0.00     0.166 A 
ATOM     11  C   UNL     1       8.120  -2.545  -1.435  1.00  0.00     0.165 A 
ATOM     12  O   UNL     1       8.796  -4.144  -0.041  1.00  0.00    -0.454 OA
ATOM     13  O   UNL     1       8.615  -3.613  -2.167  1.00  0.00    -0.454 OA
ATOM     14  C   UNL     1       9.138  -4.610  -1.321  1.00  0.00     0.468 C 
ENDBRANCH   5   6
ENDBRANCH   1   5
TORSDOF 3
ENDMDL
MODEL 4
REMARK VINA RESULT:      -7.1      1.245      1.445
REMARK SMILES CC(=O)CCc1ccc2c(c1)OCO2
REMARK SMILES IDX 4 1 2 2 1 3 3 4 5 5 6 6 7 7 11 8 8 9 10 10 9 11 12 12 14 13
REMARK SMILES IDX 13 14
REMARK H PARENT
REMARK Flexibility Score: inf
ROOT
ATOM      1  C   UNL     1       6.377   1.219   0.938  1.00  0.00     0.080 C 
ENDROOT
BRANCH   1   2
ATOM      2  C   UNL     1       5.650   0.389   1.938  1.00  0.00     0.130 C 
ATOM      3  C   UNL     1       6.255  -0.838   2.522  1.00  0.00     0.087 C 
ATOM      4  O   UNL     1       4.528   0.694   2.308  1.00  0.00    -0.300 OA
ENDBRANCH   1   2
BRANCH   1   5
ATOM      5  C   UNL     1       5.875   0.953  -0.468  1.00  0.00     0.043 C 
BRANCH   5   6
ATOM      6  C   UNL     1       6.818   0.121  -1.236  1.00  0.00    -0.044 A 
ATOM      7  C   UNL     1       7.503   0.625  -2.348  1.00  0.00     0.008 A 
ATOM      8  C   UNL     1       7.040  -1.184  -0.859  1.00  0.00     0.054 A 
ATOM      9  C   UNL     1       8.376  -0.203  -3.030  1.00  0.00     0.051 A 
ATOM     10  C   UNL     1       7.924  -2.017  -1.551  1.00  0.00     0.166 A 
ATOM     11  C   UNL     1       8.597  -1.522  -2.646  1.00  0.00     0.165 A 
ATOM     12  O   UNL     1       8.310  -3.329  -1.378  1.00  0.00    -0.454 OA
ATOM     13  O   UNL     1       9.392  -2.551  -3.127  1.00  0.00    -0.454 OA
ATOM     14  C   UNL     1       9.309  -3.687  -2.298  1.00  0.00     0.468 C 
ENDBRANCH   5   6
ENDBRANCH   1   5
TORSDOF 3
ENDMDL
MODEL 5
REMARK VINA RESULT:      -7.0      1.950      2.530
REMARK SMILES CC(=O)CCc1ccc2c(c1)OCO2
REMARK SMILES IDX 4 1 2 2 1 3 3 4 5 5 6 6 7 7 11 8 8 9 10 10 9 11 12 12 14 13
REMARK SMILES IDX 13 14
REMARK H PARENT
REMARK Flexibility Score: inf
ROOT
ATOM      1  C   UNL     1       6.968   0.941   1.237  1.00  0.00     0.080 C 
ENDROOT
BRANCH   1   2
ATOM      2  C   UNL     1       5.515   1.210   1.423  1.00  0.00     0.130 C 
ATOM      3  C   UNL     1       4.775   2.150   0.539  1.00  0.00     0.087 C 
ATOM      4  O   UNL     1       4.885   0.663   2.314  1.00  0.00    -0.300 OA
ENDBRANCH   1   2
BRANCH   1   5
ATOM      5  C   UNL     1       7.373   1.088  -0.216  1.00  0.00     0.043 C 
BRANCH   5   6
ATOM      6  C   UNL     1       7.679  -0.215  -0.833  1.00  0.00    -0.044 A 
ATOM      7  C   UNL     1       7.657  -0.392  -2.221  1.00  0.00     0.008 A 
ATOM      8  C   UNL     1       7.997  -1.290  -0.034  1.00  0.00     0.054 A 
ATOM      9  C   UNL     1       7.953  -1.638  -2.744  1.00  0.00     0.051 A 
ATOM     10  C   UNL     1       8.296  -2.547  -0.568  1.00  0.00     0.166 A 
ATOM     11  C   UNL     1       8.274  -2.723  -1.933  1.00  0.00     0.165 A 
ATOM     12  O   UNL     1       8.636  -3.754   0.006  1.00  0.00    -0.454 OA
ATOM     13  O   UNL     1       8.605  -4.047  -2.173  1.00  0.00    -0.454 OA
ATOM     14  C   UNL     1       8.931  -4.714  -0.977  1.00  0.00     0.468 C 
ENDBRANCH   5   6
ENDBRANCH   1   5
TORSDOF 3
ENDMDL
