@<TRIPOS>MOLECULE
/home/cewinharhar/GITHUB/reincatalyze/data/processed/docking_pred/2023-May-30-2130_sub9_nm5_bs15_s42_ex16_mel10_mts10000_k50_ec05_g099_lra3e-4_lrc3e-3/6e01533e6265e20f53eb8495178921d7241890ed_ligand_9.pdbqt
 14 15 0 0 0
SMALL
GASTEIGER

@<TRIPOS>ATOM
      1  C          5.7300    1.2390   -0.3220 C.3     1  UNL1        0.0800
      2  C          5.1690    1.2030    1.0570 C.2     1  UNL1        0.1300
      3  C          5.3480    0.0210    1.9430 C.3     1  UNL1        0.0870
      4  O          4.5410    2.1500    1.5030 O.2     1  UNL1       -0.3000
      5  C          7.2320    1.0310   -0.3110 C.3     1  UNL1        0.0430
      6  C          7.6080   -0.2650   -0.9030 C.2     1  UNL1       -0.0440
      7  C          7.6630   -0.4500   -2.2890 C.2     1  UNL1        0.0080
      8  C          7.9180   -1.3260   -0.0820 C.2     1  UNL1        0.0540
      9  C          8.0240   -1.6890   -2.7870 C.2     1  UNL1        0.0510
     10  C          8.2830   -2.5760   -0.5900 C.2     1  UNL1        0.1660
     11  C          8.3360   -2.7590   -1.9540 C.2     1  UNL1        0.1650
     12  O          8.6300   -3.7690    0.0080 O.2     1  UNL1       -0.4540
     13  O          8.7200   -4.0740   -2.1670 O.2     1  UNL1       -0.4540
     14  C          9.0040   -4.7240   -0.9520 C.3     1  UNL1        0.4680
@<TRIPOS>BOND
     1     9     7    1
     2     9    11    2
     3     7     6    2
     4    13    11    1
     5    13    14    1
     6    11    10    1
     7    14    12    1
     8     6     5    1
     9     6     8    1
    10    10     8    2
    11    10    12    1
    12     1     5    1
    13     1     2    1
    14     2     4    2
    15     2     3    1
