@<TRIPOS>MOLECULE
/home/cewinharhar/GITHUB/reincatalyze/data/processed/docking_pred/2023-May-30-2130_sub9_nm5_bs15_s42_ex16_mel10_mts10000_k50_ec05_g099_lra3e-4_lrc3e-3/6e01533e6265e20f53eb8495178921d7241890ed_ligand_9.pdbqt
 14 15 0 0 0
SMALL
GASTEIGER

@<TRIPOS>ATOM
      1  C          6.3770    1.2190    0.9380 C.3     1  UNL1        0.0800
      2  C          5.6500    0.3890    1.9380 C.2     1  UNL1        0.1300
      3  C          6.2550   -0.8380    2.5220 C.3     1  UNL1        0.0870
      4  O          4.5280    0.6940    2.3080 O.2     1  UNL1       -0.3000
      5  C          5.8750    0.9530   -0.4680 C.3     1  UNL1        0.0430
      6  C          6.8180    0.1210   -1.2360 C.2     1  UNL1       -0.0440
      7  C          7.5030    0.6250   -2.3480 C.2     1  UNL1        0.0080
      8  C          7.0400   -1.1840   -0.8590 C.2     1  UNL1        0.0540
      9  C          8.3760   -0.2030   -3.0300 C.2     1  UNL1        0.0510
     10  C          7.9240   -2.0170   -1.5510 C.2     1  UNL1        0.1660
     11  C          8.5970   -1.5220   -2.6460 C.2     1  UNL1        0.1650
     12  O          8.3100   -3.3290   -1.3780 O.2     1  UNL1       -0.4540
     13  O          9.3920   -2.5510   -3.1270 O.2     1  UNL1       -0.4540
     14  C          9.3090   -3.6870   -2.2980 C.3     1  UNL1        0.4680
@<TRIPOS>BOND
     1    13    11    1
     2    13    14    1
     3     9    11    2
     4     9     7    1
     5    11    10    1
     6     7     6    2
     7    14    12    1
     8    10    12    1
     9    10     8    2
    10     6     8    1
    11     6     5    1
    12     5     1    1
    13     1     2    1
    14     2     4    2
    15     2     3    1
