MODEL 1
REMARK VINA RESULT:      -7.7      0.000      0.000
REMARK SMILES CC(=O)CCc1ccc2c(c1)OCO2
REMARK SMILES IDX 4 1 2 2 1 3 3 4 5 5 6 6 7 7 11 8 8 9 10 10 9 11 12 12 14 13
REMARK SMILES IDX 13 14
REMARK H PARENT
REMARK Flexibility Score: inf
ROOT
ATOM      1  C   UNL     1       5.522   1.937   1.264  1.00  0.00     0.080 C 
ENDROOT
BRANCH   1   2
ATOM      2  C   UNL     1       5.089   0.721   2.007  1.00  0.00     0.130 C 
ATOM      3  C   UNL     1       5.990  -0.449   2.182  1.00  0.00     0.087 C 
ATOM      4  O   UNL     1       3.973   0.649   2.496  1.00  0.00    -0.300 OA
ENDBRANCH   1   2
BRANCH   1   5
ATOM      5  C   UNL     1       5.395   1.742  -0.234  1.00  0.00     0.043 C 
BRANCH   5   6
ATOM      6  C   UNL     1       6.563   1.039  -0.794  1.00  0.00    -0.044 A 
ATOM      7  C   UNL     1       7.869   1.471  -0.540  1.00  0.00     0.008 A 
ATOM      8  C   UNL     1       6.375  -0.072  -1.585  1.00  0.00     0.054 A 
ATOM      9  C   UNL     1       8.927   0.770  -1.092  1.00  0.00     0.051 A 
ATOM     10  C   UNL     1       7.447  -0.777  -2.141  1.00  0.00     0.166 A 
ATOM     11  C   UNL     1       8.734  -0.352  -1.892  1.00  0.00     0.165 A 
ATOM     12  O   UNL     1       7.522  -1.892  -2.948  1.00  0.00    -0.454 OA
ATOM     13  O   UNL     1       9.580  -1.225  -2.558  1.00  0.00    -0.454 OA
ATOM     14  C   UNL     1       8.857  -2.269  -3.165  1.00  0.00     0.468 C 
ENDBRANCH   5   6
ENDBRANCH   1   5
TORSDOF 3
ENDMDL
MODEL 2
REMARK VINA RESULT:      -7.4      1.940      2.394
REMARK SMILES CC(=O)CCc1ccc2c(c1)OCO2
REMARK SMILES IDX 4 1 2 2 1 3 3 4 5 5 6 6 7 7 11 8 8 9 10 10 9 11 12 12 14 13
REMARK SMILES IDX 13 14
REMARK H PARENT
REMARK Flexibility Score: inf
ROOT
ATOM      1  C   UNL     1       5.744   1.330  -0.278  1.00  0.00     0.080 C 
ENDROOT
BRANCH   1   2
ATOM      2  C   UNL     1       5.113   1.269   1.070  1.00  0.00     0.130 C 
ATOM      3  C   UNL     1       5.378   0.144   2.006  1.00  0.00     0.087 C 
ATOM      4  O   UNL     1       4.354   2.147   1.448  1.00  0.00    -0.300 OA
ENDBRANCH   1   2
BRANCH   1   5
ATOM      5  C   UNL     1       7.237   1.083  -0.198  1.00  0.00     0.043 C 
BRANCH   5   6
ATOM      6  C   UNL     1       7.612  -0.200  -0.818  1.00  0.00    -0.044 A 
ATOM      7  C   UNL     1       7.689  -0.349  -2.208  1.00  0.00     0.008 A 
ATOM      8  C   UNL     1       7.899  -1.285  -0.020  1.00  0.00     0.054 A 
ATOM      9  C   UNL     1       8.047  -1.577  -2.732  1.00  0.00     0.051 A 
ATOM     10  C   UNL     1       8.261  -2.524  -0.556  1.00  0.00     0.166 A 
ATOM     11  C   UNL     1       8.336  -2.672  -1.923  1.00  0.00     0.165 A 
ATOM     12  O   UNL     1       8.588  -3.736   0.016  1.00  0.00    -0.454 OA
ATOM     13  O   UNL     1       8.712  -3.984  -2.165  1.00  0.00    -0.454 OA
ATOM     14  C   UNL     1       8.970  -4.668  -0.962  1.00  0.00     0.468 C 
ENDBRANCH   5   6
ENDBRANCH   1   5
TORSDOF 3
ENDMDL
MODEL 3
REMARK VINA RESULT:      -7.2      2.067      2.632
REMARK SMILES CC(=O)CCc1ccc2c(c1)OCO2
REMARK SMILES IDX 4 1 2 2 1 3 3 4 5 5 6 6 7 7 11 8 8 9 10 10 9 11 12 12 14 13
REMARK SMILES IDX 13 14
REMARK H PARENT
REMARK Flexibility Score: inf
ROOT
ATOM      1  C   UNL     1       5.437  -0.037   1.992  1.00  0.00     0.080 C 
ENDROOT
BRANCH   1   2
ATOM      2  C   UNL     1       4.586   1.159   1.741  1.00  0.00     0.130 C 
ATOM      3  C   UNL     1       4.914   2.140   0.672  1.00  0.00     0.087 C 
ATOM      4  O   UNL     1       3.587   1.369   2.410  1.00  0.00    -0.300 OA
ENDBRANCH   1   2
BRANCH   1   5
ATOM      5  C   UNL     1       6.872   0.210   1.571  1.00  0.00     0.043 C 
BRANCH   5   6
ATOM      6  C   UNL     1       7.300  -0.724   0.515  1.00  0.00    -0.044 A 
ATOM      7  C   UNL     1       7.191  -0.397  -0.842  1.00  0.00     0.008 A 
ATOM      8  C   UNL     1       7.824  -1.949   0.859  1.00  0.00     0.054 A 
ATOM      9  C   UNL     1       7.610  -1.313  -1.789  1.00  0.00     0.051 A 
ATOM     10  C   UNL     1       8.247  -2.872  -0.103  1.00  0.00     0.166 A 
ATOM     11  C   UNL     1       8.138  -2.551  -1.438  1.00  0.00     0.165 A 
ATOM     12  O   UNL     1       8.792  -4.136  -0.017  1.00  0.00    -0.454 OA
ATOM     13  O   UNL     1       8.625  -3.635  -2.151  1.00  0.00    -0.454 OA
ATOM     14  C   UNL     1       9.134  -4.625  -1.288  1.00  0.00     0.468 C 
ENDBRANCH   5   6
ENDBRANCH   1   5
TORSDOF 3
ENDMDL
MODEL 4
REMARK VINA RESULT:      -7.1      1.255      1.469
REMARK SMILES CC(=O)CCc1ccc2c(c1)OCO2
REMARK SMILES IDX 4 1 2 2 1 3 3 4 5 5 6 6 7 7 11 8 8 9 10 10 9 11 12 12 14 13
REMARK SMILES IDX 13 14
REMARK H PARENT
REMARK Flexibility Score: inf
ROOT
ATOM      1  C   UNL     1       6.374   1.216   0.929  1.00  0.00     0.080 C 
ENDROOT
BRANCH   1   2
ATOM      2  C   UNL     1       5.660   0.389   1.941  1.00  0.00     0.130 C 
ATOM      3  C   UNL     1       6.279  -0.827   2.533  1.00  0.00     0.087 C 
ATOM      4  O   UNL     1       4.538   0.688   2.316  1.00  0.00    -0.300 OA
ENDBRANCH   1   2
BRANCH   1   5
ATOM      5  C   UNL     1       5.865   0.932  -0.471  1.00  0.00     0.043 C 
BRANCH   5   6
ATOM      6  C   UNL     1       6.814   0.108  -1.241  1.00  0.00    -0.044 A 
ATOM      7  C   UNL     1       7.499   0.620  -2.349  1.00  0.00     0.008 A 
ATOM      8  C   UNL     1       7.042  -1.197  -0.868  1.00  0.00     0.054 A 
ATOM      9  C   UNL     1       8.378  -0.200  -3.032  1.00  0.00     0.051 A 
ATOM     10  C   UNL     1       7.932  -2.023  -1.562  1.00  0.00     0.166 A 
ATOM     11  C   UNL     1       8.605  -1.520  -2.653  1.00  0.00     0.165 A 
ATOM     12  O   UNL     1       8.324  -3.333  -1.393  1.00  0.00    -0.454 OA
ATOM     13  O   UNL     1       9.406  -2.543  -3.136  1.00  0.00    -0.454 OA
ATOM     14  C   UNL     1       9.327  -3.682  -2.312  1.00  0.00     0.468 C 
ENDBRANCH   5   6
ENDBRANCH   1   5
TORSDOF 3
ENDMDL
MODEL 5
REMARK VINA RESULT:      -6.8      1.257      1.752
REMARK SMILES CC(=O)CCc1ccc2c(c1)OCO2
REMARK SMILES IDX 4 1 2 2 1 3 3 4 5 5 6 6 7 7 11 8 8 9 10 10 9 11 12 12 14 13
REMARK SMILES IDX 13 14
REMARK H PARENT
REMARK Flexibility Score: inf
ROOT
ATOM      1  C   UNL     1       5.321  -0.073   1.968  1.00  0.00     0.080 C 
ENDROOT
BRANCH   1   2
ATOM      2  C   UNL     1       4.441   1.115   1.787  1.00  0.00     0.130 C 
ATOM      3  C   UNL     1       4.729   2.150   0.758  1.00  0.00     0.087 C 
ATOM      4  O   UNL     1       3.452   1.275   2.484  1.00  0.00    -0.300 OA
ENDBRANCH   1   2
BRANCH   1   5
ATOM      5  C   UNL     1       6.786   0.312   1.906  1.00  0.00     0.043 C 
BRANCH   5   6
ATOM      6  C   UNL     1       7.388  -0.041   0.608  1.00  0.00    -0.044 A 
ATOM      7  C   UNL     1       7.885   0.938  -0.260  1.00  0.00     0.008 A 
ATOM      8  C   UNL     1       7.472  -1.362   0.231  1.00  0.00     0.054 A 
ATOM      9  C   UNL     1       8.441   0.548  -1.465  1.00  0.00     0.051 A 
ATOM     10  C   UNL     1       8.035  -1.752  -0.988  1.00  0.00     0.166 A 
ATOM     11  C   UNL     1       8.523  -0.789  -1.843  1.00  0.00     0.165 A 
ATOM     12  O   UNL     1       8.231  -2.980  -1.583  1.00  0.00    -0.454 OA
ATOM     13  O   UNL     1       9.015  -1.453  -2.956  1.00  0.00    -0.454 OA
ATOM     14  C   UNL     1       8.932  -2.849  -2.793  1.00  0.00     0.468 C 
ENDBRANCH   5   6
ENDBRANCH   1   5
TORSDOF 3
ENDMDL
