@<TRIPOS>MOLECULE
/home/cewinharhar/GITHUB/reincatalyze/data/processed/docking_pred/2023-May-30-2130_sub9_nm5_bs15_s42_ex16_mel10_mts10000_k50_ec05_g099_lra3e-4_lrc3e-3/6e6a373552f8835a6ba7a6c6fa001d8bbefa4498_ligand_9.pdbqt
 14 15 0 0 0
SMALL
GASTEIGER

@<TRIPOS>ATOM
      1  C          5.3210   -0.0730    1.9680 C.3     1  UNL1        0.0800
      2  C          4.4410    1.1150    1.7870 C.2     1  UNL1        0.1300
      3  C          4.7290    2.1500    0.7580 C.3     1  UNL1        0.0870
      4  O          3.4520    1.2750    2.4840 O.2     1  UNL1       -0.3000
      5  C          6.7860    0.3120    1.9060 C.3     1  UNL1        0.0430
      6  C          7.3880   -0.0410    0.6080 C.2     1  UNL1       -0.0440
      7  C          7.8850    0.9380   -0.2600 C.2     1  UNL1        0.0080
      8  C          7.4720   -1.3620    0.2310 C.2     1  UNL1        0.0540
      9  C          8.4410    0.5480   -1.4650 C.2     1  UNL1        0.0510
     10  C          8.0350   -1.7520   -0.9880 C.2     1  UNL1        0.1660
     11  C          8.5230   -0.7890   -1.8430 C.2     1  UNL1        0.1650
     12  O          8.2310   -2.9800   -1.5830 O.2     1  UNL1       -0.4540
     13  O          9.0150   -1.4530   -2.9560 O.2     1  UNL1       -0.4540
     14  C          8.9320   -2.8490   -2.7930 C.3     1  UNL1        0.4680
@<TRIPOS>BOND
     1    13    14    1
     2    13    11    1
     3    14    12    1
     4    11     9    2
     5    11    10    1
     6    12    10    1
     7     9     7    1
     8    10     8    2
     9     7     6    2
    10     8     6    1
    11     6     5    1
    12     3     2    1
    13     2     1    1
    14     2     4    2
    15     5     1    1
