@<TRIPOS>MOLECULE
/home/cewinharhar/GITHUB/reincatalyze/data/processed/docking_pred/2023-May-30-2130_sub9_nm5_bs15_s42_ex16_mel10_mts10000_k50_ec05_g099_lra3e-4_lrc3e-3/6e6a373552f8835a6ba7a6c6fa001d8bbefa4498_ligand_9.pdbqt
 14 15 0 0 0
SMALL
GASTEIGER

@<TRIPOS>ATOM
      1  C          6.3740    1.2160    0.9290 C.3     1  UNL1        0.0800
      2  C          5.6600    0.3890    1.9410 C.2     1  UNL1        0.1300
      3  C          6.2790   -0.8270    2.5330 C.3     1  UNL1        0.0870
      4  O          4.5380    0.6880    2.3160 O.2     1  UNL1       -0.3000
      5  C          5.8650    0.9320   -0.4710 C.3     1  UNL1        0.0430
      6  C          6.8140    0.1080   -1.2410 C.2     1  UNL1       -0.0440
      7  C          7.4990    0.6200   -2.3490 C.2     1  UNL1        0.0080
      8  C          7.0420   -1.1970   -0.8680 C.2     1  UNL1        0.0540
      9  C          8.3780   -0.2000   -3.0320 C.2     1  UNL1        0.0510
     10  C          7.9320   -2.0230   -1.5620 C.2     1  UNL1        0.1660
     11  C          8.6050   -1.5200   -2.6530 C.2     1  UNL1        0.1650
     12  O          8.3240   -3.3330   -1.3930 O.2     1  UNL1       -0.4540
     13  O          9.4060   -2.5430   -3.1360 O.2     1  UNL1       -0.4540
     14  C          9.3270   -3.6820   -2.3120 C.3     1  UNL1        0.4680
@<TRIPOS>BOND
     1    13    11    1
     2    13    14    1
     3     9    11    2
     4     9     7    1
     5    11    10    1
     6     7     6    2
     7    14    12    1
     8    10    12    1
     9    10     8    2
    10     6     8    1
    11     6     5    1
    12     5     1    1
    13     1     2    1
    14     2     4    2
    15     2     3    1
