@<TRIPOS>MOLECULE
/home/cewinharhar/GITHUB/reincatalyze/data/processed/docking_pred/2023-May-30-2130_sub9_nm5_bs15_s42_ex16_mel10_mts10000_k50_ec05_g099_lra3e-4_lrc3e-3/6e6a373552f8835a6ba7a6c6fa001d8bbefa4498_ligand_9.pdbqt
 14 15 0 0 0
SMALL
GASTEIGER

@<TRIPOS>ATOM
      1  C          5.4370   -0.0370    1.9920 C.3     1  UNL1        0.0800
      2  C          4.5860    1.1590    1.7410 C.2     1  UNL1        0.1300
      3  C          4.9140    2.1400    0.6720 C.3     1  UNL1        0.0870
      4  O          3.5870    1.3690    2.4100 O.2     1  UNL1       -0.3000
      5  C          6.8720    0.2100    1.5710 C.3     1  UNL1        0.0430
      6  C          7.3000   -0.7240    0.5150 C.2     1  UNL1       -0.0440
      7  C          7.1910   -0.3970   -0.8420 C.2     1  UNL1        0.0080
      8  C          7.8240   -1.9490    0.8590 C.2     1  UNL1        0.0540
      9  C          7.6100   -1.3130   -1.7890 C.2     1  UNL1        0.0510
     10  C          8.2470   -2.8720   -0.1030 C.2     1  UNL1        0.1660
     11  C          8.1380   -2.5510   -1.4380 C.2     1  UNL1        0.1650
     12  O          8.7920   -4.1360   -0.0170 O.2     1  UNL1       -0.4540
     13  O          8.6250   -3.6350   -2.1510 O.2     1  UNL1       -0.4540
     14  C          9.1340   -4.6250   -1.2880 C.3     1  UNL1        0.4680
@<TRIPOS>BOND
     1    13    11    1
     2    13    14    1
     3     9    11    2
     4     9     7    1
     5    11    10    1
     6    14    12    1
     7     7     6    2
     8    10    12    1
     9    10     8    2
    10     6     8    1
    11     6     5    1
    12     3     2    1
    13     5     1    1
    14     2     1    1
    15     2     4    2
