@<TRIPOS>MOLECULE
/home/cewinharhar/GITHUB/reincatalyze/data/processed/docking_pred/2023-May-30-2130_sub9_nm5_bs15_s42_ex16_mel10_mts10000_k50_ec05_g099_lra3e-4_lrc3e-3/6eca206a948153dc2868ed9d680cd756ab453321_ligand_9.pdbqt
 14 15 0 0 0
SMALL
GASTEIGER

@<TRIPOS>ATOM
      1  C          5.5440    1.9100    1.2780 C.3     1  UNL1        0.0800
      2  C          5.1130    0.6880    2.0120 C.2     1  UNL1        0.1300
      3  C          6.0170   -0.4810    2.1810 C.3     1  UNL1        0.0870
      4  O          3.9960    0.6100    2.4990 O.2     1  UNL1       -0.3000
      5  C          5.4140    1.7270   -0.2210 C.3     1  UNL1        0.0430
      6  C          6.5780    1.0230   -0.7880 C.2     1  UNL1       -0.0440
      7  C          7.8870    1.4510   -0.5380 C.2     1  UNL1        0.0080
      8  C          6.3850   -0.0850   -1.5820 C.2     1  UNL1        0.0540
      9  C          8.9410    0.7500   -1.0960 C.2     1  UNL1        0.0510
     10  C          7.4540   -0.7900   -2.1440 C.2     1  UNL1        0.1660
     11  C          8.7420   -0.3690   -1.8990 C.2     1  UNL1        0.1650
     12  O          7.5230   -1.9030   -2.9550 O.2     1  UNL1       -0.4540
     13  O          9.5840   -1.2410   -2.5710 O.2     1  UNL1       -0.4540
     14  C          8.8560   -2.2820   -3.1790 C.3     1  UNL1        0.4680
@<TRIPOS>BOND
     1    14    12    1
     2    14    13    1
     3    12    10    1
     4    13    11    1
     5    10    11    2
     6    10     8    1
     7    11     9    1
     8     8     6    2
     9     9     7    2
    10     6     7    1
    11     6     5    1
    12     5     1    1
    13     1     2    1
    14     2     3    1
    15     2     4    2
