@<TRIPOS>MOLECULE
/home/cewinharhar/GITHUB/reincatalyze/data/processed/docking_pred/2023-May-30-2130_sub9_nm5_bs15_s42_ex16_mel10_mts10000_k50_ec05_g099_lra3e-4_lrc3e-3/6eca206a948153dc2868ed9d680cd756ab453321_ligand_9.pdbqt
 14 15 0 0 0
SMALL
GASTEIGER

@<TRIPOS>ATOM
      1  C          5.6570    0.0360    1.9150 C.3     1  UNL1        0.0800
      2  C          4.7240    1.1520    1.5940 C.2     1  UNL1        0.1300
      3  C          4.9810    2.0820    0.4620 C.3     1  UNL1        0.0870
      4  O          3.7160    1.3360    2.2550 O.2     1  UNL1       -0.3000
      5  C          7.0470    0.3080    1.3750 C.3     1  UNL1        0.0430
      6  C          7.4320   -0.6680    0.3400 C.2     1  UNL1       -0.0440
      7  C          7.3150   -0.3740   -1.0240 C.2     1  UNL1        0.0080
      8  C          7.9200   -1.9000    0.7110 C.2     1  UNL1        0.0540
      9  C          7.6920   -1.3290   -1.9510 C.2     1  UNL1        0.0510
     10  C          8.3000   -2.8620   -0.2300 C.2     1  UNL1        0.1660
     11  C          8.1850   -2.5730   -1.5720 C.2     1  UNL1        0.1650
     12  O          8.8060   -4.1390   -0.1160 O.2     1  UNL1       -0.4540
     13  O          8.6280   -3.6910   -2.2610 O.2     1  UNL1       -0.4540
     14  C          9.1160   -4.6730   -1.3780 C.3     1  UNL1        0.4680
@<TRIPOS>BOND
     1    13    11    1
     2    13    14    1
     3     9    11    2
     4     9     7    1
     5    11    10    1
     6    14    12    1
     7     7     6    2
     8    10    12    1
     9    10     8    2
    10     6     8    1
    11     6     5    1
    12     3     2    1
    13     5     1    1
    14     2     1    1
    15     2     4    2
