@<TRIPOS>MOLECULE
/home/cewinharhar/GITHUB/reincatalyze/data/processed/docking_pred/2023-May-30-2130_sub9_nm5_bs15_s42_ex16_mel10_mts10000_k50_ec05_g099_lra3e-4_lrc3e-3/6eca206a948153dc2868ed9d680cd756ab453321_ligand_9.pdbqt
 14 15 0 0 0
SMALL
GASTEIGER

@<TRIPOS>ATOM
      1  C          8.2850    0.1680   -2.7130 C.3     1  UNL1        0.0800
      2  C          8.0210   -1.2980   -2.7650 C.2     1  UNL1        0.1300
      3  C          9.1100   -2.2780   -3.0230 C.3     1  UNL1        0.0870
      4  O          6.8960   -1.7380   -2.5970 O.2     1  UNL1       -0.3000
      5  C          8.8210    0.5820   -1.3570 C.3     1  UNL1        0.0430
      6  C          7.8060    0.4340   -0.2990 C.2     1  UNL1       -0.0440
      7  C          7.9400   -0.5200    0.7170 C.2     1  UNL1        0.0080
      8  C          6.6970    1.2490   -0.2990 C.2     1  UNL1        0.0540
      9  C          6.9550   -0.6120    1.6840 C.2     1  UNL1        0.0510
     10  C          5.7050    1.1520    0.6820 C.2     1  UNL1        0.1660
     11  C          5.8350    0.2130    1.6810 C.2     1  UNL1        0.1650
     12  O          4.5270    1.8350    0.8970 O.2     1  UNL1       -0.4540
     13  O          4.7230    0.3420    2.4980 O.2     1  UNL1       -0.4540
     14  C          3.9140    1.4180    2.0900 C.3     1  UNL1        0.4680
@<TRIPOS>BOND
     1     3     2    1
     2     2     1    1
     3     2     4    2
     4     1     5    1
     5     5     6    1
     6     6     8    2
     7     6     7    1
     8     8    10    1
     9    10    12    1
    10    10    11    2
    11     7     9    2
    12    12    14    1
    13    11     9    1
    14    11    13    1
    15    14    13    1
