@<TRIPOS>MOLECULE
/home/cewinharhar/GITHUB/reincatalyze/data/processed/docking_pred/2023-May-30-2130_sub9_nm5_bs15_s42_ex16_mel10_mts10000_k50_ec05_g099_lra3e-4_lrc3e-3/7076afde4386affa59e586c5ec9b2181426a643f_ligand_9.pdbqt
 14 15 0 0 0
SMALL
GASTEIGER

@<TRIPOS>ATOM
      1  C          6.8800    0.7980    1.1850 C.3     1  UNL1        0.0800
      2  C          5.4350    1.0980    1.3880 C.2     1  UNL1        0.1300
      3  C          4.7270    2.1170    0.5670 C.3     1  UNL1        0.0870
      4  O          4.7880    0.5140    2.2410 O.2     1  UNL1       -0.3000
      5  C          7.2810    0.9780   -0.2660 C.3     1  UNL1        0.0430
      6  C          7.7030   -0.2950   -0.8780 C.2     1  UNL1       -0.0440
      7  C          7.9260   -0.4070   -2.2550 C.2     1  UNL1        0.0080
      8  C          7.8870   -1.4050   -0.0860 C.2     1  UNL1        0.0540
      9  C          8.3220   -1.6260   -2.7740 C.2     1  UNL1        0.0510
     10  C          8.2870   -2.6360   -0.6150 C.2     1  UNL1        0.1660
     11  C          8.5060   -2.7470   -1.9700 C.2     1  UNL1        0.1650
     12  O          8.5340   -3.8670   -0.0460 O.2     1  UNL1       -0.4540
     13  O          8.8870   -4.0580   -2.2080 O.2     1  UNL1       -0.4540
     14  C          9.0060   -4.7790   -1.0040 C.3     1  UNL1        0.4680
@<TRIPOS>BOND
     1     9     7    1
     2     9    11    2
     3     7     6    2
     4    13    11    1
     5    13    14    1
     6    11    10    1
     7    14    12    1
     8     6     5    1
     9     6     8    1
    10    10     8    2
    11    10    12    1
    12     5     1    1
    13     3     2    1
    14     1     2    1
    15     2     4    2
