@<TRIPOS>MOLECULE
/home/cewinharhar/GITHUB/reincatalyze/data/processed/docking_pred/2023-May-30-2130_sub9_nm5_bs15_s42_ex16_mel10_mts10000_k50_ec05_g099_lra3e-4_lrc3e-3/7473f82790d6809f011fa27bf7bcba9a4b9bdb46_ligand_9.pdbqt
 14 15 0 0 0
SMALL
GASTEIGER

@<TRIPOS>ATOM
      1  C          5.5500    1.8900    1.2820 C.3     1  UNL1        0.0800
      2  C          5.1150    0.6710    2.0200 C.2     1  UNL1        0.1300
      3  C          6.0060   -0.5110    2.1700 C.3     1  UNL1        0.0870
      4  O          4.0050    0.6060    2.5240 O.2     1  UNL1       -0.3000
      5  C          5.4160    1.7040   -0.2160 C.3     1  UNL1        0.0430
      6  C          6.5820    1.0080   -0.7870 C.2     1  UNL1       -0.0440
      7  C          7.8890    1.4430   -0.5400 C.2     1  UNL1        0.0080
      8  C          6.3940   -0.1000   -1.5820 C.2     1  UNL1        0.0540
      9  C          8.9460    0.7500   -1.1020 C.2     1  UNL1        0.0510
     10  C          7.4650   -0.7980   -2.1480 C.2     1  UNL1        0.1660
     11  C          8.7520   -0.3690   -1.9060 C.2     1  UNL1        0.1650
     12  O          7.5380   -1.9090   -2.9600 O.2     1  UNL1       -0.4540
     13  O          9.5970   -1.2360   -2.5820 O.2     1  UNL1       -0.4540
     14  C          8.8740   -2.2800   -3.1890 C.3     1  UNL1        0.4680
@<TRIPOS>BOND
     1    14    12    1
     2    14    13    1
     3    12    10    1
     4    13    11    1
     5    10    11    2
     6    10     8    1
     7    11     9    1
     8     8     6    2
     9     9     7    2
    10     6     7    1
    11     6     5    1
    12     5     1    1
    13     1     2    1
    14     2     3    1
    15     2     4    2
