@<TRIPOS>MOLECULE
/home/cewinharhar/GITHUB/reincatalyze/data/processed/docking_pred/2023-May-30-2130_sub9_nm5_bs15_s42_ex16_mel10_mts10000_k50_ec05_g099_lra3e-4_lrc3e-3/7473f82790d6809f011fa27bf7bcba9a4b9bdb46_ligand_9.pdbqt
 14 15 0 0 0
SMALL
GASTEIGER

@<TRIPOS>ATOM
      1  C          8.3170    0.2560   -2.5360 C.3     1  UNL1        0.0800
      2  C          8.0180   -1.1960   -2.6840 C.2     1  UNL1        0.1300
      3  C          9.0830   -2.1840   -3.0010 C.3     1  UNL1        0.0870
      4  O          6.8810   -1.6180   -2.5490 O.2     1  UNL1       -0.3000
      5  C          8.8020    0.5780   -1.1360 C.3     1  UNL1        0.0430
      6  C          7.7310    0.4170   -0.1360 C.2     1  UNL1       -0.0440
      7  C          7.7590   -0.6160    0.8070 C.2     1  UNL1        0.0080
      8  C          6.6760    1.3000   -0.1190 C.2     1  UNL1        0.0540
      9  C          6.7270   -0.7170    1.7220 C.2     1  UNL1        0.0510
     10  C          5.6350    1.1940    0.8080 C.2     1  UNL1        0.1660
     11  C          5.6610    0.1770    1.7360 C.2     1  UNL1        0.1650
     12  O          4.4920    1.9330    1.0260 O.2     1  UNL1       -0.4540
     13  O          4.5220    0.3150    2.5140 O.2     1  UNL1       -0.4540
     14  C          3.7990    1.4690    2.1570 C.3     1  UNL1        0.4680
@<TRIPOS>BOND
     1     3     2    1
     2     2     4    2
     3     2     1    1
     4     1     5    1
     5     5     6    1
     6     6     8    2
     7     6     7    1
     8     8    10    1
     9     7     9    2
    10    10    12    1
    11    10    11    2
    12    12    14    1
    13     9    11    1
    14    11    13    1
    15    14    13    1
