@<TRIPOS>MOLECULE
/home/cewinharhar/GITHUB/reincatalyze/data/processed/docking_pred/2023-May-30-2130_sub9_nm5_bs15_s42_ex16_mel10_mts10000_k50_ec05_g099_lra3e-4_lrc3e-3/7473f82790d6809f011fa27bf7bcba9a4b9bdb46_ligand_9.pdbqt
 14 15 0 0 0
SMALL
GASTEIGER

@<TRIPOS>ATOM
      1  C          5.3790   -0.0780    2.0350 C.3     1  UNL1        0.0800
      2  C          4.5350    1.1210    1.7730 C.2     1  UNL1        0.1300
      3  C          4.8830    2.1040    0.7120 C.3     1  UNL1        0.0870
      4  O          3.5280    1.3340    2.4280 O.2     1  UNL1       -0.3000
      5  C          6.8220    0.1660    1.6400 C.3     1  UNL1        0.0430
      6  C          7.2580   -0.7460    0.5680 C.2     1  UNL1       -0.0440
      7  C          7.1370   -0.4000   -0.7830 C.2     1  UNL1        0.0080
      8  C          7.8000   -1.9690    0.8920 C.2     1  UNL1        0.0540
      9  C          7.5640   -1.2970   -1.7450 C.2     1  UNL1        0.0510
     10  C          8.2310   -2.8710   -0.0850 C.2     1  UNL1        0.1660
     11  C          8.1110   -2.5320   -1.4150 C.2     1  UNL1        0.1650
     12  O          8.7950   -4.1280   -0.0210 O.2     1  UNL1       -0.4540
     13  O          8.6100   -3.5990   -2.1470 O.2     1  UNL1       -0.4540
     14  C          9.1370   -4.5930   -1.3010 C.3     1  UNL1        0.4680
@<TRIPOS>BOND
     1    13    11    1
     2    13    14    1
     3     9    11    2
     4     9     7    1
     5    11    10    1
     6    14    12    1
     7     7     6    2
     8    10    12    1
     9    10     8    2
    10     6     8    1
    11     6     5    1
    12     3     2    1
    13     5     1    1
    14     2     1    1
    15     2     4    2
