@<TRIPOS>MOLECULE
/home/cewinharhar/GITHUB/reincatalyze/data/processed/docking_pred/2023-May-30-2130_sub9_nm5_bs15_s42_ex16_mel10_mts10000_k50_ec05_g099_lra3e-4_lrc3e-3/7473f82790d6809f011fa27bf7bcba9a4b9bdb46_ligand_9.pdbqt
 14 15 0 0 0
SMALL
GASTEIGER

@<TRIPOS>ATOM
      1  C          6.3530    1.2410    0.8820 C.3     1  UNL1        0.0800
      2  C          5.6690    0.4130    1.9150 C.2     1  UNL1        0.1300
      3  C          6.3070   -0.8000    2.4920 C.3     1  UNL1        0.0870
      4  O          4.5560    0.7090    2.3180 O.2     1  UNL1       -0.3000
      5  C          5.8380    0.9240   -0.5080 C.3     1  UNL1        0.0430
      6  C          6.7990    0.1110   -1.2740 C.2     1  UNL1       -0.0440
      7  C          7.5090    0.6430   -2.3570 C.2     1  UNL1        0.0080
      8  C          7.0130   -1.2030   -0.9240 C.2     1  UNL1        0.0540
      9  C          8.3980   -0.1680   -3.0390 C.2     1  UNL1        0.0510
     10  C          7.9140   -2.0180   -1.6170 C.2     1  UNL1        0.1660
     11  C          8.6120   -1.4960   -2.6830 C.2     1  UNL1        0.1650
     12  O          8.2960   -3.3340   -1.4670 O.2     1  UNL1       -0.4540
     13  O          9.4180   -2.5130   -3.1700 O.2     1  UNL1       -0.4540
     14  C          9.3170   -3.6680   -2.3720 C.3     1  UNL1        0.4680
@<TRIPOS>BOND
     1    13    11    1
     2    13    14    1
     3     9    11    2
     4     9     7    1
     5    11    10    1
     6    14    12    1
     7     7     6    2
     8    10    12    1
     9    10     8    2
    10     6     8    1
    11     6     5    1
    12     5     1    1
    13     1     2    1
    14     2     4    2
    15     2     3    1
