@<TRIPOS>MOLECULE
/home/cewinharhar/GITHUB/reincatalyze/data/processed/docking_pred/2023-May-30-2130_sub9_nm5_bs15_s42_ex16_mel10_mts10000_k50_ec05_g099_lra3e-4_lrc3e-3/75c2fe2ac53d5929397b74f353fbac8502bfb47d_ligand_9.pdbqt
 14 15 0 0 0
SMALL
GASTEIGER

@<TRIPOS>ATOM
      1  C          6.8140    0.7660    1.3810 C.3     1  UNL1        0.0800
      2  C          5.3710    1.1220    1.4900 C.2     1  UNL1        0.1300
      3  C          4.7520    2.1500    0.6100 C.3     1  UNL1        0.0870
      4  O          4.6520    0.5770    2.3100 O.2     1  UNL1       -0.3000
      5  C          7.3290    0.9820   -0.0280 C.3     1  UNL1        0.0430
      6  C          7.6470   -0.2930   -0.6950 C.2     1  UNL1       -0.0440
      7  C          7.6140   -0.4200   -2.0890 C.2     1  UNL1        0.0080
      8  C          7.9870   -1.3920    0.0610 C.2     1  UNL1        0.0540
      9  C          7.9230   -1.6420   -2.6590 C.2     1  UNL1        0.0510
     10  C          8.2990   -2.6250   -0.5210 C.2     1  UNL1        0.1660
     11  C          8.2660   -2.7510   -1.8920 C.2     1  UNL1        0.1650
     12  O          8.6610   -3.8470    0.0050 O.2     1  UNL1       -0.4540
     13  O          8.6140   -4.0610   -2.1820 O.2     1  UNL1       -0.4540
     14  C          8.9600   -4.7660   -1.0140 C.3     1  UNL1        0.4680
@<TRIPOS>BOND
     1     9     7    1
     2     9    11    2
     3    13    11    1
     4    13    14    1
     5     7     6    2
     6    11    10    1
     7    14    12    1
     8     6     5    1
     9     6     8    1
    10    10    12    1
    11    10     8    2
    12     5     1    1
    13     3     2    1
    14     1     2    1
    15     2     4    2
