@<TRIPOS>MOLECULE
/home/cewinharhar/GITHUB/reincatalyze/data/processed/docking_pred/2023-May-30-2130_sub9_nm5_bs15_s42_ex16_mel10_mts10000_k50_ec05_g099_lra3e-4_lrc3e-3/75c2fe2ac53d5929397b74f353fbac8502bfb47d_ligand_9.pdbqt
 14 15 0 0 0
SMALL
GASTEIGER

@<TRIPOS>ATOM
      1  C          5.5390    1.9090    1.2840 C.3     1  UNL1        0.0800
      2  C          5.1140    0.6850    2.0180 C.2     1  UNL1        0.1300
      3  C          6.0210   -0.4830    2.1800 C.3     1  UNL1        0.0870
      4  O          4.0000    0.6050    2.5110 O.2     1  UNL1       -0.3000
      5  C          5.4080    1.7250   -0.2150 C.3     1  UNL1        0.0430
      6  C          6.5740    1.0250   -0.7830 C.2     1  UNL1       -0.0440
      7  C          7.8820    1.4520   -0.5290 C.2     1  UNL1        0.0080
      8  C          6.3830   -0.0800   -1.5820 C.2     1  UNL1        0.0540
      9  C          8.9370    0.7550   -1.0880 C.2     1  UNL1        0.0510
     10  C          7.4530   -0.7820   -2.1450 C.2     1  UNL1        0.1660
     11  C          8.7400   -0.3610   -1.8960 C.2     1  UNL1        0.1650
     12  O          7.5240   -1.8910   -2.9610 O.2     1  UNL1       -0.4540
     13  O          9.5840   -1.2300   -2.5700 O.2     1  UNL1       -0.4540
     14  C          8.8580   -2.2690   -3.1840 C.3     1  UNL1        0.4680
@<TRIPOS>BOND
     1    14    12    1
     2    14    13    1
     3    12    10    1
     4    13    11    1
     5    10    11    2
     6    10     8    1
     7    11     9    1
     8     8     6    2
     9     9     7    2
    10     6     7    1
    11     6     5    1
    12     5     1    1
    13     1     2    1
    14     2     3    1
    15     2     4    2
