MODEL 1
REMARK VINA RESULT:      -7.6      0.000      0.000
REMARK SMILES CC(=O)CCc1ccc2c(c1)OCO2
REMARK SMILES IDX 4 1 2 2 1 3 3 4 5 5 6 6 7 7 11 8 8 9 10 10 9 11 12 12 14 13
REMARK SMILES IDX 13 14
REMARK H PARENT
REMARK Flexibility Score: inf
ROOT
ATOM      1  C   UNL     1       5.539   1.909   1.284  1.00  0.00     0.080 C 
ENDROOT
BRANCH   1   2
ATOM      2  C   UNL     1       5.114   0.685   2.018  1.00  0.00     0.130 C 
ATOM      3  C   UNL     1       6.021  -0.483   2.180  1.00  0.00     0.087 C 
ATOM      4  O   UNL     1       4.000   0.605   2.511  1.00  0.00    -0.300 OA
ENDBRANCH   1   2
BRANCH   1   5
ATOM      5  C   UNL     1       5.408   1.725  -0.215  1.00  0.00     0.043 C 
BRANCH   5   6
ATOM      6  C   UNL     1       6.574   1.025  -0.783  1.00  0.00    -0.044 A 
ATOM      7  C   UNL     1       7.882   1.452  -0.529  1.00  0.00     0.008 A 
ATOM      8  C   UNL     1       6.383  -0.080  -1.582  1.00  0.00     0.054 A 
ATOM      9  C   UNL     1       8.937   0.755  -1.088  1.00  0.00     0.051 A 
ATOM     10  C   UNL     1       7.453  -0.782  -2.145  1.00  0.00     0.166 A 
ATOM     11  C   UNL     1       8.740  -0.361  -1.896  1.00  0.00     0.165 A 
ATOM     12  O   UNL     1       7.524  -1.891  -2.961  1.00  0.00    -0.454 OA
ATOM     13  O   UNL     1       9.584  -1.230  -2.570  1.00  0.00    -0.454 OA
ATOM     14  C   UNL     1       8.858  -2.269  -3.184  1.00  0.00     0.468 C 
ENDBRANCH   5   6
ENDBRANCH   1   5
TORSDOF 3
ENDMDL
MODEL 2
REMARK VINA RESULT:      -7.4      1.930      2.385
REMARK SMILES CC(=O)CCc1ccc2c(c1)OCO2
REMARK SMILES IDX 4 1 2 2 1 3 3 4 5 5 6 6 7 7 11 8 8 9 10 10 9 11 12 12 14 13
REMARK SMILES IDX 13 14
REMARK H PARENT
REMARK Flexibility Score: inf
ROOT
ATOM      1  C   UNL     1       5.808   1.402  -0.253  1.00  0.00     0.080 C 
ENDROOT
BRANCH   1   2
ATOM      2  C   UNL     1       5.154   1.271   1.079  1.00  0.00     0.130 C 
ATOM      3  C   UNL     1       5.361   0.072   1.935  1.00  0.00     0.087 C 
ATOM      4  O   UNL     1       4.425   2.150   1.509  1.00  0.00    -0.300 OA
ENDBRANCH   1   2
BRANCH   1   5
ATOM      5  C   UNL     1       7.294   1.114  -0.168  1.00  0.00     0.043 C 
BRANCH   5   6
ATOM      6  C   UNL     1       7.638  -0.171  -0.802  1.00  0.00    -0.044 A 
ATOM      7  C   UNL     1       7.664  -0.319  -2.193  1.00  0.00     0.008 A 
ATOM      8  C   UNL     1       7.945  -1.258  -0.015  1.00  0.00     0.054 A 
ATOM      9  C   UNL     1       7.995  -1.549  -2.731  1.00  0.00     0.051 A 
ATOM     10  C   UNL     1       8.280  -2.500  -0.564  1.00  0.00     0.166 A 
ATOM     11  C   UNL     1       8.305  -2.646  -1.934  1.00  0.00     0.165 A 
ATOM     12  O   UNL     1       8.619  -3.714  -0.006  1.00  0.00    -0.454 OA
ATOM     13  O   UNL     1       8.663  -3.961  -2.190  1.00  0.00    -0.454 OA
ATOM     14  C   UNL     1       8.960  -4.648  -0.997  1.00  0.00     0.468 C 
ENDBRANCH   5   6
ENDBRANCH   1   5
TORSDOF 3
ENDMDL
MODEL 3
REMARK VINA RESULT:      -7.2      2.055      2.634
REMARK SMILES CC(=O)CCc1ccc2c(c1)OCO2
REMARK SMILES IDX 4 1 2 2 1 3 3 4 5 5 6 6 7 7 11 8 8 9 10 10 9 11 12 12 14 13
REMARK SMILES IDX 13 14
REMARK H PARENT
REMARK Flexibility Score: inf
ROOT
ATOM      1  C   UNL     1       5.383  -0.081   2.028  1.00  0.00     0.080 C 
ENDROOT
BRANCH   1   2
ATOM      2  C   UNL     1       4.539   1.120   1.772  1.00  0.00     0.130 C 
ATOM      3  C   UNL     1       4.891   2.111   0.721  1.00  0.00     0.087 C 
ATOM      4  O   UNL     1       3.528   1.326   2.424  1.00  0.00    -0.300 OA
ENDBRANCH   1   2
BRANCH   1   5
ATOM      5  C   UNL     1       6.825   0.165   1.634  1.00  0.00     0.043 C 
BRANCH   5   6
ATOM      6  C   UNL     1       7.263  -0.748   0.562  1.00  0.00    -0.044 A 
ATOM      7  C   UNL     1       7.146  -0.401  -0.789  1.00  0.00     0.008 A 
ATOM      8  C   UNL     1       7.802  -1.971   0.887  1.00  0.00     0.054 A 
ATOM      9  C   UNL     1       7.573  -1.298  -1.751  1.00  0.00     0.051 A 
ATOM     10  C   UNL     1       8.234  -2.874  -0.089  1.00  0.00     0.166 A 
ATOM     11  C   UNL     1       8.118  -2.535  -1.419  1.00  0.00     0.165 A 
ATOM     12  O   UNL     1       8.795  -4.132  -0.024  1.00  0.00    -0.454 OA
ATOM     13  O   UNL     1       8.617  -3.602  -2.150  1.00  0.00    -0.454 OA
ATOM     14  C   UNL     1       9.140  -4.598  -1.303  1.00  0.00     0.468 C 
ENDBRANCH   5   6
ENDBRANCH   1   5
TORSDOF 3
ENDMDL
MODEL 4
REMARK VINA RESULT:      -7.1      1.241      1.444
REMARK SMILES CC(=O)CCc1ccc2c(c1)OCO2
REMARK SMILES IDX 4 1 2 2 1 3 3 4 5 5 6 6 7 7 11 8 8 9 10 10 9 11 12 12 14 13
REMARK SMILES IDX 13 14
REMARK H PARENT
REMARK Flexibility Score: inf
ROOT
ATOM      1  C   UNL     1       6.341   1.233   0.920  1.00  0.00     0.080 C 
ENDROOT
BRANCH   1   2
ATOM      2  C   UNL     1       5.644   0.398   1.937  1.00  0.00     0.130 C 
ATOM      3  C   UNL     1       6.278  -0.816   2.518  1.00  0.00     0.087 C 
ATOM      4  O   UNL     1       4.524   0.687   2.326  1.00  0.00    -0.300 OA
ENDBRANCH   1   2
BRANCH   1   5
ATOM      5  C   UNL     1       5.831   0.939  -0.477  1.00  0.00     0.043 C 
BRANCH   5   6
ATOM      6  C   UNL     1       6.786   0.121  -1.246  1.00  0.00    -0.044 A 
ATOM      7  C   UNL     1       7.475   0.641  -2.348  1.00  0.00     0.008 A 
ATOM      8  C   UNL     1       7.015  -1.185  -0.879  1.00  0.00     0.054 A 
ATOM      9  C   UNL     1       8.360  -0.173  -3.031  1.00  0.00     0.051 A 
ATOM     10  C   UNL     1       7.911  -2.004  -1.573  1.00  0.00     0.166 A 
ATOM     11  C   UNL     1       8.589  -1.494  -2.658  1.00  0.00     0.165 A 
ATOM     12  O   UNL     1       8.307  -3.315  -1.409  1.00  0.00    -0.454 OA
ATOM     13  O   UNL     1       9.395  -2.512  -3.142  1.00  0.00    -0.454 OA
ATOM     14  C   UNL     1       9.315  -3.656  -2.325  1.00  0.00     0.468 C 
ENDBRANCH   5   6
ENDBRANCH   1   5
TORSDOF 3
ENDMDL
MODEL 5
REMARK VINA RESULT:      -7.1      1.988      2.550
REMARK SMILES CC(=O)CCc1ccc2c(c1)OCO2
REMARK SMILES IDX 4 1 2 2 1 3 3 4 5 5 6 6 7 7 11 8 8 9 10 10 9 11 12 12 14 13
REMARK SMILES IDX 13 14
REMARK H PARENT
REMARK Flexibility Score: inf
ROOT
ATOM      1  C   UNL     1       6.814   0.766   1.381  1.00  0.00     0.080 C 
ENDROOT
BRANCH   1   2
ATOM      2  C   UNL     1       5.371   1.122   1.490  1.00  0.00     0.130 C 
ATOM      3  C   UNL     1       4.752   2.150   0.610  1.00  0.00     0.087 C 
ATOM      4  O   UNL     1       4.652   0.577   2.310  1.00  0.00    -0.300 OA
ENDBRANCH   1   2
BRANCH   1   5
ATOM      5  C   UNL     1       7.329   0.982  -0.028  1.00  0.00     0.043 C 
BRANCH   5   6
ATOM      6  C   UNL     1       7.647  -0.293  -0.695  1.00  0.00    -0.044 A 
ATOM      7  C   UNL     1       7.614  -0.420  -2.089  1.00  0.00     0.008 A 
ATOM      8  C   UNL     1       7.987  -1.392   0.061  1.00  0.00     0.054 A 
ATOM      9  C   UNL     1       7.923  -1.642  -2.659  1.00  0.00     0.051 A 
ATOM     10  C   UNL     1       8.299  -2.625  -0.521  1.00  0.00     0.166 A 
ATOM     11  C   UNL     1       8.266  -2.751  -1.892  1.00  0.00     0.165 A 
ATOM     12  O   UNL     1       8.661  -3.847   0.005  1.00  0.00    -0.454 OA
ATOM     13  O   UNL     1       8.614  -4.061  -2.182  1.00  0.00    -0.454 OA
ATOM     14  C   UNL     1       8.960  -4.766  -1.014  1.00  0.00     0.468 C 
ENDBRANCH   5   6
ENDBRANCH   1   5
TORSDOF 3
ENDMDL
