MODEL 1
REMARK VINA RESULT:      -7.6      0.000      0.000
REMARK SMILES CC(=O)CCc1ccc2c(c1)OCO2
REMARK SMILES IDX 4 1 2 2 1 3 3 4 5 5 6 6 7 7 11 8 8 9 10 10 9 11 12 12 14 13
REMARK SMILES IDX 13 14
REMARK H PARENT
REMARK Flexibility Score: inf
ROOT
ATOM      1  C   UNL     1       5.548   1.905   1.283  1.00  0.00     0.080 C 
ENDROOT
BRANCH   1   2
ATOM      2  C   UNL     1       5.094   0.688   2.011  1.00  0.00     0.130 C 
ATOM      3  C   UNL     1       5.978  -0.496   2.179  1.00  0.00     0.087 C 
ATOM      4  O   UNL     1       3.975   0.628   2.494  1.00  0.00    -0.300 OA
ENDBRANCH   1   2
BRANCH   1   5
ATOM      5  C   UNL     1       5.419   1.729  -0.217  1.00  0.00     0.043 C 
BRANCH   5   6
ATOM      6  C   UNL     1       6.582   1.028  -0.788  1.00  0.00    -0.044 A 
ATOM      7  C   UNL     1       7.891   1.462  -0.546  1.00  0.00     0.008 A 
ATOM      8  C   UNL     1       6.389  -0.084  -1.577  1.00  0.00     0.054 A 
ATOM      9  C   UNL     1       8.944   0.763  -1.108  1.00  0.00     0.051 A 
ATOM     10  C   UNL     1       7.458  -0.787  -2.141  1.00  0.00     0.166 A 
ATOM     11  C   UNL     1       8.745  -0.360  -1.905  1.00  0.00     0.165 A 
ATOM     12  O   UNL     1       7.526  -1.903  -2.948  1.00  0.00    -0.454 OA
ATOM     13  O   UNL     1       9.587  -1.232  -2.578  1.00  0.00    -0.454 OA
ATOM     14  C   UNL     1       8.860  -2.278  -3.178  1.00  0.00     0.468 C 
ENDBRANCH   5   6
ENDBRANCH   1   5
TORSDOF 3
ENDMDL
MODEL 2
REMARK VINA RESULT:      -7.4      1.945      2.431
REMARK SMILES CC(=O)CCc1ccc2c(c1)OCO2
REMARK SMILES IDX 4 1 2 2 1 3 3 4 5 5 6 6 7 7 11 8 8 9 10 10 9 11 12 12 14 13
REMARK SMILES IDX 13 14
REMARK H PARENT
REMARK Flexibility Score: inf
ROOT
ATOM      1  C   UNL     1       5.771   1.262  -0.292  1.00  0.00     0.080 C 
ENDROOT
BRANCH   1   2
ATOM      2  C   UNL     1       5.221   1.207   1.091  1.00  0.00     0.130 C 
ATOM      3  C   UNL     1       5.401   0.010   1.956  1.00  0.00     0.087 C 
ATOM      4  O   UNL     1       4.602   2.150   1.557  1.00  0.00    -0.300 OA
ENDBRANCH   1   2
BRANCH   1   5
ATOM      5  C   UNL     1       7.271   1.047  -0.297  1.00  0.00     0.043 C 
BRANCH   5   6
ATOM      6  C   UNL     1       7.636  -0.250  -0.895  1.00  0.00    -0.044 A 
ATOM      7  C   UNL     1       7.663  -0.435  -2.282  1.00  0.00     0.008 A 
ATOM      8  C   UNL     1       7.962  -1.309  -0.079  1.00  0.00     0.054 A 
ATOM      9  C   UNL     1       8.014  -1.675  -2.786  1.00  0.00     0.051 A 
ATOM     10  C   UNL     1       8.316  -2.560  -0.594  1.00  0.00     0.166 A 
ATOM     11  C   UNL     1       8.342  -2.744  -1.958  1.00  0.00     0.165 A 
ATOM     12  O   UNL     1       8.675  -3.752  -0.002  1.00  0.00    -0.454 OA
ATOM     13  O   UNL     1       8.721  -4.059  -2.178  1.00  0.00    -0.454 OA
ATOM     14  C   UNL     1       9.030  -4.708  -0.968  1.00  0.00     0.468 C 
ENDBRANCH   5   6
ENDBRANCH   1   5
TORSDOF 3
ENDMDL
MODEL 3
REMARK VINA RESULT:      -7.2      2.062      2.640
REMARK SMILES CC(=O)CCc1ccc2c(c1)OCO2
REMARK SMILES IDX 4 1 2 2 1 3 3 4 5 5 6 6 7 7 11 8 8 9 10 10 9 11 12 12 14 13
REMARK SMILES IDX 13 14
REMARK H PARENT
REMARK Flexibility Score: inf
ROOT
ATOM      1  C   UNL     1       5.385  -0.088   2.016  1.00  0.00     0.080 C 
ENDROOT
BRANCH   1   2
ATOM      2  C   UNL     1       4.554   1.124   1.774  1.00  0.00     0.130 C 
ATOM      3  C   UNL     1       4.911   2.120   0.728  1.00  0.00     0.087 C 
ATOM      4  O   UNL     1       3.549   1.337   2.433  1.00  0.00    -0.300 OA
ENDBRANCH   1   2
BRANCH   1   5
ATOM      5  C   UNL     1       6.832   0.151   1.631  1.00  0.00     0.043 C 
BRANCH   5   6
ATOM      6  C   UNL     1       7.270  -0.763   0.561  1.00  0.00    -0.044 A 
ATOM      7  C   UNL     1       7.153  -0.420  -0.790  1.00  0.00     0.008 A 
ATOM      8  C   UNL     1       7.812  -1.986   0.889  1.00  0.00     0.054 A 
ATOM      9  C   UNL     1       7.583  -1.318  -1.750  1.00  0.00     0.051 A 
ATOM     10  C   UNL     1       8.245  -2.890  -0.086  1.00  0.00     0.166 A 
ATOM     11  C   UNL     1       8.129  -2.554  -1.416  1.00  0.00     0.165 A 
ATOM     12  O   UNL     1       8.808  -4.147  -0.017  1.00  0.00    -0.454 OA
ATOM     13  O   UNL     1       8.630  -3.621  -2.145  1.00  0.00    -0.454 OA
ATOM     14  C   UNL     1       9.154  -4.614  -1.296  1.00  0.00     0.468 C 
ENDBRANCH   5   6
ENDBRANCH   1   5
TORSDOF 3
ENDMDL
MODEL 4
REMARK VINA RESULT:      -7.1      1.240      1.437
REMARK SMILES CC(=O)CCc1ccc2c(c1)OCO2
REMARK SMILES IDX 4 1 2 2 1 3 3 4 5 5 6 6 7 7 11 8 8 9 10 10 9 11 12 12 14 13
REMARK SMILES IDX 13 14
REMARK H PARENT
REMARK Flexibility Score: inf
ROOT
ATOM      1  C   UNL     1       6.335   1.263   0.904  1.00  0.00     0.080 C 
ENDROOT
BRANCH   1   2
ATOM      2  C   UNL     1       5.645   0.425   1.924  1.00  0.00     0.130 C 
ATOM      3  C   UNL     1       6.293  -0.776   2.517  1.00  0.00     0.087 C 
ATOM      4  O   UNL     1       4.519   0.702   2.305  1.00  0.00    -0.300 OA
ENDBRANCH   1   2
BRANCH   1   5
ATOM      5  C   UNL     1       5.833   0.954  -0.493  1.00  0.00     0.043 C 
BRANCH   5   6
ATOM      6  C   UNL     1       6.792   0.129  -1.248  1.00  0.00    -0.044 A 
ATOM      7  C   UNL     1       7.496   0.641  -2.344  1.00  0.00     0.008 A 
ATOM      8  C   UNL     1       7.011  -1.177  -0.874  1.00  0.00     0.054 A 
ATOM      9  C   UNL     1       8.384  -0.180  -3.015  1.00  0.00     0.051 A 
ATOM     10  C   UNL     1       7.911  -2.003  -1.555  1.00  0.00     0.166 A 
ATOM     11  C   UNL     1       8.603  -1.500  -2.634  1.00  0.00     0.165 A 
ATOM     12  O   UNL     1       8.298  -3.315  -1.382  1.00  0.00    -0.454 OA
ATOM     13  O   UNL     1       9.410  -2.524  -3.106  1.00  0.00    -0.454 OA
ATOM     14  C   UNL     1       9.315  -3.664  -2.286  1.00  0.00     0.468 C 
ENDBRANCH   5   6
ENDBRANCH   1   5
TORSDOF 3
ENDMDL
MODEL 5
REMARK VINA RESULT:      -6.8      1.973      2.743
REMARK SMILES CC(=O)CCc1ccc2c(c1)OCO2
REMARK SMILES IDX 4 1 2 2 1 3 3 4 5 5 6 6 7 7 11 8 8 9 10 10 9 11 12 12 14 13
REMARK SMILES IDX 13 14
REMARK H PARENT
REMARK Flexibility Score: inf
ROOT
ATOM      1  C   UNL     1       6.746   0.827   0.697  1.00  0.00     0.080 C 
ENDROOT
BRANCH   1   2
ATOM      2  C   UNL     1       5.436   1.536   0.676  1.00  0.00     0.130 C 
ATOM      3  C   UNL     1       4.901   2.150  -0.569  1.00  0.00     0.087 C 
ATOM      4  O   UNL     1       4.760   1.635   1.687  1.00  0.00    -0.300 OA
ENDBRANCH   1   2
BRANCH   1   5
ATOM      5  C   UNL     1       7.452   0.934  -0.640  1.00  0.00     0.043 C 
BRANCH   5   6
ATOM      6  C   UNL     1       7.856  -0.387  -1.152  1.00  0.00    -0.044 A 
ATOM      7  C   UNL     1       8.111  -0.599  -2.512  1.00  0.00     0.008 A 
ATOM      8  C   UNL     1       7.993  -1.444  -0.281  1.00  0.00     0.054 A 
ATOM      9  C   UNL     1       8.488  -1.861  -2.935  1.00  0.00     0.051 A 
ATOM     10  C   UNL     1       8.375  -2.717  -0.713  1.00  0.00     0.166 A 
ATOM     11  C   UNL     1       8.624  -2.928  -2.051  1.00  0.00     0.165 A 
ATOM     12  O   UNL     1       8.576  -3.912  -0.055  1.00  0.00    -0.454 OA
ATOM     13  O   UNL     1       8.978  -4.261  -2.188  1.00  0.00    -0.454 OA
ATOM     14  C   UNL     1       9.048  -4.899  -0.936  1.00  0.00     0.468 C 
ENDBRANCH   5   6
ENDBRANCH   1   5
TORSDOF 3
ENDMDL
