@<TRIPOS>MOLECULE
/home/cewinharhar/GITHUB/reincatalyze/data/processed/docking_pred/2023-May-30-2130_sub9_nm5_bs15_s42_ex16_mel10_mts10000_k50_ec05_g099_lra3e-4_lrc3e-3/79094ef31ed65e340e791eab6f4e997ef8bc8970_ligand_9.pdbqt
 14 15 0 0 0
SMALL
GASTEIGER

@<TRIPOS>ATOM
      1  C          5.8010    1.0500   -0.3220 C.3     1  UNL1        0.0800
      2  C          5.7630    1.2410    1.1550 C.2     1  UNL1        0.1300
      3  C          4.9760    0.3410    2.0390 C.3     1  UNL1        0.0870
      4  O          6.3820    2.1500    1.6850 O.2     1  UNL1       -0.3000
      5  C          7.2180    0.8260   -0.8120 C.3     1  UNL1        0.0430
      6  C          7.6920   -0.5360   -0.5080 C.2     1  UNL1       -0.0440
      7  C          7.9440   -0.9490    0.8060 C.2     1  UNL1        0.0080
      8  C          7.8920   -1.4340   -1.5320 C.2     1  UNL1        0.0540
      9  C          8.3860   -2.2390    1.0310 C.2     1  UNL1        0.0510
     10  C          8.3390   -2.7380   -1.2990 C.2     1  UNL1        0.1660
     11  C          8.5880   -3.1440   -0.0070 C.2     1  UNL1        0.1650
     12  O          8.6110   -3.8010   -2.1340 O.2     1  UNL1       -0.4540
     13  O          9.0120   -4.4620   -0.0760 O.2     1  UNL1       -0.4540
     14  C          8.9550   -4.9460   -1.3960 C.3     1  UNL1        0.4680
@<TRIPOS>BOND
     1    12    14    1
     2    12    10    1
     3     8    10    1
     4     8     6    2
     5    14    13    1
     6    10    11    2
     7     5     6    1
     8     5     1    1
     9     6     7    1
    10     1     2    1
    11    13    11    1
    12    11     9    1
    13     7     9    2
    14     2     4    2
    15     2     3    1
