@<TRIPOS>MOLECULE
/home/cewinharhar/GITHUB/reincatalyze/data/processed/docking_pred/2023-May-30-2130_sub9_nm5_bs15_s42_ex16_mel10_mts10000_k50_ec05_g099_lra3e-4_lrc3e-3/79094ef31ed65e340e791eab6f4e997ef8bc8970_ligand_9.pdbqt
 14 15 0 0 0
SMALL
GASTEIGER

@<TRIPOS>ATOM
      1  C          6.3820    1.2180    0.9290 C.3     1  UNL1        0.0800
      2  C          5.6600    0.3830    1.9280 C.2     1  UNL1        0.1300
      3  C          6.2660   -0.8490    2.5010 C.3     1  UNL1        0.0870
      4  O          4.5410    0.6880    2.3090 O.2     1  UNL1       -0.3000
      5  C          5.8790    0.9530   -0.4770 C.3     1  UNL1        0.0430
      6  C          6.8230    0.1230   -1.2470 C.2     1  UNL1       -0.0440
      7  C          7.5160    0.6340   -2.3500 C.2     1  UNL1        0.0080
      8  C          7.0370   -1.1860   -0.8790 C.2     1  UNL1        0.0540
      9  C          8.3890   -0.1920   -3.0350 C.2     1  UNL1        0.0510
     10  C          7.9220   -2.0160   -1.5740 C.2     1  UNL1        0.1660
     11  C          8.6030   -1.5150   -2.6610 C.2     1  UNL1        0.1650
     12  O          8.3020   -3.3310   -1.4100 O.2     1  UNL1       -0.4540
     13  O          9.3960   -2.5430   -3.1460 O.2     1  UNL1       -0.4540
     14  C          9.3040   -3.6850   -2.3280 C.3     1  UNL1        0.4680
@<TRIPOS>BOND
     1    13    11    1
     2    13    14    1
     3     9    11    2
     4     9     7    1
     5    11    10    1
     6     7     6    2
     7    14    12    1
     8    10    12    1
     9    10     8    2
    10     6     8    1
    11     6     5    1
    12     5     1    1
    13     1     2    1
    14     2     4    2
    15     2     3    1
