@<TRIPOS>MOLECULE
/home/cewinharhar/GITHUB/reincatalyze/data/processed/docking_pred/2023-May-30-2130_sub9_nm5_bs15_s42_ex16_mel10_mts10000_k50_ec05_g099_lra3e-4_lrc3e-3/79495f175fd15f32955b26bb978cae7af324a937_ligand_9.pdbqt
 14 15 0 0 0
SMALL
GASTEIGER

@<TRIPOS>ATOM
      1  C          5.5000    1.8920    1.3120 C.3     1  UNL1        0.0800
      2  C          5.0150    0.6700    2.0120 C.2     1  UNL1        0.1300
      3  C          5.8470   -0.5600    2.1030 C.3     1  UNL1        0.0870
      4  O          3.9120    0.6420    2.5330 O.2     1  UNL1       -0.3000
      5  C          5.3930    1.7450   -0.1920 C.3     1  UNL1        0.0430
      6  C          6.5610    1.0470   -0.7580 C.2     1  UNL1       -0.0440
      7  C          7.8680    1.4710   -0.4910 C.2     1  UNL1        0.0080
      8  C          6.3740   -0.0500   -1.5680 C.2     1  UNL1        0.0540
      9  C          8.9260    0.7760   -1.0490 C.2     1  UNL1        0.0510
     10  C          7.4470   -0.7490   -2.1300 C.2     1  UNL1        0.1660
     11  C          8.7330   -0.3320   -1.8680 C.2     1  UNL1        0.1650
     12  O          7.5210   -1.8510   -2.9540 O.2     1  UNL1       -0.4540
     13  O          9.5800   -1.1970   -2.5440 O.2     1  UNL1       -0.4540
     14  C          8.8570   -2.2290   -3.1720 C.3     1  UNL1        0.4680
@<TRIPOS>BOND
     1    14    12    1
     2    14    13    1
     3    12    10    1
     4    13    11    1
     5    10    11    2
     6    10     8    1
     7    11     9    1
     8     8     6    2
     9     9     7    2
    10     6     7    1
    11     6     5    1
    12     5     1    1
    13     1     2    1
    14     2     3    1
    15     2     4    2
