MODEL 1
REMARK VINA RESULT:      -7.0      0.000      0.000
REMARK SMILES CC(=O)CCc1ccc2c(c1)OCO2
REMARK SMILES IDX 4 1 2 2 1 3 3 4 5 5 6 6 7 7 11 8 8 9 10 10 9 11 12 12 14 13
REMARK SMILES IDX 13 14
REMARK H PARENT
REMARK Flexibility Score: inf
ROOT
ATOM      1  C   UNL     1       5.500   1.892   1.312  1.00  0.00     0.080 C 
ENDROOT
BRANCH   1   2
ATOM      2  C   UNL     1       5.015   0.670   2.012  1.00  0.00     0.130 C 
ATOM      3  C   UNL     1       5.847  -0.560   2.103  1.00  0.00     0.087 C 
ATOM      4  O   UNL     1       3.912   0.642   2.533  1.00  0.00    -0.300 OA
ENDBRANCH   1   2
BRANCH   1   5
ATOM      5  C   UNL     1       5.393   1.745  -0.192  1.00  0.00     0.043 C 
BRANCH   5   6
ATOM      6  C   UNL     1       6.561   1.047  -0.758  1.00  0.00    -0.044 A 
ATOM      7  C   UNL     1       7.868   1.471  -0.491  1.00  0.00     0.008 A 
ATOM      8  C   UNL     1       6.374  -0.050  -1.568  1.00  0.00     0.054 A 
ATOM      9  C   UNL     1       8.926   0.776  -1.049  1.00  0.00     0.051 A 
ATOM     10  C   UNL     1       7.447  -0.749  -2.130  1.00  0.00     0.166 A 
ATOM     11  C   UNL     1       8.733  -0.332  -1.868  1.00  0.00     0.165 A 
ATOM     12  O   UNL     1       7.521  -1.851  -2.954  1.00  0.00    -0.454 OA
ATOM     13  O   UNL     1       9.580  -1.197  -2.544  1.00  0.00    -0.454 OA
ATOM     14  C   UNL     1       8.857  -2.229  -3.172  1.00  0.00     0.468 C 
ENDBRANCH   5   6
ENDBRANCH   1   5
TORSDOF 3
ENDMDL
MODEL 2
REMARK VINA RESULT:      -7.0      2.706      3.982
REMARK SMILES CC(=O)CCc1ccc2c(c1)OCO2
REMARK SMILES IDX 4 1 2 2 1 3 3 4 5 5 6 6 7 7 11 8 8 9 10 10 9 11 12 12 14 13
REMARK SMILES IDX 13 14
REMARK H PARENT
REMARK Flexibility Score: inf
ROOT
ATOM      1  C   UNL     1       9.754   1.450   2.548  1.00  0.00     0.080 C 
ENDROOT
BRANCH   1   2
ATOM      2  C   UNL     1      11.173   1.005   2.627  1.00  0.00     0.130 C 
ATOM      3  C   UNL     1      12.147   1.661   3.539  1.00  0.00     0.087 C 
ATOM      4  O   UNL     1      11.580   0.082   1.940  1.00  0.00    -0.300 OA
ENDBRANCH   1   2
BRANCH   1   5
ATOM      5  C   UNL     1       9.457   2.109   1.216  1.00  0.00     0.043 C 
BRANCH   5   6
ATOM      6  C   UNL     1       8.662   1.233   0.337  1.00  0.00    -0.044 A 
ATOM      7  C   UNL     1       7.266   1.181   0.423  1.00  0.00     0.008 A 
ATOM      8  C   UNL     1       9.297   0.445  -0.596  1.00  0.00     0.054 A 
ATOM      9  C   UNL     1       6.572   0.341  -0.428  1.00  0.00     0.051 A 
ATOM     10  C   UNL     1       8.590  -0.403  -1.455  1.00  0.00     0.166 A 
ATOM     11  C   UNL     1       7.217  -0.455  -1.370  1.00  0.00     0.165 A 
ATOM     12  O   UNL     1       8.984  -1.272  -2.450  1.00  0.00    -0.454 OA
ATOM     13  O   UNL     1       6.791  -1.364  -2.325  1.00  0.00    -0.454 OA
ATOM     14  C   UNL     1       7.871  -1.838  -3.094  1.00  0.00     0.468 C 
ENDBRANCH   5   6
ENDBRANCH   1   5
TORSDOF 3
ENDMDL
MODEL 3
REMARK VINA RESULT:      -6.9      3.127      4.107
REMARK SMILES CC(=O)CCc1ccc2c(c1)OCO2
REMARK SMILES IDX 4 1 2 2 1 3 3 4 5 5 6 6 7 7 11 8 8 9 10 10 9 11 12 12 14 13
REMARK SMILES IDX 13 14
REMARK H PARENT
REMARK Flexibility Score: inf
ROOT
ATOM      1  C   UNL     1       5.688   0.917   0.318  1.00  0.00     0.080 C 
ENDROOT
BRANCH   1   2
ATOM      2  C   UNL     1       5.400   0.255   1.621  1.00  0.00     0.130 C 
ATOM      3  C   UNL     1       6.081  -1.005   2.024  1.00  0.00     0.087 C 
ATOM      4  O   UNL     1       4.591   0.731   2.401  1.00  0.00    -0.300 OA
ENDBRANCH   1   2
BRANCH   1   5
ATOM      5  C   UNL     1       6.552   2.148   0.506  1.00  0.00     0.043 C 
BRANCH   5   6
ATOM      6  C   UNL     1       7.964   1.795   0.738  1.00  0.00    -0.044 A 
ATOM      7  C   UNL     1       8.758   1.245  -0.274  1.00  0.00     0.008 A 
ATOM      8  C   UNL     1       8.526   2.010   1.976  1.00  0.00     0.054 A 
ATOM      9  C   UNL     1      10.077   0.934   0.002  1.00  0.00     0.051 A 
ATOM     10  C   UNL     1       9.860   1.695   2.250  1.00  0.00     0.166 A 
ATOM     11  C   UNL     1      10.642   1.152   1.254  1.00  0.00     0.165 A 
ATOM     12  O   UNL     1      10.640   1.810   3.381  1.00  0.00    -0.454 OA
ATOM     13  O   UNL     1      11.899   0.945   1.801  1.00  0.00    -0.454 OA
ATOM     14  C   UNL     1      11.967   1.432   3.120  1.00  0.00     0.468 C 
ENDBRANCH   5   6
ENDBRANCH   1   5
TORSDOF 3
ENDMDL
MODEL 4
REMARK VINA RESULT:      -6.8      1.905      2.376
REMARK SMILES CC(=O)CCc1ccc2c(c1)OCO2
REMARK SMILES IDX 4 1 2 2 1 3 3 4 5 5 6 6 7 7 11 8 8 9 10 10 9 11 12 12 14 13
REMARK SMILES IDX 13 14
REMARK H PARENT
REMARK Flexibility Score: inf
ROOT
ATOM      1  C   UNL     1       5.673   1.233  -0.285  1.00  0.00     0.080 C 
ENDROOT
BRANCH   1   2
ATOM      2  C   UNL     1       5.131   1.237   1.103  1.00  0.00     0.130 C 
ATOM      3  C   UNL     1       5.434   0.143   2.063  1.00  0.00     0.087 C 
ATOM      4  O   UNL     1       4.416   2.146   1.494  1.00  0.00    -0.300 OA
ENDBRANCH   1   2
BRANCH   1   5
ATOM      5  C   UNL     1       7.180   1.077  -0.286  1.00  0.00     0.043 C 
BRANCH   5   6
ATOM      6  C   UNL     1       7.598  -0.193  -0.907  1.00  0.00    -0.044 A 
ATOM      7  C   UNL     1       7.731  -0.321  -2.294  1.00  0.00     0.008 A 
ATOM      8  C   UNL     1       7.869  -1.284  -0.113  1.00  0.00     0.054 A 
ATOM      9  C   UNL     1       8.127  -1.537  -2.821  1.00  0.00     0.051 A 
ATOM     10  C   UNL     1       8.270  -2.511  -0.650  1.00  0.00     0.166 A 
ATOM     11  C   UNL     1       8.400  -2.639  -2.015  1.00  0.00     0.165 A 
ATOM     12  O   UNL     1       8.592  -3.725  -0.081  1.00  0.00    -0.454 OA
ATOM     13  O   UNL     1       8.804  -3.942  -2.259  1.00  0.00    -0.454 OA
ATOM     14  C   UNL     1       9.025  -4.639  -1.056  1.00  0.00     0.468 C 
ENDBRANCH   5   6
ENDBRANCH   1   5
TORSDOF 3
ENDMDL
MODEL 5
REMARK VINA RESULT:      -6.7      3.173      4.226
REMARK SMILES CC(=O)CCc1ccc2c(c1)OCO2
REMARK SMILES IDX 4 1 2 2 1 3 3 4 5 5 6 6 7 7 11 8 8 9 10 10 9 11 12 12 14 13
REMARK SMILES IDX 13 14
REMARK H PARENT
REMARK Flexibility Score: inf
ROOT
ATOM      1  C   UNL     1       5.809   0.002   1.671  1.00  0.00     0.080 C 
ENDROOT
BRANCH   1   2
ATOM      2  C   UNL     1       4.853   1.130   1.488  1.00  0.00     0.130 C 
ATOM      3  C   UNL     1       5.019   2.123   0.393  1.00  0.00     0.087 C 
ATOM      4  O   UNL     1       3.901   1.273   2.237  1.00  0.00    -0.300 OA
ENDBRANCH   1   2
BRANCH   1   5
ATOM      5  C   UNL     1       6.693  -0.173   0.452  1.00  0.00     0.043 C 
BRANCH   5   6
ATOM      6  C   UNL     1       8.065   0.307   0.699  1.00  0.00    -0.044 A 
ATOM      7  C   UNL     1       8.973   0.500  -0.348  1.00  0.00     0.008 A 
ATOM      8  C   UNL     1       8.472   0.578   1.986  1.00  0.00     0.054 A 
ATOM      9  C   UNL     1      10.247   0.954  -0.056  1.00  0.00     0.051 A 
ATOM     10  C   UNL     1       9.760   1.037   2.276  1.00  0.00     0.166 A 
ATOM     11  C   UNL     1      10.655   1.226   1.246  1.00  0.00     0.165 A 
ATOM     12  O   UNL     1      10.396   1.371   3.452  1.00  0.00    -0.454 OA
ATOM     13  O   UNL     1      11.834   1.678   1.818  1.00  0.00    -0.454 OA
ATOM     14  C   UNL     1      11.685   1.871   3.204  1.00  0.00     0.468 C 
ENDBRANCH   5   6
ENDBRANCH   1   5
TORSDOF 3
ENDMDL
