@<TRIPOS>MOLECULE
/home/cewinharhar/GITHUB/reincatalyze/data/processed/docking_pred/2023-May-30-2130_sub9_nm5_bs15_s42_ex16_mel10_mts10000_k50_ec05_g099_lra3e-4_lrc3e-3/79495f175fd15f32955b26bb978cae7af324a937_ligand_9.pdbqt
 14 15 0 0 0
SMALL
GASTEIGER

@<TRIPOS>ATOM
      1  C          9.7540    1.4500    2.5480 C.3     1  UNL1        0.0800
      2  C         11.1730    1.0050    2.6270 C.2     1  UNL1        0.1300
      3  C         12.1470    1.6610    3.5390 C.3     1  UNL1        0.0870
      4  O         11.5800    0.0820    1.9400 O.2     1  UNL1       -0.3000
      5  C          9.4570    2.1090    1.2160 C.3     1  UNL1        0.0430
      6  C          8.6620    1.2330    0.3370 C.2     1  UNL1       -0.0440
      7  C          7.2660    1.1810    0.4230 C.2     1  UNL1        0.0080
      8  C          9.2970    0.4450   -0.5960 C.2     1  UNL1        0.0540
      9  C          6.5720    0.3410   -0.4280 C.2     1  UNL1        0.0510
     10  C          8.5900   -0.4030   -1.4550 C.2     1  UNL1        0.1660
     11  C          7.2170   -0.4550   -1.3700 C.2     1  UNL1        0.1650
     12  O          8.9840   -1.2720   -2.4500 O.2     1  UNL1       -0.4540
     13  O          6.7910   -1.3640   -2.3250 O.2     1  UNL1       -0.4540
     14  C          7.8710   -1.8380   -3.0940 C.3     1  UNL1        0.4680
@<TRIPOS>BOND
     1    14    12    1
     2    14    13    1
     3    12    10    1
     4    13    11    1
     5    10    11    2
     6    10     8    1
     7    11     9    1
     8     8     6    2
     9     9     7    2
    10     6     7    1
    11     6     5    1
    12     5     1    1
    13     4     2    2
    14     1     2    1
    15     2     3    1
