@<TRIPOS>MOLECULE
/home/cewinharhar/GITHUB/reincatalyze/data/processed/docking_pred/2023-May-30-2130_sub9_nm5_bs15_s42_ex16_mel10_mts10000_k50_ec05_g099_lra3e-4_lrc3e-3/79495f175fd15f32955b26bb978cae7af324a937_ligand_9.pdbqt
 14 15 0 0 0
SMALL
GASTEIGER

@<TRIPOS>ATOM
      1  C          5.6730    1.2330   -0.2850 C.3     1  UNL1        0.0800
      2  C          5.1310    1.2370    1.1030 C.2     1  UNL1        0.1300
      3  C          5.4340    0.1430    2.0630 C.3     1  UNL1        0.0870
      4  O          4.4160    2.1460    1.4940 O.2     1  UNL1       -0.3000
      5  C          7.1800    1.0770   -0.2860 C.3     1  UNL1        0.0430
      6  C          7.5980   -0.1930   -0.9070 C.2     1  UNL1       -0.0440
      7  C          7.7310   -0.3210   -2.2940 C.2     1  UNL1        0.0080
      8  C          7.8690   -1.2840   -0.1130 C.2     1  UNL1        0.0540
      9  C          8.1270   -1.5370   -2.8210 C.2     1  UNL1        0.0510
     10  C          8.2700   -2.5110   -0.6500 C.2     1  UNL1        0.1660
     11  C          8.4000   -2.6390   -2.0150 C.2     1  UNL1        0.1650
     12  O          8.5920   -3.7250   -0.0810 O.2     1  UNL1       -0.4540
     13  O          8.8040   -3.9420   -2.2590 O.2     1  UNL1       -0.4540
     14  C          9.0250   -4.6390   -1.0560 C.3     1  UNL1        0.4680
@<TRIPOS>BOND
     1     9     7    1
     2     9    11    2
     3     7     6    2
     4    13    11    1
     5    13    14    1
     6    11    10    1
     7    14    12    1
     8     6     5    1
     9     6     8    1
    10    10     8    2
    11    10    12    1
    12     5     1    1
    13     1     2    1
    14     2     4    2
    15     2     3    1
