@<TRIPOS>MOLECULE
/home/cewinharhar/GITHUB/reincatalyze/data/processed/docking_pred/2023-May-30-2130_sub9_nm5_bs15_s42_ex16_mel10_mts10000_k50_ec05_g099_lra3e-4_lrc3e-3/79495f175fd15f32955b26bb978cae7af324a937_ligand_9.pdbqt
 14 15 0 0 0
SMALL
GASTEIGER

@<TRIPOS>ATOM
      1  C          5.8090    0.0020    1.6710 C.3     1  UNL1        0.0800
      2  C          4.8530    1.1300    1.4880 C.2     1  UNL1        0.1300
      3  C          5.0190    2.1230    0.3930 C.3     1  UNL1        0.0870
      4  O          3.9010    1.2730    2.2370 O.2     1  UNL1       -0.3000
      5  C          6.6930   -0.1730    0.4520 C.3     1  UNL1        0.0430
      6  C          8.0650    0.3070    0.6990 C.2     1  UNL1       -0.0440
      7  C          8.9730    0.5000   -0.3480 C.2     1  UNL1        0.0080
      8  C          8.4720    0.5780    1.9860 C.2     1  UNL1        0.0540
      9  C         10.2470    0.9540   -0.0560 C.2     1  UNL1        0.0510
     10  C          9.7600    1.0370    2.2760 C.2     1  UNL1        0.1660
     11  C         10.6550    1.2260    1.2460 C.2     1  UNL1        0.1650
     12  O         10.3960    1.3710    3.4520 O.2     1  UNL1       -0.4540
     13  O         11.8340    1.6780    1.8180 O.2     1  UNL1       -0.4540
     14  C         11.6850    1.8710    3.2040 C.3     1  UNL1        0.4680
@<TRIPOS>BOND
     1     7     9    1
     2     7     6    2
     3     9    11    2
     4     3     2    1
     5     5     6    1
     6     5     1    1
     7     6     8    1
     8    11    13    1
     9    11    10    1
    10     2     1    1
    11     2     4    2
    12    13    14    1
    13     8    10    2
    14    10    12    1
    15    14    12    1
