@<TRIPOS>MOLECULE
/home/cewinharhar/GITHUB/reincatalyze/data/processed/docking_pred/2023-May-30-2130_sub9_nm5_bs15_s42_ex16_mel10_mts10000_k50_ec05_g099_lra3e-4_lrc3e-3/79495f175fd15f32955b26bb978cae7af324a937_ligand_9.pdbqt
 14 15 0 0 0
SMALL
GASTEIGER

@<TRIPOS>ATOM
      1  C          5.6880    0.9170    0.3180 C.3     1  UNL1        0.0800
      2  C          5.4000    0.2550    1.6210 C.2     1  UNL1        0.1300
      3  C          6.0810   -1.0050    2.0240 C.3     1  UNL1        0.0870
      4  O          4.5910    0.7310    2.4010 O.2     1  UNL1       -0.3000
      5  C          6.5520    2.1480    0.5060 C.3     1  UNL1        0.0430
      6  C          7.9640    1.7950    0.7380 C.2     1  UNL1       -0.0440
      7  C          8.7580    1.2450   -0.2740 C.2     1  UNL1        0.0080
      8  C          8.5260    2.0100    1.9760 C.2     1  UNL1        0.0540
      9  C         10.0770    0.9340    0.0020 C.2     1  UNL1        0.0510
     10  C          9.8600    1.6950    2.2500 C.2     1  UNL1        0.1660
     11  C         10.6420    1.1520    1.2540 C.2     1  UNL1        0.1650
     12  O         10.6400    1.8100    3.3810 O.2     1  UNL1       -0.4540
     13  O         11.8990    0.9450    1.8010 O.2     1  UNL1       -0.4540
     14  C         11.9670    1.4320    3.1200 C.3     1  UNL1        0.4680
@<TRIPOS>BOND
     1     7     9    1
     2     7     6    2
     3     9    11    2
     4     1     5    1
     5     1     2    1
     6     5     6    1
     7     6     8    1
     8    11    13    1
     9    11    10    1
    10     2     3    1
    11     2     4    2
    12    13    14    1
    13     8    10    2
    14    10    12    1
    15    14    12    1
