@<TRIPOS>MOLECULE
/home/cewinharhar/GITHUB/reincatalyze/data/processed/docking_pred/2023-May-30-2130_sub9_nm5_bs15_s42_ex16_mel10_mts10000_k50_ec05_g099_lra3e-4_lrc3e-3/7ac8f9624e71b352d93dccd4dc48cb56e96c53c0_ligand_9.pdbqt
 14 15 0 0 0
SMALL
GASTEIGER

@<TRIPOS>ATOM
      1  C          5.5010    1.6130    0.0090 C.3     1  UNL1        0.0800
      2  C          4.8820    1.2310    1.3080 C.2     1  UNL1        0.1300
      3  C          5.3700    0.0660    2.0930 C.3     1  UNL1        0.0870
      4  O          3.9490    1.8690    1.7690 O.2     1  UNL1       -0.3000
      5  C          6.9970    1.3670    0.0180 C.3     1  UNL1        0.0430
      6  C          7.3570    0.1660   -0.7570 C.2     1  UNL1       -0.0440
      7  C          7.2940    0.1500   -2.1550 C.2     1  UNL1        0.0080
      8  C          7.7700   -0.9710   -0.1010 C.2     1  UNL1        0.0540
      9  C          7.6460   -1.0050   -2.8300 C.2     1  UNL1        0.0510
     10  C          8.1250   -2.1360   -0.7870 C.2     1  UNL1        0.1660
     11  C          8.0620   -2.1530   -2.1630 C.2     1  UNL1        0.1650
     12  O          8.5600   -3.3770   -0.3710 O.2     1  UNL1       -0.4540
     13  O          8.4640   -3.4170   -2.5670 O.2     1  UNL1       -0.4540
     14  C          8.8760   -4.1950   -1.4680 C.3     1  UNL1        0.4680
@<TRIPOS>BOND
     1     9    11    2
     2     9     7    1
     3    13    11    1
     4    13    14    1
     5    11    10    1
     6     7     6    2
     7    14    12    1
     8    10    12    1
     9    10     8    2
    10     6     8    1
    11     6     5    1
    12     1     5    1
    13     1     2    1
    14     2     4    2
    15     2     3    1
