@<TRIPOS>MOLECULE
/home/cewinharhar/GITHUB/reincatalyze/data/processed/docking_pred/2023-May-30-2130_sub9_nm5_bs15_s42_ex16_mel10_mts10000_k50_ec05_g099_lra3e-4_lrc3e-3/7ac8f9624e71b352d93dccd4dc48cb56e96c53c0_ligand_9.pdbqt
 14 15 0 0 0
SMALL
GASTEIGER

@<TRIPOS>ATOM
      1  C          6.3500    1.2570    0.9080 C.3     1  UNL1        0.0800
      2  C          5.6590    0.4030    1.9140 C.2     1  UNL1        0.1300
      3  C          6.3010   -0.8150    2.4770 C.3     1  UNL1        0.0870
      4  O          4.5380    0.6800    2.3070 O.2     1  UNL1       -0.3000
      5  C          5.8490    0.9720   -0.4930 C.3     1  UNL1        0.0430
      6  C          6.7970    0.1390   -1.2540 C.2     1  UNL1       -0.0440
      7  C          7.4950    0.6440   -2.3570 C.2     1  UNL1        0.0080
      8  C          7.0120   -1.1670   -0.8780 C.2     1  UNL1        0.0540
      9  C          8.3730   -0.1840   -3.0320 C.2     1  UNL1        0.0510
     10  C          7.9010   -2.0010   -1.5630 C.2     1  UNL1        0.1660
     11  C          8.5870   -1.5050   -2.6500 C.2     1  UNL1        0.1650
     12  O          8.2810   -3.3140   -1.3890 O.2     1  UNL1       -0.4540
     13  O          9.3840   -2.5350   -3.1250 O.2     1  UNL1       -0.4540
     14  C          9.2890   -3.6720   -2.3000 C.3     1  UNL1        0.4680
@<TRIPOS>BOND
     1    13    11    1
     2    13    14    1
     3     9    11    2
     4     9     7    1
     5    11    10    1
     6     7     6    2
     7    14    12    1
     8    10    12    1
     9    10     8    2
    10     6     8    1
    11     6     5    1
    12     5     1    1
    13     1     2    1
    14     2     4    2
    15     2     3    1
