MODEL 1
REMARK VINA RESULT:      -7.7      0.000      0.000
REMARK SMILES CC(=O)CCc1ccc2c(c1)OCO2
REMARK SMILES IDX 4 1 2 2 1 3 3 4 5 5 6 6 7 7 11 8 8 9 10 10 9 11 12 12 14 13
REMARK SMILES IDX 13 14
REMARK H PARENT
REMARK Flexibility Score: inf
ROOT
ATOM      1  C   UNL     1       5.549   1.898   1.297  1.00  0.00     0.080 C 
ENDROOT
BRANCH   1   2
ATOM      2  C   UNL     1       5.125   0.675   2.034  1.00  0.00     0.130 C 
ATOM      3  C   UNL     1       6.032  -0.492   2.199  1.00  0.00     0.087 C 
ATOM      4  O   UNL     1       4.011   0.595   2.527  1.00  0.00    -0.300 OA
ENDBRANCH   1   2
BRANCH   1   5
ATOM      5  C   UNL     1       5.409   1.714  -0.201  1.00  0.00     0.043 C 
BRANCH   5   6
ATOM      6  C   UNL     1       6.572   1.016  -0.777  1.00  0.00    -0.044 A 
ATOM      7  C   UNL     1       7.880   1.456  -0.543  1.00  0.00     0.008 A 
ATOM      8  C   UNL     1       6.380  -0.097  -1.564  1.00  0.00     0.054 A 
ATOM      9  C   UNL     1       8.933   0.761  -1.110  1.00  0.00     0.051 A 
ATOM     10  C   UNL     1       7.448  -0.796  -2.134  1.00  0.00     0.166 A 
ATOM     11  C   UNL     1       8.735  -0.364  -1.905  1.00  0.00     0.165 A 
ATOM     12  O   UNL     1       7.517  -1.913  -2.940  1.00  0.00    -0.454 OA
ATOM     13  O   UNL     1       9.577  -1.233  -2.582  1.00  0.00    -0.454 OA
ATOM     14  C   UNL     1       8.851  -2.282  -3.176  1.00  0.00     0.468 C 
ENDBRANCH   5   6
ENDBRANCH   1   5
TORSDOF 3
ENDMDL
MODEL 2
REMARK VINA RESULT:      -7.1      1.235      1.434
REMARK SMILES CC(=O)CCc1ccc2c(c1)OCO2
REMARK SMILES IDX 4 1 2 2 1 3 3 4 5 5 6 6 7 7 11 8 8 9 10 10 9 11 12 12 14 13
REMARK SMILES IDX 13 14
REMARK H PARENT
REMARK Flexibility Score: inf
ROOT
ATOM      1  C   UNL     1       6.350   1.257   0.908  1.00  0.00     0.080 C 
ENDROOT
BRANCH   1   2
ATOM      2  C   UNL     1       5.659   0.403   1.914  1.00  0.00     0.130 C 
ATOM      3  C   UNL     1       6.301  -0.815   2.477  1.00  0.00     0.087 C 
ATOM      4  O   UNL     1       4.538   0.680   2.307  1.00  0.00    -0.300 OA
ENDBRANCH   1   2
BRANCH   1   5
ATOM      5  C   UNL     1       5.849   0.972  -0.493  1.00  0.00     0.043 C 
BRANCH   5   6
ATOM      6  C   UNL     1       6.797   0.139  -1.254  1.00  0.00    -0.044 A 
ATOM      7  C   UNL     1       7.495   0.644  -2.357  1.00  0.00     0.008 A 
ATOM      8  C   UNL     1       7.012  -1.167  -0.878  1.00  0.00     0.054 A 
ATOM      9  C   UNL     1       8.373  -0.184  -3.032  1.00  0.00     0.051 A 
ATOM     10  C   UNL     1       7.901  -2.001  -1.563  1.00  0.00     0.166 A 
ATOM     11  C   UNL     1       8.587  -1.505  -2.650  1.00  0.00     0.165 A 
ATOM     12  O   UNL     1       8.281  -3.314  -1.389  1.00  0.00    -0.454 OA
ATOM     13  O   UNL     1       9.384  -2.535  -3.125  1.00  0.00    -0.454 OA
ATOM     14  C   UNL     1       9.289  -3.672  -2.300  1.00  0.00     0.468 C 
ENDBRANCH   5   6
ENDBRANCH   1   5
TORSDOF 3
ENDMDL
MODEL 3
REMARK VINA RESULT:      -7.0      1.721      2.325
REMARK SMILES CC(=O)CCc1ccc2c(c1)OCO2
REMARK SMILES IDX 4 1 2 2 1 3 3 4 5 5 6 6 7 7 11 8 8 9 10 10 9 11 12 12 14 13
REMARK SMILES IDX 13 14
REMARK H PARENT
REMARK Flexibility Score: inf
ROOT
ATOM      1  C   UNL     1       5.383   0.022   2.096  1.00  0.00     0.080 C 
ENDROOT
BRANCH   1   2
ATOM      2  C   UNL     1       4.451   1.150   1.815  1.00  0.00     0.130 C 
ATOM      3  C   UNL     1       4.732   2.149   0.750  1.00  0.00     0.087 C 
ATOM      4  O   UNL     1       3.422   1.287   2.457  1.00  0.00    -0.300 OA
ENDBRANCH   1   2
BRANCH   1   5
ATOM      5  C   UNL     1       6.785   0.333   1.608  1.00  0.00     0.043 C 
BRANCH   5   6
ATOM      6  C   UNL     1       7.143  -0.472   0.427  1.00  0.00    -0.044 A 
ATOM      7  C   UNL     1       6.880  -0.024  -0.873  1.00  0.00     0.008 A 
ATOM      8  C   UNL     1       7.753  -1.695   0.594  1.00  0.00     0.054 A 
ATOM      9  C   UNL     1       7.240  -0.822  -1.944  1.00  0.00     0.051 A 
ATOM     10  C   UNL     1       8.115  -2.498  -0.492  1.00  0.00     0.166 A 
ATOM     11  C   UNL     1       7.856  -2.058  -1.771  1.00  0.00     0.165 A 
ATOM     12  O   UNL     1       8.721  -3.732  -0.587  1.00  0.00    -0.454 OA
ATOM     13  O   UNL     1       8.315  -3.041  -2.634  1.00  0.00    -0.454 OA
ATOM     14  C   UNL     1       8.952  -4.079  -1.928  1.00  0.00     0.468 C 
ENDBRANCH   5   6
ENDBRANCH   1   5
TORSDOF 3
ENDMDL
MODEL 4
REMARK VINA RESULT:      -7.0      1.627      2.019
REMARK SMILES CC(=O)CCc1ccc2c(c1)OCO2
REMARK SMILES IDX 4 1 2 2 1 3 3 4 5 5 6 6 7 7 11 8 8 9 10 10 9 11 12 12 14 13
REMARK SMILES IDX 13 14
REMARK H PARENT
REMARK Flexibility Score: inf
ROOT
ATOM      1  C   UNL     1       5.501   1.613   0.009  1.00  0.00     0.080 C 
ENDROOT
BRANCH   1   2
ATOM      2  C   UNL     1       4.882   1.231   1.308  1.00  0.00     0.130 C 
ATOM      3  C   UNL     1       5.370   0.066   2.093  1.00  0.00     0.087 C 
ATOM      4  O   UNL     1       3.949   1.869   1.769  1.00  0.00    -0.300 OA
ENDBRANCH   1   2
BRANCH   1   5
ATOM      5  C   UNL     1       6.997   1.367   0.018  1.00  0.00     0.043 C 
BRANCH   5   6
ATOM      6  C   UNL     1       7.357   0.166  -0.757  1.00  0.00    -0.044 A 
ATOM      7  C   UNL     1       7.294   0.150  -2.155  1.00  0.00     0.008 A 
ATOM      8  C   UNL     1       7.770  -0.971  -0.101  1.00  0.00     0.054 A 
ATOM      9  C   UNL     1       7.646  -1.005  -2.830  1.00  0.00     0.051 A 
ATOM     10  C   UNL     1       8.125  -2.136  -0.787  1.00  0.00     0.166 A 
ATOM     11  C   UNL     1       8.062  -2.153  -2.163  1.00  0.00     0.165 A 
ATOM     12  O   UNL     1       8.560  -3.377  -0.371  1.00  0.00    -0.454 OA
ATOM     13  O   UNL     1       8.464  -3.417  -2.567  1.00  0.00    -0.454 OA
ATOM     14  C   UNL     1       8.876  -4.195  -1.468  1.00  0.00     0.468 C 
ENDBRANCH   5   6
ENDBRANCH   1   5
TORSDOF 3
ENDMDL
MODEL 5
REMARK VINA RESULT:      -6.8      1.185      5.170
REMARK SMILES CC(=O)CCc1ccc2c(c1)OCO2
REMARK SMILES IDX 4 1 2 2 1 3 3 4 5 5 6 6 7 7 11 8 8 9 10 10 9 11 12 12 14 13
REMARK SMILES IDX 13 14
REMARK H PARENT
REMARK Flexibility Score: inf
ROOT
ATOM      1  C   UNL     1       8.302   0.202  -2.671  1.00  0.00     0.080 C 
ENDROOT
BRANCH   1   2
ATOM      2  C   UNL     1       8.030  -1.260  -2.756  1.00  0.00     0.130 C 
ATOM      3  C   UNL     1       9.113  -2.241  -3.035  1.00  0.00     0.087 C 
ATOM      4  O   UNL     1       6.902  -1.698  -2.598  1.00  0.00    -0.300 OA
ENDBRANCH   1   2
BRANCH   1   5
ATOM      5  C   UNL     1       8.828   0.586  -1.302  1.00  0.00     0.043 C 
BRANCH   5   6
ATOM      6  C   UNL     1       7.795   0.440  -0.260  1.00  0.00    -0.044 A 
ATOM      7  C   UNL     1       7.902  -0.527   0.747  1.00  0.00     0.008 A 
ATOM      8  C   UNL     1       6.698   1.270  -0.266  1.00  0.00     0.054 A 
ATOM      9  C   UNL     1       6.902  -0.617   1.699  1.00  0.00     0.051 A 
ATOM     10  C   UNL     1       5.690   1.175   0.699  1.00  0.00     0.166 A 
ATOM     11  C   UNL     1       5.794   0.224   1.689  1.00  0.00     0.165 A 
ATOM     12  O   UNL     1       4.519   1.872   0.906  1.00  0.00    -0.454 OA
ATOM     13  O   UNL     1       4.672   0.358   2.493  1.00  0.00    -0.454 OA
ATOM     14  C   UNL     1       3.883   1.450   2.085  1.00  0.00     0.468 C 
ENDBRANCH   5   6
ENDBRANCH   1   5
TORSDOF 3
ENDMDL
