@<TRIPOS>MOLECULE
/home/cewinharhar/GITHUB/reincatalyze/data/processed/docking_pred/2023-May-30-2130_sub9_nm5_bs15_s42_ex16_mel10_mts10000_k50_ec05_g099_lra3e-4_lrc3e-3/7ac8f9624e71b352d93dccd4dc48cb56e96c53c0_ligand_9.pdbqt
 14 15 0 0 0
SMALL
GASTEIGER

@<TRIPOS>ATOM
      1  C          8.3020    0.2020   -2.6710 C.3     1  UNL1        0.0800
      2  C          8.0300   -1.2600   -2.7560 C.2     1  UNL1        0.1300
      3  C          9.1130   -2.2410   -3.0350 C.3     1  UNL1        0.0870
      4  O          6.9020   -1.6980   -2.5980 O.2     1  UNL1       -0.3000
      5  C          8.8280    0.5860   -1.3020 C.3     1  UNL1        0.0430
      6  C          7.7950    0.4400   -0.2600 C.2     1  UNL1       -0.0440
      7  C          7.9020   -0.5270    0.7470 C.2     1  UNL1        0.0080
      8  C          6.6980    1.2700   -0.2660 C.2     1  UNL1        0.0540
      9  C          6.9020   -0.6170    1.6990 C.2     1  UNL1        0.0510
     10  C          5.6900    1.1750    0.6990 C.2     1  UNL1        0.1660
     11  C          5.7940    0.2240    1.6890 C.2     1  UNL1        0.1650
     12  O          4.5190    1.8720    0.9060 O.2     1  UNL1       -0.4540
     13  O          4.6720    0.3580    2.4930 O.2     1  UNL1       -0.4540
     14  C          3.8830    1.4500    2.0850 C.3     1  UNL1        0.4680
@<TRIPOS>BOND
     1     3     2    1
     2     2     1    1
     3     2     4    2
     4     1     5    1
     5     5     6    1
     6     8     6    2
     7     8    10    1
     8     6     7    1
     9    10    12    1
    10    10    11    2
    11     7     9    2
    12    12    14    1
    13    11     9    1
    14    11    13    1
    15    14    13    1
