@<TRIPOS>MOLECULE
/home/cewinharhar/GITHUB/reincatalyze/data/processed/docking_pred/2023-May-30-2130_sub9_nm5_bs15_s42_ex16_mel10_mts10000_k50_ec05_g099_lra3e-4_lrc3e-3/7ac8f9624e71b352d93dccd4dc48cb56e96c53c0_ligand_9.pdbqt
 14 15 0 0 0
SMALL
GASTEIGER

@<TRIPOS>ATOM
      1  C          5.5490    1.8980    1.2970 C.3     1  UNL1        0.0800
      2  C          5.1250    0.6750    2.0340 C.2     1  UNL1        0.1300
      3  C          6.0320   -0.4920    2.1990 C.3     1  UNL1        0.0870
      4  O          4.0110    0.5950    2.5270 O.2     1  UNL1       -0.3000
      5  C          5.4090    1.7140   -0.2010 C.3     1  UNL1        0.0430
      6  C          6.5720    1.0160   -0.7770 C.2     1  UNL1       -0.0440
      7  C          7.8800    1.4560   -0.5430 C.2     1  UNL1        0.0080
      8  C          6.3800   -0.0970   -1.5640 C.2     1  UNL1        0.0540
      9  C          8.9330    0.7610   -1.1100 C.2     1  UNL1        0.0510
     10  C          7.4480   -0.7960   -2.1340 C.2     1  UNL1        0.1660
     11  C          8.7350   -0.3640   -1.9050 C.2     1  UNL1        0.1650
     12  O          7.5170   -1.9130   -2.9400 O.2     1  UNL1       -0.4540
     13  O          9.5770   -1.2330   -2.5820 O.2     1  UNL1       -0.4540
     14  C          8.8510   -2.2820   -3.1760 C.3     1  UNL1        0.4680
@<TRIPOS>BOND
     1    14    12    1
     2    14    13    1
     3    12    10    1
     4    13    11    1
     5    10    11    2
     6    10     8    1
     7    11     9    1
     8     8     6    2
     9     9     7    2
    10     6     7    1
    11     6     5    1
    12     5     1    1
    13     1     2    1
    14     2     3    1
    15     2     4    2
