MODEL 1
REMARK VINA RESULT:      -7.7      0.000      0.000
REMARK SMILES CC(=O)CCc1ccc2c(c1)OCO2
REMARK SMILES IDX 4 1 2 2 1 3 3 4 5 5 6 6 7 7 11 8 8 9 10 10 9 11 12 12 14 13
REMARK SMILES IDX 13 14
REMARK H PARENT
REMARK Flexibility Score: inf
ROOT
ATOM      1  C   UNL     1       5.522   1.937   1.264  1.00  0.00     0.080 C 
ENDROOT
BRANCH   1   2
ATOM      2  C   UNL     1       5.089   0.721   2.007  1.00  0.00     0.130 C 
ATOM      3  C   UNL     1       5.990  -0.449   2.182  1.00  0.00     0.087 C 
ATOM      4  O   UNL     1       3.973   0.649   2.496  1.00  0.00    -0.300 OA
ENDBRANCH   1   2
BRANCH   1   5
ATOM      5  C   UNL     1       5.395   1.742  -0.234  1.00  0.00     0.043 C 
BRANCH   5   6
ATOM      6  C   UNL     1       6.563   1.039  -0.794  1.00  0.00    -0.044 A 
ATOM      7  C   UNL     1       7.869   1.471  -0.540  1.00  0.00     0.008 A 
ATOM      8  C   UNL     1       6.375  -0.072  -1.585  1.00  0.00     0.054 A 
ATOM      9  C   UNL     1       8.927   0.770  -1.092  1.00  0.00     0.051 A 
ATOM     10  C   UNL     1       7.447  -0.777  -2.141  1.00  0.00     0.166 A 
ATOM     11  C   UNL     1       8.734  -0.352  -1.892  1.00  0.00     0.165 A 
ATOM     12  O   UNL     1       7.522  -1.892  -2.948  1.00  0.00    -0.454 OA
ATOM     13  O   UNL     1       9.580  -1.225  -2.558  1.00  0.00    -0.454 OA
ATOM     14  C   UNL     1       8.857  -2.269  -3.165  1.00  0.00     0.468 C 
ENDBRANCH   5   6
ENDBRANCH   1   5
TORSDOF 3
ENDMDL
MODEL 2
REMARK VINA RESULT:      -7.4      1.866      2.280
REMARK SMILES CC(=O)CCc1ccc2c(c1)OCO2
REMARK SMILES IDX 4 1 2 2 1 3 3 4 5 5 6 6 7 7 11 8 8 9 10 10 9 11 12 12 14 13
REMARK SMILES IDX 13 14
REMARK H PARENT
REMARK Flexibility Score: inf
ROOT
ATOM      1  C   UNL     1       5.656   1.465  -0.243  1.00  0.00     0.080 C 
ENDROOT
BRANCH   1   2
ATOM      2  C   UNL     1       5.066   1.311   1.116  1.00  0.00     0.130 C 
ATOM      3  C   UNL     1       5.395   0.147   1.982  1.00  0.00     0.087 C 
ATOM      4  O   UNL     1       4.290   2.141   1.560  1.00  0.00    -0.300 OA
ENDBRANCH   1   2
BRANCH   1   5
ATOM      5  C   UNL     1       7.158   1.265  -0.218  1.00  0.00     0.043 C 
BRANCH   5   6
ATOM      6  C   UNL     1       7.548  -0.019  -0.828  1.00  0.00    -0.044 A 
ATOM      7  C   UNL     1       7.651  -0.169  -2.216  1.00  0.00     0.008 A 
ATOM      8  C   UNL     1       7.824  -1.101  -0.024  1.00  0.00     0.054 A 
ATOM      9  C   UNL     1       8.023  -1.397  -2.732  1.00  0.00     0.051 A 
ATOM     10  C   UNL     1       8.200  -2.340  -0.551  1.00  0.00     0.166 A 
ATOM     11  C   UNL     1       8.300  -2.490  -1.916  1.00  0.00     0.165 A 
ATOM     12  O   UNL     1       8.520  -3.550   0.029  1.00  0.00    -0.454 OA
ATOM     13  O   UNL     1       8.684  -3.801  -2.149  1.00  0.00    -0.454 OA
ATOM     14  C   UNL     1       8.923  -4.483  -0.940  1.00  0.00     0.468 C 
ENDBRANCH   5   6
ENDBRANCH   1   5
TORSDOF 3
ENDMDL
MODEL 3
REMARK VINA RESULT:      -7.2      2.088      2.622
REMARK SMILES CC(=O)CCc1ccc2c(c1)OCO2
REMARK SMILES IDX 4 1 2 2 1 3 3 4 5 5 6 6 7 7 11 8 8 9 10 10 9 11 12 12 14 13
REMARK SMILES IDX 13 14
REMARK H PARENT
REMARK Flexibility Score: inf
ROOT
ATOM      1  C   UNL     1       5.542   0.031   1.951  1.00  0.00     0.080 C 
ENDROOT
BRANCH   1   2
ATOM      2  C   UNL     1       4.661   1.189   1.630  1.00  0.00     0.130 C 
ATOM      3  C   UNL     1       4.971   2.119   0.512  1.00  0.00     0.087 C 
ATOM      4  O   UNL     1       3.653   1.408   2.282  1.00  0.00    -0.300 OA
ENDBRANCH   1   2
BRANCH   1   5
ATOM      5  C   UNL     1       6.965   0.277   1.490  1.00  0.00     0.043 C 
BRANCH   5   6
ATOM      6  C   UNL     1       7.377  -0.683   0.451  1.00  0.00    -0.044 A 
ATOM      7  C   UNL     1       7.289  -0.372  -0.911  1.00  0.00     0.008 A 
ATOM      8  C   UNL     1       7.864  -1.917   0.817  1.00  0.00     0.054 A 
ATOM      9  C   UNL     1       7.692  -1.313  -1.841  1.00  0.00     0.051 A 
ATOM     10  C   UNL     1       8.270  -2.865  -0.127  1.00  0.00     0.166 A 
ATOM     11  C   UNL     1       8.183  -2.560  -1.467  1.00  0.00     0.165 A 
ATOM     12  O   UNL     1       8.780  -4.141  -0.018  1.00  0.00    -0.454 OA
ATOM     13  O   UNL     1       8.647  -3.667  -2.161  1.00  0.00    -0.454 OA
ATOM     14  C   UNL     1       9.120  -4.657  -1.280  1.00  0.00     0.468 C 
ENDBRANCH   5   6
ENDBRANCH   1   5
TORSDOF 3
ENDMDL
MODEL 4
REMARK VINA RESULT:      -7.1      1.260      1.479
REMARK SMILES CC(=O)CCc1ccc2c(c1)OCO2
REMARK SMILES IDX 4 1 2 2 1 3 3 4 5 5 6 6 7 7 11 8 8 9 10 10 9 11 12 12 14 13
REMARK SMILES IDX 13 14
REMARK H PARENT
REMARK Flexibility Score: inf
ROOT
ATOM      1  C   UNL     1       6.406   1.201   0.938  1.00  0.00     0.080 C 
ENDROOT
BRANCH   1   2
ATOM      2  C   UNL     1       5.676   0.362   1.929  1.00  0.00     0.130 C 
ATOM      3  C   UNL     1       6.277  -0.874   2.498  1.00  0.00     0.087 C 
ATOM      4  O   UNL     1       4.556   0.667   2.304  1.00  0.00    -0.300 OA
ENDBRANCH   1   2
BRANCH   1   5
ATOM      5  C   UNL     1       5.901   0.954  -0.470  1.00  0.00     0.043 C 
BRANCH   5   6
ATOM      6  C   UNL     1       6.834   0.117  -1.246  1.00  0.00    -0.044 A 
ATOM      7  C   UNL     1       7.514   0.618  -2.362  1.00  0.00     0.008 A 
ATOM      8  C   UNL     1       7.051  -1.189  -0.871  1.00  0.00     0.054 A 
ATOM      9  C   UNL     1       8.377  -0.214  -3.050  1.00  0.00     0.051 A 
ATOM     10  C   UNL     1       7.926  -2.026  -1.570  1.00  0.00     0.166 A 
ATOM     11  C   UNL     1       8.594  -1.535  -2.669  1.00  0.00     0.165 A 
ATOM     12  O   UNL     1       8.305  -3.341  -1.400  1.00  0.00    -0.454 OA
ATOM     13  O   UNL     1       9.379  -2.568  -3.156  1.00  0.00    -0.454 OA
ATOM     14  C   UNL     1       9.296  -3.703  -2.328  1.00  0.00     0.468 C 
ENDBRANCH   5   6
ENDBRANCH   1   5
TORSDOF 3
ENDMDL
MODEL 5
REMARK VINA RESULT:      -7.0      1.940      2.527
REMARK SMILES CC(=O)CCc1ccc2c(c1)OCO2
REMARK SMILES IDX 4 1 2 2 1 3 3 4 5 5 6 6 7 7 11 8 8 9 10 10 9 11 12 12 14 13
REMARK SMILES IDX 13 14
REMARK H PARENT
REMARK Flexibility Score: inf
ROOT
ATOM      1  C   UNL     1       6.965   0.927   1.166  1.00  0.00     0.080 C 
ENDROOT
BRANCH   1   2
ATOM      2  C   UNL     1       5.516   1.211   1.364  1.00  0.00     0.130 C 
ATOM      3  C   UNL     1       4.776   2.150   0.479  1.00  0.00     0.087 C 
ATOM      4  O   UNL     1       4.890   0.676   2.265  1.00  0.00    -0.300 OA
ENDBRANCH   1   2
BRANCH   1   5
ATOM      5  C   UNL     1       7.362   1.079  -0.289  1.00  0.00     0.043 C 
BRANCH   5   6
ATOM      6  C   UNL     1       7.721  -0.215  -0.896  1.00  0.00    -0.044 A 
ATOM      7  C   UNL     1       7.839  -0.367  -2.282  1.00  0.00     0.008 A 
ATOM      8  C   UNL     1       7.951  -1.306  -0.089  1.00  0.00     0.054 A 
ATOM      9  C   UNL     1       8.181  -1.605  -2.795  1.00  0.00     0.051 A 
ATOM     10  C   UNL     1       8.297  -2.556  -0.612  1.00  0.00     0.166 A 
ATOM     11  C   UNL     1       8.412  -2.706  -1.976  1.00  0.00     0.165 A 
ATOM     12  O   UNL     1       8.571  -3.775  -0.030  1.00  0.00    -0.454 OA
ATOM     13  O   UNL     1       8.759  -4.028  -2.206  1.00  0.00    -0.454 OA
ATOM     14  C   UNL     1       8.959  -4.719  -0.995  1.00  0.00     0.468 C 
ENDBRANCH   5   6
ENDBRANCH   1   5
TORSDOF 3
ENDMDL
