@<TRIPOS>MOLECULE
/home/cewinharhar/GITHUB/reincatalyze/data/processed/docking_pred/2023-May-30-2130_sub9_nm5_bs15_s42_ex16_mel10_mts10000_k50_ec05_g099_lra3e-4_lrc3e-3/7dcda9a940d7ea761c585a72a27c2811ce37448b_ligand_9.pdbqt
 14 15 0 0 0
SMALL
GASTEIGER

@<TRIPOS>ATOM
      1  C          5.5000    1.8730    1.2340 C.3     1  UNL1        0.0800
      2  C          5.0060    0.6630    1.9490 C.2     1  UNL1        0.1300
      3  C          5.8270   -0.5730    2.0500 C.3     1  UNL1        0.0870
      4  O          3.9050    0.6520    2.4750 O.2     1  UNL1       -0.3000
      5  C          5.3990    1.7050   -0.2690 C.3     1  UNL1        0.0430
      6  C          6.5660    0.9930   -0.8190 C.2     1  UNL1       -0.0440
      7  C          7.8730    1.4290   -0.5730 C.2     1  UNL1        0.0080
      8  C          6.3780   -0.1300   -1.5920 C.2     1  UNL1        0.0540
      9  C          8.9300    0.7210   -1.1150 C.2     1  UNL1        0.0510
     10  C          7.4500   -0.8430   -2.1370 C.2     1  UNL1        0.1660
     11  C          8.7370   -0.4140   -1.8970 C.2     1  UNL1        0.1650
     12  O          7.5240   -1.9720   -2.9260 O.2     1  UNL1       -0.4540
     13  O          9.5820   -1.2970   -2.5490 O.2     1  UNL1       -0.4540
     14  C          8.8590   -2.3520   -3.1390 C.3     1  UNL1        0.4680
@<TRIPOS>BOND
     1    14    12    1
     2    14    13    1
     3    12    10    1
     4    13    11    1
     5    10    11    2
     6    10     8    1
     7    11     9    1
     8     8     6    2
     9     9     7    2
    10     6     7    1
    11     6     5    1
    12     5     1    1
    13     1     2    1
    14     2     3    1
    15     2     4    2
