MODEL 1
REMARK VINA RESULT:      -7.6      0.000      0.000
REMARK SMILES CC(=O)CCc1ccc2c(c1)OCO2
REMARK SMILES IDX 4 1 2 2 1 3 3 4 5 5 6 6 7 7 11 8 8 9 10 10 9 11 12 12 14 13
REMARK SMILES IDX 13 14
REMARK H PARENT
REMARK Flexibility Score: inf
ROOT
ATOM      1  C   UNL     1       5.548   1.893   1.294  1.00  0.00     0.080 C 
ENDROOT
BRANCH   1   2
ATOM      2  C   UNL     1       5.108   0.670   2.021  1.00  0.00     0.130 C 
ATOM      3  C   UNL     1       6.007  -0.503   2.191  1.00  0.00     0.087 C 
ATOM      4  O   UNL     1       3.988   0.594   2.501  1.00  0.00    -0.300 OA
ENDBRANCH   1   2
BRANCH   1   5
ATOM      5  C   UNL     1       5.417   1.719  -0.206  1.00  0.00     0.043 C 
BRANCH   5   6
ATOM      6  C   UNL     1       6.579   1.015  -0.777  1.00  0.00    -0.044 A 
ATOM      7  C   UNL     1       7.889   1.442  -0.530  1.00  0.00     0.008 A 
ATOM      8  C   UNL     1       6.384  -0.091  -1.572  1.00  0.00     0.054 A 
ATOM      9  C   UNL     1       8.941   0.741  -1.092  1.00  0.00     0.051 A 
ATOM     10  C   UNL     1       7.450  -0.796  -2.138  1.00  0.00     0.166 A 
ATOM     11  C   UNL     1       8.739  -0.376  -1.896  1.00  0.00     0.165 A 
ATOM     12  O   UNL     1       7.515  -1.908  -2.951  1.00  0.00    -0.454 OA
ATOM     13  O   UNL     1       9.578  -1.249  -2.572  1.00  0.00    -0.454 OA
ATOM     14  C   UNL     1       8.848  -2.288  -3.179  1.00  0.00     0.468 C 
ENDBRANCH   5   6
ENDBRANCH   1   5
TORSDOF 3
ENDMDL
MODEL 2
REMARK VINA RESULT:      -7.4      1.938      2.396
REMARK SMILES CC(=O)CCc1ccc2c(c1)OCO2
REMARK SMILES IDX 4 1 2 2 1 3 3 4 5 5 6 6 7 7 11 8 8 9 10 10 9 11 12 12 14 13
REMARK SMILES IDX 13 14
REMARK H PARENT
REMARK Flexibility Score: inf
ROOT
ATOM      1  C   UNL     1       5.776   1.364  -0.256  1.00  0.00     0.080 C 
ENDROOT
BRANCH   1   2
ATOM      2  C   UNL     1       5.119   1.262   1.078  1.00  0.00     0.130 C 
ATOM      3  C   UNL     1       5.326   0.083   1.961  1.00  0.00     0.087 C 
ATOM      4  O   UNL     1       4.387   2.149   1.486  1.00  0.00    -0.300 OA
ENDBRANCH   1   2
BRANCH   1   5
ATOM      5  C   UNL     1       7.262   1.080  -0.161  1.00  0.00     0.043 C 
BRANCH   5   6
ATOM      6  C   UNL     1       7.613  -0.205  -0.792  1.00  0.00    -0.044 A 
ATOM      7  C   UNL     1       7.620  -0.361  -2.183  1.00  0.00     0.008 A 
ATOM      8  C   UNL     1       7.946  -1.283  -0.004  1.00  0.00     0.054 A 
ATOM      9  C   UNL     1       7.959  -1.591  -2.718  1.00  0.00     0.051 A 
ATOM     10  C   UNL     1       8.288  -2.524  -0.550  1.00  0.00     0.166 A 
ATOM     11  C   UNL     1       8.295  -2.679  -1.918  1.00  0.00     0.165 A 
ATOM     12  O   UNL     1       8.651  -3.730   0.011  1.00  0.00    -0.454 OA
ATOM     13  O   UNL     1       8.666  -3.990  -2.172  1.00  0.00    -0.454 OA
ATOM     14  C   UNL     1       8.989  -4.666  -0.980  1.00  0.00     0.468 C 
ENDBRANCH   5   6
ENDBRANCH   1   5
TORSDOF 3
ENDMDL
MODEL 3
REMARK VINA RESULT:      -7.2      2.078      2.598
REMARK SMILES CC(=O)CCc1ccc2c(c1)OCO2
REMARK SMILES IDX 4 1 2 2 1 3 3 4 5 5 6 6 7 7 11 8 8 9 10 10 9 11 12 12 14 13
REMARK SMILES IDX 13 14
REMARK H PARENT
REMARK Flexibility Score: inf
ROOT
ATOM      1  C   UNL     1       5.626   0.064   1.938  1.00  0.00     0.080 C 
ENDROOT
BRANCH   1   2
ATOM      2  C   UNL     1       4.702   1.187   1.616  1.00  0.00     0.130 C 
ATOM      3  C   UNL     1       4.987   2.142   0.512  1.00  0.00     0.087 C 
ATOM      4  O   UNL     1       3.676   1.356   2.256  1.00  0.00    -0.300 OA
ENDBRANCH   1   2
BRANCH   1   5
ATOM      5  C   UNL     1       7.021   0.331   1.408  1.00  0.00     0.043 C 
BRANCH   5   6
ATOM      6  C   UNL     1       7.414  -0.651   0.382  1.00  0.00    -0.044 A 
ATOM      7  C   UNL     1       7.317  -0.363  -0.984  1.00  0.00     0.008 A 
ATOM      8  C   UNL     1       7.891  -1.884   0.765  1.00  0.00     0.054 A 
ATOM      9  C   UNL     1       7.700  -1.323  -1.902  1.00  0.00     0.051 A 
ATOM     10  C   UNL     1       8.278  -2.852  -0.167  1.00  0.00     0.166 A 
ATOM     11  C   UNL     1       8.182  -2.569  -1.511  1.00  0.00     0.165 A 
ATOM     12  O   UNL     1       8.776  -4.131  -0.041  1.00  0.00    -0.454 OA
ATOM     13  O   UNL     1       8.628  -3.693  -2.190  1.00  0.00    -0.454 OA
ATOM     14  C   UNL     1       9.099  -4.673  -1.296  1.00  0.00     0.468 C 
ENDBRANCH   5   6
ENDBRANCH   1   5
TORSDOF 3
ENDMDL
MODEL 4
REMARK VINA RESULT:      -7.1      1.239      1.434
REMARK SMILES CC(=O)CCc1ccc2c(c1)OCO2
REMARK SMILES IDX 4 1 2 2 1 3 3 4 5 5 6 6 7 7 11 8 8 9 10 10 9 11 12 12 14 13
REMARK SMILES IDX 13 14
REMARK H PARENT
REMARK Flexibility Score: inf
ROOT
ATOM      1  C   UNL     1       6.336   1.259   0.871  1.00  0.00     0.080 C 
ENDROOT
BRANCH   1   2
ATOM      2  C   UNL     1       5.658   0.437   1.913  1.00  0.00     0.130 C 
ATOM      3  C   UNL     1       6.289  -0.788   2.473  1.00  0.00     0.087 C 
ATOM      4  O   UNL     1       4.558   0.748   2.338  1.00  0.00    -0.300 OA
ENDBRANCH   1   2
BRANCH   1   5
ATOM      5  C   UNL     1       5.822   0.923  -0.515  1.00  0.00     0.043 C 
BRANCH   5   6
ATOM      6  C   UNL     1       6.789   0.110  -1.274  1.00  0.00    -0.044 A 
ATOM      7  C   UNL     1       7.502   0.639  -2.356  1.00  0.00     0.008 A 
ATOM      8  C   UNL     1       7.005  -1.202  -0.918  1.00  0.00     0.054 A 
ATOM      9  C   UNL     1       8.397  -0.171  -3.030  1.00  0.00     0.051 A 
ATOM     10  C   UNL     1       7.911  -2.017  -1.603  1.00  0.00     0.166 A 
ATOM     11  C   UNL     1       8.613  -1.497  -2.668  1.00  0.00     0.165 A 
ATOM     12  O   UNL     1       8.297  -3.331  -1.446  1.00  0.00    -0.454 OA
ATOM     13  O   UNL     1       9.424  -2.514  -3.147  1.00  0.00    -0.454 OA
ATOM     14  C   UNL     1       9.322  -3.666  -2.346  1.00  0.00     0.468 C 
ENDBRANCH   5   6
ENDBRANCH   1   5
TORSDOF 3
ENDMDL
MODEL 5
REMARK VINA RESULT:      -6.8      1.182      5.159
REMARK SMILES CC(=O)CCc1ccc2c(c1)OCO2
REMARK SMILES IDX 4 1 2 2 1 3 3 4 5 5 6 6 7 7 11 8 8 9 10 10 9 11 12 12 14 13
REMARK SMILES IDX 13 14
REMARK H PARENT
REMARK Flexibility Score: inf
ROOT
ATOM      1  C   UNL     1       8.311   0.194  -2.687  1.00  0.00     0.080 C 
ENDROOT
BRANCH   1   2
ATOM      2  C   UNL     1       8.032  -1.267  -2.761  1.00  0.00     0.130 C 
ATOM      3  C   UNL     1       9.111  -2.256  -3.025  1.00  0.00     0.087 C 
ATOM      4  O   UNL     1       6.900  -1.698  -2.606  1.00  0.00    -0.300 OA
ENDBRANCH   1   2
BRANCH   1   5
ATOM      5  C   UNL     1       8.838   0.585  -1.320  1.00  0.00     0.043 C 
BRANCH   5   6
ATOM      6  C   UNL     1       7.811   0.434  -0.274  1.00  0.00    -0.044 A 
ATOM      7  C   UNL     1       7.927  -0.531   0.733  1.00  0.00     0.008 A 
ATOM      8  C   UNL     1       6.709   1.259  -0.276  1.00  0.00     0.054 A 
ATOM      9  C   UNL     1       6.932  -0.626   1.689  1.00  0.00     0.051 A 
ATOM     10  C   UNL     1       5.706   1.159   0.693  1.00  0.00     0.166 A 
ATOM     11  C   UNL     1       5.819   0.209   1.683  1.00  0.00     0.165 A 
ATOM     12  O   UNL     1       4.532   1.849   0.904  1.00  0.00    -0.454 OA
ATOM     13  O   UNL     1       4.700   0.338   2.491  1.00  0.00    -0.454 OA
ATOM     14  C   UNL     1       3.903   1.425   2.086  1.00  0.00     0.468 C 
ENDBRANCH   5   6
ENDBRANCH   1   5
TORSDOF 3
ENDMDL
