@<TRIPOS>MOLECULE
/home/cewinharhar/GITHUB/reincatalyze/data/processed/docking_pred/2023-May-30-2130_sub9_nm5_bs15_s42_ex16_mel10_mts10000_k50_ec05_g099_lra3e-4_lrc3e-3/80b3dd8cd2b2e3944ffcf13b099740dfc166ef97_ligand_9.pdbqt
 14 15 0 0 0
SMALL
GASTEIGER

@<TRIPOS>ATOM
      1  C          5.6260    0.0640    1.9380 C.3     1  UNL1        0.0800
      2  C          4.7020    1.1870    1.6160 C.2     1  UNL1        0.1300
      3  C          4.9870    2.1420    0.5120 C.3     1  UNL1        0.0870
      4  O          3.6760    1.3560    2.2560 O.2     1  UNL1       -0.3000
      5  C          7.0210    0.3310    1.4080 C.3     1  UNL1        0.0430
      6  C          7.4140   -0.6510    0.3820 C.2     1  UNL1       -0.0440
      7  C          7.3170   -0.3630   -0.9840 C.2     1  UNL1        0.0080
      8  C          7.8910   -1.8840    0.7650 C.2     1  UNL1        0.0540
      9  C          7.7000   -1.3230   -1.9020 C.2     1  UNL1        0.0510
     10  C          8.2780   -2.8520   -0.1670 C.2     1  UNL1        0.1660
     11  C          8.1820   -2.5690   -1.5110 C.2     1  UNL1        0.1650
     12  O          8.7760   -4.1310   -0.0410 O.2     1  UNL1       -0.4540
     13  O          8.6280   -3.6930   -2.1900 O.2     1  UNL1       -0.4540
     14  C          9.0990   -4.6730   -1.2960 C.3     1  UNL1        0.4680
@<TRIPOS>BOND
     1    13    11    1
     2    13    14    1
     3     9    11    2
     4     9     7    1
     5    11    10    1
     6    14    12    1
     7     7     6    2
     8    10    12    1
     9    10     8    2
    10     6     8    1
    11     6     5    1
    12     3     2    1
    13     5     1    1
    14     2     1    1
    15     2     4    2
