@<TRIPOS>MOLECULE
/home/cewinharhar/GITHUB/reincatalyze/data/processed/docking_pred/2023-May-30-2130_sub9_nm5_bs15_s42_ex16_mel10_mts10000_k50_ec05_g099_lra3e-4_lrc3e-3/80b3dd8cd2b2e3944ffcf13b099740dfc166ef97_ligand_9.pdbqt
 14 15 0 0 0
SMALL
GASTEIGER

@<TRIPOS>ATOM
      1  C          8.3110    0.1940   -2.6870 C.3     1  UNL1        0.0800
      2  C          8.0320   -1.2670   -2.7610 C.2     1  UNL1        0.1300
      3  C          9.1110   -2.2560   -3.0250 C.3     1  UNL1        0.0870
      4  O          6.9000   -1.6980   -2.6060 O.2     1  UNL1       -0.3000
      5  C          8.8380    0.5850   -1.3200 C.3     1  UNL1        0.0430
      6  C          7.8110    0.4340   -0.2740 C.2     1  UNL1       -0.0440
      7  C          7.9270   -0.5310    0.7330 C.2     1  UNL1        0.0080
      8  C          6.7090    1.2590   -0.2760 C.2     1  UNL1        0.0540
      9  C          6.9320   -0.6260    1.6890 C.2     1  UNL1        0.0510
     10  C          5.7060    1.1590    0.6930 C.2     1  UNL1        0.1660
     11  C          5.8190    0.2090    1.6830 C.2     1  UNL1        0.1650
     12  O          4.5320    1.8490    0.9040 O.2     1  UNL1       -0.4540
     13  O          4.7000    0.3380    2.4910 O.2     1  UNL1       -0.4540
     14  C          3.9030    1.4250    2.0860 C.3     1  UNL1        0.4680
@<TRIPOS>BOND
     1     3     2    1
     2     2     1    1
     3     2     4    2
     4     1     5    1
     5     5     6    1
     6     8     6    2
     7     8    10    1
     8     6     7    1
     9    10    12    1
    10    10    11    2
    11     7     9    2
    12    12    14    1
    13    11     9    1
    14    11    13    1
    15    14    13    1
