@<TRIPOS>MOLECULE
/home/cewinharhar/GITHUB/reincatalyze/data/processed/docking_pred/2023-May-30-2130_sub9_nm5_bs15_s42_ex16_mel10_mts10000_k50_ec05_g099_lra3e-4_lrc3e-3/80c9945afd0f5f9f0270d56cce32b054e5c09707_ligand_9.pdbqt
 14 15 0 0 0
SMALL
GASTEIGER

@<TRIPOS>ATOM
      1  C          5.3080   -0.0880    1.9420 C.3     1  UNL1        0.0800
      2  C          4.4370    1.1110    1.7850 C.2     1  UNL1        0.1300
      3  C          4.7170    2.1500    0.7580 C.3     1  UNL1        0.0870
      4  O          3.4620    1.2760    2.5000 O.2     1  UNL1       -0.3000
      5  C          6.7760    0.2890    1.8990 C.3     1  UNL1        0.0430
      6  C          7.3900   -0.0560    0.6050 C.2     1  UNL1       -0.0440
      7  C          7.8970    0.9290   -0.2510 C.2     1  UNL1        0.0080
      8  C          7.4750   -1.3740    0.2190 C.2     1  UNL1        0.0540
      9  C          8.4640    0.5460   -1.4530 C.2     1  UNL1        0.0510
     10  C          8.0490   -1.7560   -0.9970 C.2     1  UNL1        0.1660
     11  C          8.5480   -0.7880   -1.8400 C.2     1  UNL1        0.1650
     12  O          8.2480   -2.9810   -1.5980 O.2     1  UNL1       -0.4540
     13  O          9.0480   -1.4450   -2.9530 O.2     1  UNL1       -0.4540
     14  C          8.9610   -2.8420   -2.8010 C.3     1  UNL1        0.4680
@<TRIPOS>BOND
     1    13    14    1
     2    13    11    1
     3    14    12    1
     4    11     9    2
     5    11    10    1
     6    12    10    1
     7     9     7    1
     8    10     8    2
     9     7     6    2
    10     8     6    1
    11     6     5    1
    12     3     2    1
    13     2     1    1
    14     2     4    2
    15     5     1    1
