MODEL 1
REMARK VINA RESULT:      -7.6      0.000      0.000
REMARK SMILES CC(=O)CCc1ccc2c(c1)OCO2
REMARK SMILES IDX 4 1 2 2 1 3 3 4 5 5 6 6 7 7 11 8 8 9 10 10 9 11 12 12 14 13
REMARK SMILES IDX 13 14
REMARK H PARENT
REMARK Flexibility Score: inf
ROOT
ATOM      1  C   UNL     1       5.534   1.943   1.262  1.00  0.00     0.080 C 
ENDROOT
BRANCH   1   2
ATOM      2  C   UNL     1       5.115   0.721   2.005  1.00  0.00     0.130 C 
ATOM      3  C   UNL     1       6.034  -0.433   2.192  1.00  0.00     0.087 C 
ATOM      4  O   UNL     1       3.997   0.633   2.485  1.00  0.00    -0.300 OA
ENDBRANCH   1   2
BRANCH   1   5
ATOM      5  C   UNL     1       5.405   1.747  -0.235  1.00  0.00     0.043 C 
BRANCH   5   6
ATOM      6  C   UNL     1       6.570   1.038  -0.796  1.00  0.00    -0.044 A 
ATOM      7  C   UNL     1       7.879   1.463  -0.541  1.00  0.00     0.008 A 
ATOM      8  C   UNL     1       6.377  -0.070  -1.589  1.00  0.00     0.054 A 
ATOM      9  C   UNL     1       8.932   0.758  -1.093  1.00  0.00     0.051 A 
ATOM     10  C   UNL     1       7.445  -0.780  -2.145  1.00  0.00     0.166 A 
ATOM     11  C   UNL     1       8.734  -0.362  -1.895  1.00  0.00     0.165 A 
ATOM     12  O   UNL     1       7.514  -1.895  -2.953  1.00  0.00    -0.454 OA
ATOM     13  O   UNL     1       9.575  -1.239  -2.562  1.00  0.00    -0.454 OA
ATOM     14  C   UNL     1       8.847  -2.279  -3.171  1.00  0.00     0.468 C 
ENDBRANCH   5   6
ENDBRANCH   1   5
TORSDOF 3
ENDMDL
MODEL 2
REMARK VINA RESULT:      -7.4      1.903      2.372
REMARK SMILES CC(=O)CCc1ccc2c(c1)OCO2
REMARK SMILES IDX 4 1 2 2 1 3 3 4 5 5 6 6 7 7 11 8 8 9 10 10 9 11 12 12 14 13
REMARK SMILES IDX 13 14
REMARK H PARENT
REMARK Flexibility Score: inf
ROOT
ATOM      1  C   UNL     1       5.784   1.414  -0.355  1.00  0.00     0.080 C 
ENDROOT
BRANCH   1   2
ATOM      2  C   UNL     1       5.176   1.329   1.003  1.00  0.00     0.130 C 
ATOM      3  C   UNL     1       5.544   0.249   1.957  1.00  0.00     0.087 C 
ATOM      4  O   UNL     1       4.352   2.150   1.372  1.00  0.00    -0.300 OA
ENDBRANCH   1   2
BRANCH   1   5
ATOM      5  C   UNL     1       7.279   1.168  -0.304  1.00  0.00     0.043 C 
BRANCH   5   6
ATOM      6  C   UNL     1       7.641  -0.129  -0.903  1.00  0.00    -0.044 A 
ATOM      7  C   UNL     1       7.701  -0.304  -2.291  1.00  0.00     0.008 A 
ATOM      8  C   UNL     1       7.930  -1.200  -0.089  1.00  0.00     0.054 A 
ATOM      9  C   UNL     1       8.047  -1.544  -2.796  1.00  0.00     0.051 A 
ATOM     10  C   UNL     1       8.280  -2.451  -0.605  1.00  0.00     0.166 A 
ATOM     11  C   UNL     1       8.338  -2.625  -1.969  1.00  0.00     0.165 A 
ATOM     12  O   UNL     1       8.607  -3.653  -0.014  1.00  0.00    -0.454 OA
ATOM     13  O   UNL     1       8.705  -3.943  -2.191  1.00  0.00    -0.454 OA
ATOM     14  C   UNL     1       8.973  -4.606  -0.978  1.00  0.00     0.468 C 
ENDBRANCH   5   6
ENDBRANCH   1   5
TORSDOF 3
ENDMDL
MODEL 3
REMARK VINA RESULT:      -7.2      2.082      2.613
REMARK SMILES CC(=O)CCc1ccc2c(c1)OCO2
REMARK SMILES IDX 4 1 2 2 1 3 3 4 5 5 6 6 7 7 11 8 8 9 10 10 9 11 12 12 14 13
REMARK SMILES IDX 13 14
REMARK H PARENT
REMARK Flexibility Score: inf
ROOT
ATOM      1  C   UNL     1       5.602   0.065   1.960  1.00  0.00     0.080 C 
ENDROOT
BRANCH   1   2
ATOM      2  C   UNL     1       4.681   1.186   1.624  1.00  0.00     0.130 C 
ATOM      3  C   UNL     1       4.965   2.122   0.503  1.00  0.00     0.087 C 
ATOM      4  O   UNL     1       3.659   1.371   2.265  1.00  0.00    -0.300 OA
ENDBRANCH   1   2
BRANCH   1   5
ATOM      5  C   UNL     1       7.001   0.328   1.438  1.00  0.00     0.043 C 
BRANCH   5   6
ATOM      6  C   UNL     1       7.393  -0.652   0.409  1.00  0.00    -0.044 A 
ATOM      7  C   UNL     1       7.280  -0.366  -0.956  1.00  0.00     0.008 A 
ATOM      8  C   UNL     1       7.887  -1.879   0.788  1.00  0.00     0.054 A 
ATOM      9  C   UNL     1       7.664  -1.324  -1.877  1.00  0.00     0.051 A 
ATOM     10  C   UNL     1       8.275  -2.844  -0.146  1.00  0.00     0.166 A 
ATOM     11  C   UNL     1       8.162  -2.564  -1.490  1.00  0.00     0.165 A 
ATOM     12  O   UNL     1       8.786  -4.119  -0.024  1.00  0.00    -0.454 OA
ATOM     13  O   UNL     1       8.613  -3.684  -2.171  1.00  0.00    -0.454 OA
ATOM     14  C   UNL     1       9.103  -4.658  -1.281  1.00  0.00     0.468 C 
ENDBRANCH   5   6
ENDBRANCH   1   5
TORSDOF 3
ENDMDL
MODEL 4
REMARK VINA RESULT:      -7.1      1.248      1.450
REMARK SMILES CC(=O)CCc1ccc2c(c1)OCO2
REMARK SMILES IDX 4 1 2 2 1 3 3 4 5 5 6 6 7 7 11 8 8 9 10 10 9 11 12 12 14 13
REMARK SMILES IDX 13 14
REMARK H PARENT
REMARK Flexibility Score: inf
ROOT
ATOM      1  C   UNL     1       6.358   1.195   0.943  1.00  0.00     0.080 C 
ENDROOT
BRANCH   1   2
ATOM      2  C   UNL     1       5.658   0.358   1.958  1.00  0.00     0.130 C 
ATOM      3  C   UNL     1       6.286  -0.863   2.530  1.00  0.00     0.087 C 
ATOM      4  O   UNL     1       4.540   0.652   2.350  1.00  0.00    -0.300 OA
ENDBRANCH   1   2
BRANCH   1   5
ATOM      5  C   UNL     1       5.844   0.910  -0.454  1.00  0.00     0.043 C 
BRANCH   5   6
ATOM      6  C   UNL     1       6.799   0.102  -1.233  1.00  0.00    -0.044 A 
ATOM      7  C   UNL     1       7.490   0.635  -2.327  1.00  0.00     0.008 A 
ATOM      8  C   UNL     1       7.026  -1.210  -0.883  1.00  0.00     0.054 A 
ATOM      9  C   UNL     1       8.374  -0.171  -3.020  1.00  0.00     0.051 A 
ATOM     10  C   UNL     1       7.922  -2.021  -1.587  1.00  0.00     0.166 A 
ATOM     11  C   UNL     1       8.601  -1.497  -2.664  1.00  0.00     0.165 A 
ATOM     12  O   UNL     1       8.315  -3.334  -1.440  1.00  0.00    -0.454 OA
ATOM     13  O   UNL     1       9.407  -2.510  -3.161  1.00  0.00    -0.454 OA
ATOM     14  C   UNL     1       9.324  -3.664  -2.360  1.00  0.00     0.468 C 
ENDBRANCH   5   6
ENDBRANCH   1   5
TORSDOF 3
ENDMDL
MODEL 5
REMARK VINA RESULT:      -6.8      1.255      1.755
REMARK SMILES CC(=O)CCc1ccc2c(c1)OCO2
REMARK SMILES IDX 4 1 2 2 1 3 3 4 5 5 6 6 7 7 11 8 8 9 10 10 9 11 12 12 14 13
REMARK SMILES IDX 13 14
REMARK H PARENT
REMARK Flexibility Score: inf
ROOT
ATOM      1  C   UNL     1       5.308  -0.088   1.942  1.00  0.00     0.080 C 
ENDROOT
BRANCH   1   2
ATOM      2  C   UNL     1       4.437   1.111   1.785  1.00  0.00     0.130 C 
ATOM      3  C   UNL     1       4.717   2.150   0.758  1.00  0.00     0.087 C 
ATOM      4  O   UNL     1       3.462   1.276   2.500  1.00  0.00    -0.300 OA
ENDBRANCH   1   2
BRANCH   1   5
ATOM      5  C   UNL     1       6.776   0.289   1.899  1.00  0.00     0.043 C 
BRANCH   5   6
ATOM      6  C   UNL     1       7.390  -0.056   0.605  1.00  0.00    -0.044 A 
ATOM      7  C   UNL     1       7.897   0.929  -0.251  1.00  0.00     0.008 A 
ATOM      8  C   UNL     1       7.475  -1.374   0.219  1.00  0.00     0.054 A 
ATOM      9  C   UNL     1       8.464   0.546  -1.453  1.00  0.00     0.051 A 
ATOM     10  C   UNL     1       8.049  -1.756  -0.997  1.00  0.00     0.166 A 
ATOM     11  C   UNL     1       8.548  -0.788  -1.840  1.00  0.00     0.165 A 
ATOM     12  O   UNL     1       8.248  -2.981  -1.598  1.00  0.00    -0.454 OA
ATOM     13  O   UNL     1       9.048  -1.445  -2.953  1.00  0.00    -0.454 OA
ATOM     14  C   UNL     1       8.961  -2.842  -2.801  1.00  0.00     0.468 C 
ENDBRANCH   5   6
ENDBRANCH   1   5
TORSDOF 3
ENDMDL
