@<TRIPOS>MOLECULE
/home/cewinharhar/GITHUB/reincatalyze/data/processed/docking_pred/2023-May-30-2130_sub9_nm5_bs15_s42_ex16_mel10_mts10000_k50_ec05_g099_lra3e-4_lrc3e-3/80c9945afd0f5f9f0270d56cce32b054e5c09707_ligand_9.pdbqt
 14 15 0 0 0
SMALL
GASTEIGER

@<TRIPOS>ATOM
      1  C          5.5340    1.9430    1.2620 C.3     1  UNL1        0.0800
      2  C          5.1150    0.7210    2.0050 C.2     1  UNL1        0.1300
      3  C          6.0340   -0.4330    2.1920 C.3     1  UNL1        0.0870
      4  O          3.9970    0.6330    2.4850 O.2     1  UNL1       -0.3000
      5  C          5.4050    1.7470   -0.2350 C.3     1  UNL1        0.0430
      6  C          6.5700    1.0380   -0.7960 C.2     1  UNL1       -0.0440
      7  C          7.8790    1.4630   -0.5410 C.2     1  UNL1        0.0080
      8  C          6.3770   -0.0700   -1.5890 C.2     1  UNL1        0.0540
      9  C          8.9320    0.7580   -1.0930 C.2     1  UNL1        0.0510
     10  C          7.4450   -0.7800   -2.1450 C.2     1  UNL1        0.1660
     11  C          8.7340   -0.3620   -1.8950 C.2     1  UNL1        0.1650
     12  O          7.5140   -1.8950   -2.9530 O.2     1  UNL1       -0.4540
     13  O          9.5750   -1.2390   -2.5620 O.2     1  UNL1       -0.4540
     14  C          8.8470   -2.2790   -3.1710 C.3     1  UNL1        0.4680
@<TRIPOS>BOND
     1    14    12    1
     2    14    13    1
     3    12    10    1
     4    13    11    1
     5    10    11    2
     6    10     8    1
     7    11     9    1
     8     8     6    2
     9     9     7    2
    10     6     7    1
    11     6     5    1
    12     5     1    1
    13     1     2    1
    14     2     3    1
    15     2     4    2
