@<TRIPOS>MOLECULE
/home/cewinharhar/GITHUB/reincatalyze/data/processed/docking_pred/2023-May-30-2130_sub9_nm5_bs15_s42_ex16_mel10_mts10000_k50_ec05_g099_lra3e-4_lrc3e-3/80c9945afd0f5f9f0270d56cce32b054e5c09707_ligand_9.pdbqt
 14 15 0 0 0
SMALL
GASTEIGER

@<TRIPOS>ATOM
      1  C          6.3580    1.1950    0.9430 C.3     1  UNL1        0.0800
      2  C          5.6580    0.3580    1.9580 C.2     1  UNL1        0.1300
      3  C          6.2860   -0.8630    2.5300 C.3     1  UNL1        0.0870
      4  O          4.5400    0.6520    2.3500 O.2     1  UNL1       -0.3000
      5  C          5.8440    0.9100   -0.4540 C.3     1  UNL1        0.0430
      6  C          6.7990    0.1020   -1.2330 C.2     1  UNL1       -0.0440
      7  C          7.4900    0.6350   -2.3270 C.2     1  UNL1        0.0080
      8  C          7.0260   -1.2100   -0.8830 C.2     1  UNL1        0.0540
      9  C          8.3740   -0.1710   -3.0200 C.2     1  UNL1        0.0510
     10  C          7.9220   -2.0210   -1.5870 C.2     1  UNL1        0.1660
     11  C          8.6010   -1.4970   -2.6640 C.2     1  UNL1        0.1650
     12  O          8.3150   -3.3340   -1.4400 O.2     1  UNL1       -0.4540
     13  O          9.4070   -2.5100   -3.1610 O.2     1  UNL1       -0.4540
     14  C          9.3240   -3.6640   -2.3600 C.3     1  UNL1        0.4680
@<TRIPOS>BOND
     1    13    11    1
     2    13    14    1
     3     9    11    2
     4     9     7    1
     5    11    10    1
     6    14    12    1
     7     7     6    2
     8    10    12    1
     9    10     8    2
    10     6     8    1
    11     6     5    1
    12     5     1    1
    13     1     2    1
    14     2     4    2
    15     2     3    1
