@<TRIPOS>MOLECULE
/home/cewinharhar/GITHUB/reincatalyze/data/processed/docking_pred/2023-May-30-2130_sub9_nm5_bs15_s42_ex16_mel10_mts10000_k50_ec05_g099_lra3e-4_lrc3e-3/80ffcc0cdcaea1df7ad243f542ab1163fa4dc1ce_ligand_9.pdbqt
 14 15 0 0 0
SMALL
GASTEIGER

@<TRIPOS>ATOM
      1  C          5.7340    1.2860   -0.3060 C.3     1  UNL1        0.0800
      2  C          5.1640    1.2290    1.0690 C.2     1  UNL1        0.1300
      3  C          5.3830    0.0560    1.9570 C.3     1  UNL1        0.0870
      4  O          4.4950    2.1500    1.5090 O.2     1  UNL1       -0.3000
      5  C          7.2310    1.0490   -0.2920 C.3     1  UNL1        0.0430
      6  C          7.5850   -0.2470   -0.8980 C.2     1  UNL1       -0.0440
      7  C          7.5980   -0.4280   -2.2860 C.2     1  UNL1        0.0080
      8  C          7.9150   -1.3110   -0.0890 C.2     1  UNL1        0.0540
      9  C          7.9400   -1.6660   -2.7980 C.2     1  UNL1        0.0510
     10  C          8.2600   -2.5610   -0.6120 C.2     1  UNL1        0.1660
     11  C          8.2720   -2.7400   -1.9770 C.2     1  UNL1        0.1650
     12  O          8.6210   -3.7560   -0.0280 O.2     1  UNL1       -0.4540
     13  O          8.6450   -4.0550   -2.2060 O.2     1  UNL1       -0.4540
     14  C          8.9640   -4.7100   -1.0010 C.3     1  UNL1        0.4680
@<TRIPOS>BOND
     1     9     7    1
     2     9    11    2
     3     7     6    2
     4    13    11    1
     5    13    14    1
     6    11    10    1
     7    14    12    1
     8     6     5    1
     9     6     8    1
    10    10     8    2
    11    10    12    1
    12     1     5    1
    13     1     2    1
    14     2     4    2
    15     2     3    1
