@<TRIPOS>MOLECULE
/home/cewinharhar/GITHUB/reincatalyze/data/processed/docking_pred/2023-May-30-2130_sub9_nm5_bs15_s42_ex16_mel10_mts10000_k50_ec05_g099_lra3e-4_lrc3e-3/80ffcc0cdcaea1df7ad243f542ab1163fa4dc1ce_ligand_9.pdbqt
 14 15 0 0 0
SMALL
GASTEIGER

@<TRIPOS>ATOM
      1  C          5.5310   -0.0230    1.9480 C.3     1  UNL1        0.0800
      2  C          4.6550    1.1440    1.6480 C.2     1  UNL1        0.1300
      3  C          4.9580    2.0820    0.5340 C.3     1  UNL1        0.0870
      4  O          3.6560    1.3650    2.3130 O.2     1  UNL1       -0.3000
      5  C          6.9530    0.2220    1.4820 C.3     1  UNL1        0.0430
      6  C          7.3590   -0.7380    0.4400 C.2     1  UNL1       -0.0440
      7  C          7.2330   -0.4390   -0.9220 C.2     1  UNL1        0.0080
      8  C          7.8780   -1.9600    0.8030 C.2     1  UNL1        0.0540
      9  C          7.6320   -1.3780   -1.8550 C.2     1  UNL1        0.0510
     10  C          8.2810   -2.9060   -0.1450 C.2     1  UNL1        0.1660
     11  C          8.1560   -2.6130   -1.4850 C.2     1  UNL1        0.1650
     12  O          8.8180   -4.1720   -0.0400 O.2     1  UNL1       -0.4540
     13  O          8.6250   -3.7150   -2.1810 O.2     1  UNL1       -0.4540
     14  C          9.1380   -4.6900   -1.3050 C.3     1  UNL1        0.4680
@<TRIPOS>BOND
     1    13    11    1
     2    13    14    1
     3     9    11    2
     4     9     7    1
     5    11    10    1
     6    14    12    1
     7     7     6    2
     8    10    12    1
     9    10     8    2
    10     6     8    1
    11     6     5    1
    12     3     2    1
    13     5     1    1
    14     2     1    1
    15     2     4    2
