MODEL 1
REMARK VINA RESULT:      -7.7      0.000      0.000
REMARK SMILES CC(=O)CCc1ccc2c(c1)OCO2
REMARK SMILES IDX 4 1 2 2 1 3 3 4 5 5 6 6 7 7 11 8 8 9 10 10 9 11 12 12 14 13
REMARK SMILES IDX 13 14
REMARK H PARENT
REMARK Flexibility Score: inf
ROOT
ATOM      1  C   UNL     1       5.499   1.920   1.245  1.00  0.00     0.080 C 
ENDROOT
BRANCH   1   2
ATOM      2  C   UNL     1       5.030   0.717   1.987  1.00  0.00     0.130 C 
ATOM      3  C   UNL     1       5.875  -0.501   2.113  1.00  0.00     0.087 C 
ATOM      4  O   UNL     1       3.931   0.696   2.516  1.00  0.00    -0.300 OA
ENDBRANCH   1   2
BRANCH   1   5
ATOM      5  C   UNL     1       5.382   1.723  -0.254  1.00  0.00     0.043 C 
BRANCH   5   6
ATOM      6  C   UNL     1       6.557   1.024  -0.806  1.00  0.00    -0.044 A 
ATOM      7  C   UNL     1       7.860   1.456  -0.536  1.00  0.00     0.008 A 
ATOM      8  C   UNL     1       6.379  -0.083  -1.605  1.00  0.00     0.054 A 
ATOM      9  C   UNL     1       8.924   0.760  -1.081  1.00  0.00     0.051 A 
ATOM     10  C   UNL     1       7.457  -0.783  -2.153  1.00  0.00     0.166 A 
ATOM     11  C   UNL     1       8.741  -0.358  -1.889  1.00  0.00     0.165 A 
ATOM     12  O   UNL     1       7.541  -1.894  -2.965  1.00  0.00    -0.454 OA
ATOM     13  O   UNL     1       9.594  -1.227  -2.551  1.00  0.00    -0.454 OA
ATOM     14  C   UNL     1       8.879  -2.269  -3.171  1.00  0.00     0.468 C 
ENDBRANCH   5   6
ENDBRANCH   1   5
TORSDOF 3
ENDMDL
MODEL 2
REMARK VINA RESULT:      -7.5      1.934      2.424
REMARK SMILES CC(=O)CCc1ccc2c(c1)OCO2
REMARK SMILES IDX 4 1 2 2 1 3 3 4 5 5 6 6 7 7 11 8 8 9 10 10 9 11 12 12 14 13
REMARK SMILES IDX 13 14
REMARK H PARENT
REMARK Flexibility Score: inf
ROOT
ATOM      1  C   UNL     1       5.734   1.286  -0.306  1.00  0.00     0.080 C 
ENDROOT
BRANCH   1   2
ATOM      2  C   UNL     1       5.164   1.229   1.069  1.00  0.00     0.130 C 
ATOM      3  C   UNL     1       5.383   0.056   1.957  1.00  0.00     0.087 C 
ATOM      4  O   UNL     1       4.495   2.150   1.509  1.00  0.00    -0.300 OA
ENDBRANCH   1   2
BRANCH   1   5
ATOM      5  C   UNL     1       7.231   1.049  -0.292  1.00  0.00     0.043 C 
BRANCH   5   6
ATOM      6  C   UNL     1       7.585  -0.247  -0.898  1.00  0.00    -0.044 A 
ATOM      7  C   UNL     1       7.598  -0.428  -2.286  1.00  0.00     0.008 A 
ATOM      8  C   UNL     1       7.915  -1.311  -0.089  1.00  0.00     0.054 A 
ATOM      9  C   UNL     1       7.940  -1.666  -2.798  1.00  0.00     0.051 A 
ATOM     10  C   UNL     1       8.260  -2.561  -0.612  1.00  0.00     0.166 A 
ATOM     11  C   UNL     1       8.272  -2.740  -1.977  1.00  0.00     0.165 A 
ATOM     12  O   UNL     1       8.621  -3.756  -0.028  1.00  0.00    -0.454 OA
ATOM     13  O   UNL     1       8.645  -4.055  -2.206  1.00  0.00    -0.454 OA
ATOM     14  C   UNL     1       8.964  -4.710  -1.001  1.00  0.00     0.468 C 
ENDBRANCH   5   6
ENDBRANCH   1   5
TORSDOF 3
ENDMDL
MODEL 3
REMARK VINA RESULT:      -7.2      2.097      2.642
REMARK SMILES CC(=O)CCc1ccc2c(c1)OCO2
REMARK SMILES IDX 4 1 2 2 1 3 3 4 5 5 6 6 7 7 11 8 8 9 10 10 9 11 12 12 14 13
REMARK SMILES IDX 13 14
REMARK H PARENT
REMARK Flexibility Score: inf
ROOT
ATOM      1  C   UNL     1       5.531  -0.023   1.948  1.00  0.00     0.080 C 
ENDROOT
BRANCH   1   2
ATOM      2  C   UNL     1       4.655   1.144   1.648  1.00  0.00     0.130 C 
ATOM      3  C   UNL     1       4.958   2.082   0.534  1.00  0.00     0.087 C 
ATOM      4  O   UNL     1       3.656   1.365   2.313  1.00  0.00    -0.300 OA
ENDBRANCH   1   2
BRANCH   1   5
ATOM      5  C   UNL     1       6.953   0.222   1.482  1.00  0.00     0.043 C 
BRANCH   5   6
ATOM      6  C   UNL     1       7.359  -0.738   0.440  1.00  0.00    -0.044 A 
ATOM      7  C   UNL     1       7.233  -0.439  -0.922  1.00  0.00     0.008 A 
ATOM      8  C   UNL     1       7.878  -1.960   0.803  1.00  0.00     0.054 A 
ATOM      9  C   UNL     1       7.632  -1.378  -1.855  1.00  0.00     0.051 A 
ATOM     10  C   UNL     1       8.281  -2.906  -0.145  1.00  0.00     0.166 A 
ATOM     11  C   UNL     1       8.156  -2.613  -1.485  1.00  0.00     0.165 A 
ATOM     12  O   UNL     1       8.818  -4.172  -0.040  1.00  0.00    -0.454 OA
ATOM     13  O   UNL     1       8.625  -3.715  -2.181  1.00  0.00    -0.454 OA
ATOM     14  C   UNL     1       9.138  -4.690  -1.305  1.00  0.00     0.468 C 
ENDBRANCH   5   6
ENDBRANCH   1   5
TORSDOF 3
ENDMDL
MODEL 4
REMARK VINA RESULT:      -7.1      1.271      1.483
REMARK SMILES CC(=O)CCc1ccc2c(c1)OCO2
REMARK SMILES IDX 4 1 2 2 1 3 3 4 5 5 6 6 7 7 11 8 8 9 10 10 9 11 12 12 14 13
REMARK SMILES IDX 13 14
REMARK H PARENT
REMARK Flexibility Score: inf
ROOT
ATOM      1  C   UNL     1       6.390   1.210   0.941  1.00  0.00     0.080 C 
ENDROOT
BRANCH   1   2
ATOM      2  C   UNL     1       5.651   0.388   1.939  1.00  0.00     0.130 C 
ATOM      3  C   UNL     1       6.244  -0.841   2.531  1.00  0.00     0.087 C 
ATOM      4  O   UNL     1       4.529   0.702   2.302  1.00  0.00    -0.300 OA
ENDBRANCH   1   2
BRANCH   1   5
ATOM      5  C   UNL     1       5.887   0.953  -0.465  1.00  0.00     0.043 C 
BRANCH   5   6
ATOM      6  C   UNL     1       6.824   0.116  -1.236  1.00  0.00    -0.044 A 
ATOM      7  C   UNL     1       7.493   0.611  -2.361  1.00  0.00     0.008 A 
ATOM      8  C   UNL     1       7.055  -1.184  -0.848  1.00  0.00     0.054 A 
ATOM      9  C   UNL     1       8.362  -0.221  -3.045  1.00  0.00     0.051 A 
ATOM     10  C   UNL     1       7.934  -2.021  -1.543  1.00  0.00     0.166 A 
ATOM     11  C   UNL     1       8.592  -1.535  -2.650  1.00  0.00     0.165 A 
ATOM     12  O   UNL     1       8.327  -3.330  -1.361  1.00  0.00    -0.454 OA
ATOM     13  O   UNL     1       9.385  -2.566  -3.130  1.00  0.00    -0.454 OA
ATOM     14  C   UNL     1       9.316  -3.693  -2.289  1.00  0.00     0.468 C 
ENDBRANCH   5   6
ENDBRANCH   1   5
TORSDOF 3
ENDMDL
MODEL 5
REMARK VINA RESULT:      -6.8      1.194      5.181
REMARK SMILES CC(=O)CCc1ccc2c(c1)OCO2
REMARK SMILES IDX 4 1 2 2 1 3 3 4 5 5 6 6 7 7 11 8 8 9 10 10 9 11 12 12 14 13
REMARK SMILES IDX 13 14
REMARK H PARENT
REMARK Flexibility Score: inf
ROOT
ATOM      1  C   UNL     1       8.341   0.244  -2.584  1.00  0.00     0.080 C 
ENDROOT
BRANCH   1   2
ATOM      2  C   UNL     1       8.011  -1.203  -2.705  1.00  0.00     0.130 C 
ATOM      3  C   UNL     1       9.055  -2.219  -3.011  1.00  0.00     0.087 C 
ATOM      4  O   UNL     1       6.867  -1.600  -2.557  1.00  0.00    -0.300 OA
ENDBRANCH   1   2
BRANCH   1   5
ATOM      5  C   UNL     1       8.853   0.578  -1.197  1.00  0.00     0.043 C 
BRANCH   5   6
ATOM      6  C   UNL     1       7.798   0.441  -0.177  1.00  0.00    -0.044 A 
ATOM      7  C   UNL     1       7.878  -0.522   0.835  1.00  0.00     0.008 A 
ATOM      8  C   UNL     1       6.705   1.277  -0.210  1.00  0.00     0.054 A 
ATOM      9  C   UNL     1       6.858  -0.604   1.765  1.00  0.00     0.051 A 
ATOM     10  C   UNL     1       5.677   1.191   0.734  1.00  0.00     0.166 A 
ATOM     11  C   UNL     1       5.754   0.242   1.729  1.00  0.00     0.165 A 
ATOM     12  O   UNL     1       4.505   1.894   0.913  1.00  0.00    -0.454 OA
ATOM     13  O   UNL     1       4.616   0.385   2.507  1.00  0.00    -0.454 OA
ATOM     14  C   UNL     1       3.841   1.480   2.079  1.00  0.00     0.468 C 
ENDBRANCH   5   6
ENDBRANCH   1   5
TORSDOF 3
ENDMDL
