@<TRIPOS>MOLECULE
/home/cewinharhar/GITHUB/reincatalyze/data/processed/docking_pred/2023-May-30-2130_sub9_nm5_bs15_s42_ex16_mel10_mts10000_k50_ec05_g099_lra3e-4_lrc3e-3/80ffcc0cdcaea1df7ad243f542ab1163fa4dc1ce_ligand_9.pdbqt
 14 15 0 0 0
SMALL
GASTEIGER

@<TRIPOS>ATOM
      1  C          6.3900    1.2100    0.9410 C.3     1  UNL1        0.0800
      2  C          5.6510    0.3880    1.9390 C.2     1  UNL1        0.1300
      3  C          6.2440   -0.8410    2.5310 C.3     1  UNL1        0.0870
      4  O          4.5290    0.7020    2.3020 O.2     1  UNL1       -0.3000
      5  C          5.8870    0.9530   -0.4650 C.3     1  UNL1        0.0430
      6  C          6.8240    0.1160   -1.2360 C.2     1  UNL1       -0.0440
      7  C          7.4930    0.6110   -2.3610 C.2     1  UNL1        0.0080
      8  C          7.0550   -1.1840   -0.8480 C.2     1  UNL1        0.0540
      9  C          8.3620   -0.2210   -3.0450 C.2     1  UNL1        0.0510
     10  C          7.9340   -2.0210   -1.5430 C.2     1  UNL1        0.1660
     11  C          8.5920   -1.5350   -2.6500 C.2     1  UNL1        0.1650
     12  O          8.3270   -3.3300   -1.3610 O.2     1  UNL1       -0.4540
     13  O          9.3850   -2.5660   -3.1300 O.2     1  UNL1       -0.4540
     14  C          9.3160   -3.6930   -2.2890 C.3     1  UNL1        0.4680
@<TRIPOS>BOND
     1    13    11    1
     2    13    14    1
     3     9    11    2
     4     9     7    1
     5    11    10    1
     6     7     6    2
     7    14    12    1
     8    10    12    1
     9    10     8    2
    10     6     8    1
    11     6     5    1
    12     5     1    1
    13     1     2    1
    14     2     4    2
    15     2     3    1
