@<TRIPOS>MOLECULE
/home/cewinharhar/GITHUB/reincatalyze/data/processed/docking_pred/2023-May-30-2130_sub9_nm5_bs15_s42_ex16_mel10_mts10000_k50_ec05_g099_lra3e-4_lrc3e-3/81487a167534eaf1a49a57d95a0bec7d9495d7bd_ligand_9.pdbqt
 14 15 0 0 0
SMALL
GASTEIGER

@<TRIPOS>ATOM
      1  C          6.3820    1.1870    0.8950 C.3     1  UNL1        0.0800
      2  C          5.6800    0.3850    1.9350 C.2     1  UNL1        0.1300
      3  C          6.2870   -0.8420    2.5170 C.3     1  UNL1        0.0870
      4  O          4.5780    0.7140    2.3420 O.2     1  UNL1       -0.3000
      5  C          5.8620    0.8650   -0.4920 C.3     1  UNL1        0.0430
      6  C          6.8210    0.0510   -1.2600 C.2     1  UNL1       -0.0440
      7  C          7.5200    0.5760   -2.3520 C.2     1  UNL1        0.0080
      8  C          7.0430   -1.2590   -0.9010 C.2     1  UNL1        0.0540
      9  C          8.4070   -0.2350   -3.0350 C.2     1  UNL1        0.0510
     10  C          7.9420   -2.0760   -1.5940 C.2     1  UNL1        0.1660
     11  C          8.6290   -1.5600   -2.6700 C.2     1  UNL1        0.1650
     12  O          8.3320   -3.3890   -1.4370 O.2     1  UNL1       -0.4540
     13  O          9.4360   -2.5770   -3.1550 O.2     1  UNL1       -0.4540
     14  C          9.3470   -3.7260   -2.3480 C.3     1  UNL1        0.4680
@<TRIPOS>BOND
     1    13    11    1
     2    13    14    1
     3     9    11    2
     4     9     7    1
     5    11    10    1
     6     7     6    2
     7    14    12    1
     8    10    12    1
     9    10     8    2
    10     6     8    1
    11     6     5    1
    12     5     1    1
    13     1     2    1
    14     2     4    2
    15     2     3    1
