@<TRIPOS>MOLECULE
/home/cewinharhar/GITHUB/reincatalyze/data/processed/docking_pred/2023-May-30-2130_sub9_nm5_bs15_s42_ex16_mel10_mts10000_k50_ec05_g099_lra3e-4_lrc3e-3/81487a167534eaf1a49a57d95a0bec7d9495d7bd_ligand_9.pdbqt
 14 15 0 0 0
SMALL
GASTEIGER

@<TRIPOS>ATOM
      1  C          6.8410    0.6200    1.2080 C.3     1  UNL1        0.0800
      2  C          5.4520    1.1270    1.3850 C.2     1  UNL1        0.1300
      3  C          4.8710    2.1480    0.4740 C.3     1  UNL1        0.0870
      4  O          4.7450    0.7150    2.2910 O.2     1  UNL1       -0.3000
      5  C          7.3260    0.8270   -0.2130 C.3     1  UNL1        0.0430
      6  C          7.7510   -0.4390   -0.8350 C.2     1  UNL1       -0.0440
      7  C          7.9620   -0.5430   -2.2150 C.2     1  UNL1        0.0080
      8  C          7.9520   -1.5520   -0.0510 C.2     1  UNL1        0.0540
      9  C          8.3610   -1.7570   -2.7440 C.2     1  UNL1        0.0510
     10  C          8.3570   -2.7760   -0.5890 C.2     1  UNL1        0.1660
     11  C          8.5630   -2.8800   -1.9470 C.2     1  UNL1        0.1650
     12  O          8.6190   -4.0090   -0.0290 O.2     1  UNL1       -0.4540
     13  O          8.9520   -4.1870   -2.1950 O.2     1  UNL1       -0.4540
     14  C          9.0880   -4.9130   -0.9970 C.3     1  UNL1        0.4680
@<TRIPOS>BOND
     1     9     7    1
     2     9    11    2
     3     7     6    2
     4    13    11    1
     5    13    14    1
     6    11    10    1
     7    14    12    1
     8     6     5    1
     9     6     8    1
    10    10     8    2
    11    10    12    1
    12     5     1    1
    13     3     2    1
    14     1     2    1
    15     2     4    2
