MODEL 1
REMARK VINA RESULT:      -7.6      0.000      0.000
REMARK SMILES CC(=O)CCc1ccc2c(c1)OCO2
REMARK SMILES IDX 4 1 2 2 1 3 3 4 5 5 6 6 7 7 11 8 8 9 10 10 9 11 12 12 14 13
REMARK SMILES IDX 13 14
REMARK H PARENT
REMARK Flexibility Score: inf
ROOT
ATOM      1  C   UNL     1       5.554   1.903   1.277  1.00  0.00     0.080 C 
ENDROOT
BRANCH   1   2
ATOM      2  C   UNL     1       5.113   0.684   2.011  1.00  0.00     0.130 C 
ATOM      3  C   UNL     1       6.011  -0.489   2.185  1.00  0.00     0.087 C 
ATOM      4  O   UNL     1       3.995   0.613   2.494  1.00  0.00    -0.300 OA
ENDBRANCH   1   2
BRANCH   1   5
ATOM      5  C   UNL     1       5.423   1.721  -0.222  1.00  0.00     0.043 C 
BRANCH   5   6
ATOM      6  C   UNL     1       6.587   1.018  -0.790  1.00  0.00    -0.044 A 
ATOM      7  C   UNL     1       7.896   1.447  -0.542  1.00  0.00     0.008 A 
ATOM      8  C   UNL     1       6.394  -0.090  -1.584  1.00  0.00     0.054 A 
ATOM      9  C   UNL     1       8.949   0.747  -1.102  1.00  0.00     0.051 A 
ATOM     10  C   UNL     1       7.462  -0.794  -2.147  1.00  0.00     0.166 A 
ATOM     11  C   UNL     1       8.750  -0.372  -1.904  1.00  0.00     0.165 A 
ATOM     12  O   UNL     1       7.530  -1.907  -2.958  1.00  0.00    -0.454 OA
ATOM     13  O   UNL     1       9.591  -1.244  -2.577  1.00  0.00    -0.454 OA
ATOM     14  C   UNL     1       8.864  -2.285  -3.184  1.00  0.00     0.468 C 
ENDBRANCH   5   6
ENDBRANCH   1   5
TORSDOF 3
ENDMDL
MODEL 2
REMARK VINA RESULT:      -7.5      1.925      2.383
REMARK SMILES CC(=O)CCc1ccc2c(c1)OCO2
REMARK SMILES IDX 4 1 2 2 1 3 3 4 5 5 6 6 7 7 11 8 8 9 10 10 9 11 12 12 14 13
REMARK SMILES IDX 13 14
REMARK H PARENT
REMARK Flexibility Score: inf
ROOT
ATOM      1  C   UNL     1       5.727   1.371  -0.322  1.00  0.00     0.080 C 
ENDROOT
BRANCH   1   2
ATOM      2  C   UNL     1       5.100   1.287   1.026  1.00  0.00     0.130 C 
ATOM      3  C   UNL     1       5.387   0.160   1.953  1.00  0.00     0.087 C 
ATOM      4  O   UNL     1       4.325   2.148   1.411  1.00  0.00    -0.300 OA
ENDBRANCH   1   2
BRANCH   1   5
ATOM      5  C   UNL     1       7.221   1.124  -0.250  1.00  0.00     0.043 C 
BRANCH   5   6
ATOM      6  C   UNL     1       7.592  -0.169  -0.852  1.00  0.00    -0.044 A 
ATOM      7  C   UNL     1       7.650  -0.341  -2.240  1.00  0.00     0.008 A 
ATOM      8  C   UNL     1       7.891  -1.239  -0.040  1.00  0.00     0.054 A 
ATOM      9  C   UNL     1       8.005  -1.577  -2.748  1.00  0.00     0.051 A 
ATOM     10  C   UNL     1       8.250  -2.487  -0.559  1.00  0.00     0.166 A 
ATOM     11  C   UNL     1       8.307  -2.657  -1.924  1.00  0.00     0.165 A 
ATOM     12  O   UNL     1       8.587  -3.687   0.029  1.00  0.00    -0.454 OA
ATOM     13  O   UNL     1       8.683  -3.972  -2.149  1.00  0.00    -0.454 OA
ATOM     14  C   UNL     1       8.959  -4.635  -0.938  1.00  0.00     0.468 C 
ENDBRANCH   5   6
ENDBRANCH   1   5
TORSDOF 3
ENDMDL
MODEL 3
REMARK VINA RESULT:      -7.1      2.094      2.645
REMARK SMILES CC(=O)CCc1ccc2c(c1)OCO2
REMARK SMILES IDX 4 1 2 2 1 3 3 4 5 5 6 6 7 7 11 8 8 9 10 10 9 11 12 12 14 13
REMARK SMILES IDX 13 14
REMARK H PARENT
REMARK Flexibility Score: inf
ROOT
ATOM      1  C   UNL     1       5.520  -0.032   1.953  1.00  0.00     0.080 C 
ENDROOT
BRANCH   1   2
ATOM      2  C   UNL     1       4.662   1.150   1.659  1.00  0.00     0.130 C 
ATOM      3  C   UNL     1       4.997   2.107   0.571  1.00  0.00     0.087 C 
ATOM      4  O   UNL     1       3.652   1.368   2.309  1.00  0.00    -0.300 OA
ENDBRANCH   1   2
BRANCH   1   5
ATOM      5  C   UNL     1       6.951   0.203   1.512  1.00  0.00     0.043 C 
BRANCH   5   6
ATOM      6  C   UNL     1       7.363  -0.749   0.466  1.00  0.00    -0.044 A 
ATOM      7  C   UNL     1       7.250  -0.439  -0.895  1.00  0.00     0.008 A 
ATOM      8  C   UNL     1       7.876  -1.975   0.823  1.00  0.00     0.054 A 
ATOM      9  C   UNL     1       7.654  -1.373  -1.832  1.00  0.00     0.051 A 
ATOM     10  C   UNL     1       8.284  -2.915  -0.128  1.00  0.00     0.166 A 
ATOM     11  C   UNL     1       8.172  -2.612  -1.466  1.00  0.00     0.165 A 
ATOM     12  O   UNL     1       8.817  -4.183  -0.028  1.00  0.00    -0.454 OA
ATOM     13  O   UNL     1       8.643  -3.710  -2.168  1.00  0.00    -0.454 OA
ATOM     14  C   UNL     1       9.147  -4.693  -1.295  1.00  0.00     0.468 C 
ENDBRANCH   5   6
ENDBRANCH   1   5
TORSDOF 3
ENDMDL
MODEL 4
REMARK VINA RESULT:      -7.1      1.256      1.478
REMARK SMILES CC(=O)CCc1ccc2c(c1)OCO2
REMARK SMILES IDX 4 1 2 2 1 3 3 4 5 5 6 6 7 7 11 8 8 9 10 10 9 11 12 12 14 13
REMARK SMILES IDX 13 14
REMARK H PARENT
REMARK Flexibility Score: inf
ROOT
ATOM      1  C   UNL     1       6.382   1.187   0.895  1.00  0.00     0.080 C 
ENDROOT
BRANCH   1   2
ATOM      2  C   UNL     1       5.680   0.385   1.935  1.00  0.00     0.130 C 
ATOM      3  C   UNL     1       6.287  -0.842   2.517  1.00  0.00     0.087 C 
ATOM      4  O   UNL     1       4.578   0.714   2.342  1.00  0.00    -0.300 OA
ENDBRANCH   1   2
BRANCH   1   5
ATOM      5  C   UNL     1       5.862   0.865  -0.492  1.00  0.00     0.043 C 
BRANCH   5   6
ATOM      6  C   UNL     1       6.821   0.051  -1.260  1.00  0.00    -0.044 A 
ATOM      7  C   UNL     1       7.520   0.576  -2.352  1.00  0.00     0.008 A 
ATOM      8  C   UNL     1       7.043  -1.259  -0.901  1.00  0.00     0.054 A 
ATOM      9  C   UNL     1       8.407  -0.235  -3.035  1.00  0.00     0.051 A 
ATOM     10  C   UNL     1       7.942  -2.076  -1.594  1.00  0.00     0.166 A 
ATOM     11  C   UNL     1       8.629  -1.560  -2.670  1.00  0.00     0.165 A 
ATOM     12  O   UNL     1       8.332  -3.389  -1.437  1.00  0.00    -0.454 OA
ATOM     13  O   UNL     1       9.436  -2.577  -3.155  1.00  0.00    -0.454 OA
ATOM     14  C   UNL     1       9.347  -3.726  -2.348  1.00  0.00     0.468 C 
ENDBRANCH   5   6
ENDBRANCH   1   5
TORSDOF 3
ENDMDL
MODEL 5
REMARK VINA RESULT:      -7.0      2.017      2.609
REMARK SMILES CC(=O)CCc1ccc2c(c1)OCO2
REMARK SMILES IDX 4 1 2 2 1 3 3 4 5 5 6 6 7 7 11 8 8 9 10 10 9 11 12 12 14 13
REMARK SMILES IDX 13 14
REMARK H PARENT
REMARK Flexibility Score: inf
ROOT
ATOM      1  C   UNL     1       6.841   0.620   1.208  1.00  0.00     0.080 C 
ENDROOT
BRANCH   1   2
ATOM      2  C   UNL     1       5.452   1.127   1.385  1.00  0.00     0.130 C 
ATOM      3  C   UNL     1       4.871   2.148   0.474  1.00  0.00     0.087 C 
ATOM      4  O   UNL     1       4.745   0.715   2.291  1.00  0.00    -0.300 OA
ENDBRANCH   1   2
BRANCH   1   5
ATOM      5  C   UNL     1       7.326   0.827  -0.213  1.00  0.00     0.043 C 
BRANCH   5   6
ATOM      6  C   UNL     1       7.751  -0.439  -0.835  1.00  0.00    -0.044 A 
ATOM      7  C   UNL     1       7.962  -0.543  -2.215  1.00  0.00     0.008 A 
ATOM      8  C   UNL     1       7.952  -1.552  -0.051  1.00  0.00     0.054 A 
ATOM      9  C   UNL     1       8.361  -1.757  -2.744  1.00  0.00     0.051 A 
ATOM     10  C   UNL     1       8.357  -2.776  -0.589  1.00  0.00     0.166 A 
ATOM     11  C   UNL     1       8.563  -2.880  -1.947  1.00  0.00     0.165 A 
ATOM     12  O   UNL     1       8.619  -4.009  -0.029  1.00  0.00    -0.454 OA
ATOM     13  O   UNL     1       8.952  -4.187  -2.195  1.00  0.00    -0.454 OA
ATOM     14  C   UNL     1       9.088  -4.913  -0.997  1.00  0.00     0.468 C 
ENDBRANCH   5   6
ENDBRANCH   1   5
TORSDOF 3
ENDMDL
