@<TRIPOS>MOLECULE
/home/cewinharhar/GITHUB/reincatalyze/data/processed/docking_pred/2023-May-30-2130_sub9_nm5_bs15_s42_ex16_mel10_mts10000_k50_ec05_g099_lra3e-4_lrc3e-3/81487a167534eaf1a49a57d95a0bec7d9495d7bd_ligand_9.pdbqt
 14 15 0 0 0
SMALL
GASTEIGER

@<TRIPOS>ATOM
      1  C          5.5540    1.9030    1.2770 C.3     1  UNL1        0.0800
      2  C          5.1130    0.6840    2.0110 C.2     1  UNL1        0.1300
      3  C          6.0110   -0.4890    2.1850 C.3     1  UNL1        0.0870
      4  O          3.9950    0.6130    2.4940 O.2     1  UNL1       -0.3000
      5  C          5.4230    1.7210   -0.2220 C.3     1  UNL1        0.0430
      6  C          6.5870    1.0180   -0.7900 C.2     1  UNL1       -0.0440
      7  C          7.8960    1.4470   -0.5420 C.2     1  UNL1        0.0080
      8  C          6.3940   -0.0900   -1.5840 C.2     1  UNL1        0.0540
      9  C          8.9490    0.7470   -1.1020 C.2     1  UNL1        0.0510
     10  C          7.4620   -0.7940   -2.1470 C.2     1  UNL1        0.1660
     11  C          8.7500   -0.3720   -1.9040 C.2     1  UNL1        0.1650
     12  O          7.5300   -1.9070   -2.9580 O.2     1  UNL1       -0.4540
     13  O          9.5910   -1.2440   -2.5770 O.2     1  UNL1       -0.4540
     14  C          8.8640   -2.2850   -3.1840 C.3     1  UNL1        0.4680
@<TRIPOS>BOND
     1    14    12    1
     2    14    13    1
     3    12    10    1
     4    13    11    1
     5    10    11    2
     6    10     8    1
     7    11     9    1
     8     8     6    2
     9     9     7    2
    10     6     7    1
    11     6     5    1
    12     5     1    1
    13     1     2    1
    14     2     3    1
    15     2     4    2
