@<TRIPOS>MOLECULE
/home/cewinharhar/GITHUB/reincatalyze/data/processed/docking_pred/2023-May-30-2130_sub9_nm5_bs15_s42_ex16_mel10_mts10000_k50_ec05_g099_lra3e-4_lrc3e-3/81ff0f658bd0aa2f33395d99e175a968986a195e_ligand_9.pdbqt
 14 15 0 0 0
SMALL
GASTEIGER

@<TRIPOS>ATOM
      1  C          5.4940    1.9540    1.2390 C.3     1  UNL1        0.0800
      2  C          5.0250    0.7530    1.9850 C.2     1  UNL1        0.1300
      3  C          5.8730   -0.4610    2.1240 C.3     1  UNL1        0.0870
      4  O          3.9220    0.7310    2.5060 O.2     1  UNL1       -0.3000
      5  C          5.3780    1.7520   -0.2590 C.3     1  UNL1        0.0430
      6  C          6.5510    1.0500   -0.8080 C.2     1  UNL1       -0.0440
      7  C          7.8560    1.4780   -0.5370 C.2     1  UNL1        0.0080
      8  C          6.3720   -0.0560   -1.6080 C.2     1  UNL1        0.0540
      9  C          8.9180    0.7790   -1.0790 C.2     1  UNL1        0.0510
     10  C          7.4500   -0.7600   -2.1540 C.2     1  UNL1        0.1660
     11  C          8.7330   -0.3380   -1.8880 C.2     1  UNL1        0.1650
     12  O          7.5320   -1.8710   -2.9660 O.2     1  UNL1       -0.4540
     13  O          9.5860   -1.2090   -2.5480 O.2     1  UNL1       -0.4540
     14  C          8.8690   -2.2490   -3.1690 C.3     1  UNL1        0.4680
@<TRIPOS>BOND
     1    14    12    1
     2    14    13    1
     3    12    10    1
     4    13    11    1
     5    10    11    2
     6    10     8    1
     7    11     9    1
     8     8     6    2
     9     9     7    2
    10     6     7    1
    11     6     5    1
    12     5     1    1
    13     1     2    1
    14     2     3    1
    15     2     4    2
