@<TRIPOS>MOLECULE
/home/cewinharhar/GITHUB/reincatalyze/data/processed/docking_pred/2023-May-30-2130_sub9_nm5_bs15_s42_ex16_mel10_mts10000_k50_ec05_g099_lra3e-4_lrc3e-3/81ff0f658bd0aa2f33395d99e175a968986a195e_ligand_9.pdbqt
 14 15 0 0 0
SMALL
GASTEIGER

@<TRIPOS>ATOM
      1  C          5.5730   -0.2900    1.9540 C.3     1  UNL1        0.0800
      2  C          5.3560    0.9470    1.1530 C.2     1  UNL1        0.1300
      3  C          5.9120    1.0960   -0.2180 C.3     1  UNL1        0.0870
      4  O          4.7100    1.8800    1.6030 O.2     1  UNL1       -0.3000
      5  C          6.5610   -1.2180    1.2770 C.3     1  UNL1        0.0430
      6  C          7.6800   -1.5700    2.1700 C.2     1  UNL1       -0.0440
      7  C          7.6790   -1.2120    3.5230 C.2     1  UNL1        0.0080
      8  C          8.7550   -2.2700    1.6720 C.2     1  UNL1        0.0540
      9  C          8.7560   -1.5700    4.3120 C.2     1  UNL1        0.0510
     10  C          9.8420   -2.6310    2.4750 C.2     1  UNL1        0.1660
     11  C          9.8420   -2.2780    3.8060 C.2     1  UNL1        0.1650
     12  O         11.0110   -3.3150    2.2210 O.2     1  UNL1       -0.4540
     13  O         11.0240   -2.7580    4.3480 O.2     1  UNL1       -0.4540
     14  C         11.7530   -3.5010    3.3990 C.3     1  UNL1        0.4680
@<TRIPOS>BOND
     1     3     2    1
     2     2     4    2
     3     2     1    1
     4     5     1    1
     5     5     6    1
     6     8     6    2
     7     8    10    1
     8     6     7    1
     9    12    10    1
    10    12    14    1
    11    10    11    2
    12    14    13    1
    13     7     9    2
    14    11     9    1
    15    11    13    1
