@<TRIPOS>MOLECULE
/home/cewinharhar/GITHUB/reincatalyze/data/processed/docking_pred/2023-May-30-2130_sub9_nm5_bs15_s42_ex16_mel10_mts10000_k50_ec05_g099_lra3e-4_lrc3e-3/81ff0f658bd0aa2f33395d99e175a968986a195e_ligand_9.pdbqt
 14 15 0 0 0
SMALL
GASTEIGER

@<TRIPOS>ATOM
      1  C          6.4880    0.3520    1.5340 C.3     1  UNL1        0.0800
      2  C          6.0620    0.8090    0.1820 C.2     1  UNL1        0.1300
      3  C          5.2560    2.0440   -0.0070 C.3     1  UNL1        0.0870
      4  O          6.3640    0.1760   -0.8170 O.2     1  UNL1       -0.3000
      5  C          6.6260   -1.1560    1.5880 C.3     1  UNL1        0.0430
      6  C          7.7850   -1.5710    2.3990 C.2     1  UNL1       -0.0440
      7  C          7.8710   -1.2680    3.7630 C.2     1  UNL1        0.0080
      8  C          8.8120   -2.2750    1.8120 C.2     1  UNL1        0.0540
      9  C          8.9820   -1.6830    4.4740 C.2     1  UNL1        0.0510
     10  C          9.9330   -2.6930    2.5350 C.2     1  UNL1        0.1660
     11  C         10.0190   -2.3950    3.8770 C.2     1  UNL1        0.1650
     12  O         11.0680   -3.3940    2.1870 O.2     1  UNL1       -0.4540
     13  O         11.2170   -2.9250    4.3290 O.2     1  UNL1       -0.4540
     14  C         11.8710   -3.6450    3.3120 C.3     1  UNL1        0.4680
@<TRIPOS>BOND
     1     4     2    2
     2     3     2    1
     3     2     1    1
     4     1     5    1
     5     5     6    1
     6     8     6    2
     7     8    10    1
     8    12    10    1
     9    12    14    1
    10     6     7    1
    11    10    11    2
    12    14    13    1
    13     7     9    2
    14    11    13    1
    15    11     9    1
