MODEL 1
REMARK VINA RESULT:      -7.5      0.000      0.000
REMARK SMILES CC(=O)CCc1ccc2c(c1)OCO2
REMARK SMILES IDX 4 1 2 2 1 3 3 4 5 5 6 6 7 7 11 8 8 9 10 10 9 11 12 12 14 13
REMARK SMILES IDX 13 14
REMARK H PARENT
REMARK Flexibility Score: inf
ROOT
ATOM      1  C   UNL     1       5.573  -0.290   1.954  1.00  0.00     0.080 C 
ENDROOT
BRANCH   1   2
ATOM      2  C   UNL     1       5.356   0.947   1.153  1.00  0.00     0.130 C 
ATOM      3  C   UNL     1       5.912   1.096  -0.218  1.00  0.00     0.087 C 
ATOM      4  O   UNL     1       4.710   1.880   1.603  1.00  0.00    -0.300 OA
ENDBRANCH   1   2
BRANCH   1   5
ATOM      5  C   UNL     1       6.561  -1.218   1.277  1.00  0.00     0.043 C 
BRANCH   5   6
ATOM      6  C   UNL     1       7.680  -1.570   2.170  1.00  0.00    -0.044 A 
ATOM      7  C   UNL     1       7.679  -1.212   3.523  1.00  0.00     0.008 A 
ATOM      8  C   UNL     1       8.755  -2.270   1.672  1.00  0.00     0.054 A 
ATOM      9  C   UNL     1       8.756  -1.570   4.312  1.00  0.00     0.051 A 
ATOM     10  C   UNL     1       9.842  -2.631   2.475  1.00  0.00     0.166 A 
ATOM     11  C   UNL     1       9.842  -2.278   3.806  1.00  0.00     0.165 A 
ATOM     12  O   UNL     1      11.011  -3.315   2.221  1.00  0.00    -0.454 OA
ATOM     13  O   UNL     1      11.024  -2.758   4.348  1.00  0.00    -0.454 OA
ATOM     14  C   UNL     1      11.753  -3.501   3.399  1.00  0.00     0.468 C 
ENDBRANCH   5   6
ENDBRANCH   1   5
TORSDOF 3
ENDMDL
MODEL 2
REMARK VINA RESULT:      -7.3      3.889      4.932
REMARK SMILES CC(=O)CCc1ccc2c(c1)OCO2
REMARK SMILES IDX 4 1 2 2 1 3 3 4 5 5 6 6 7 7 11 8 8 9 10 10 9 11 12 12 14 13
REMARK SMILES IDX 13 14
REMARK H PARENT
REMARK Flexibility Score: inf
ROOT
ATOM      1  C   UNL     1       5.494   1.954   1.239  1.00  0.00     0.080 C 
ENDROOT
BRANCH   1   2
ATOM      2  C   UNL     1       5.025   0.753   1.985  1.00  0.00     0.130 C 
ATOM      3  C   UNL     1       5.873  -0.461   2.124  1.00  0.00     0.087 C 
ATOM      4  O   UNL     1       3.922   0.731   2.506  1.00  0.00    -0.300 OA
ENDBRANCH   1   2
BRANCH   1   5
ATOM      5  C   UNL     1       5.378   1.752  -0.259  1.00  0.00     0.043 C 
BRANCH   5   6
ATOM      6  C   UNL     1       6.551   1.050  -0.808  1.00  0.00    -0.044 A 
ATOM      7  C   UNL     1       7.856   1.478  -0.537  1.00  0.00     0.008 A 
ATOM      8  C   UNL     1       6.372  -0.056  -1.608  1.00  0.00     0.054 A 
ATOM      9  C   UNL     1       8.918   0.779  -1.079  1.00  0.00     0.051 A 
ATOM     10  C   UNL     1       7.450  -0.760  -2.154  1.00  0.00     0.166 A 
ATOM     11  C   UNL     1       8.733  -0.338  -1.888  1.00  0.00     0.165 A 
ATOM     12  O   UNL     1       7.532  -1.871  -2.966  1.00  0.00    -0.454 OA
ATOM     13  O   UNL     1       9.586  -1.209  -2.548  1.00  0.00    -0.454 OA
ATOM     14  C   UNL     1       8.869  -2.249  -3.169  1.00  0.00     0.468 C 
ENDBRANCH   5   6
ENDBRANCH   1   5
TORSDOF 3
ENDMDL
MODEL 3
REMARK VINA RESULT:      -7.0      0.972      1.914
REMARK SMILES CC(=O)CCc1ccc2c(c1)OCO2
REMARK SMILES IDX 4 1 2 2 1 3 3 4 5 5 6 6 7 7 11 8 8 9 10 10 9 11 12 12 14 13
REMARK SMILES IDX 13 14
REMARK H PARENT
REMARK Flexibility Score: inf
ROOT
ATOM      1  C   UNL     1       5.414   0.038   2.000  1.00  0.00     0.080 C 
ENDROOT
BRANCH   1   2
ATOM      2  C   UNL     1       5.239   1.142   1.014  1.00  0.00     0.130 C 
ATOM      3  C   UNL     1       5.890   1.105  -0.322  1.00  0.00     0.087 C 
ATOM      4  O   UNL     1       4.550   2.114   1.279  1.00  0.00    -0.300 OA
ENDBRANCH   1   2
BRANCH   1   5
ATOM      5  C   UNL     1       6.066  -1.172   1.361  1.00  0.00     0.043 C 
BRANCH   5   6
ATOM      6  C   UNL     1       7.329  -1.530   2.031  1.00  0.00    -0.044 A 
ATOM      7  C   UNL     1       8.335  -2.243   1.368  1.00  0.00     0.008 A 
ATOM      8  C   UNL     1       7.537  -1.156   3.339  1.00  0.00     0.054 A 
ATOM      9  C   UNL     1       9.499  -2.549   2.047  1.00  0.00     0.051 A 
ATOM     10  C   UNL     1       8.716  -1.469   4.022  1.00  0.00     0.166 A 
ATOM     11  C   UNL     1       9.706  -2.171   3.371  1.00  0.00     0.165 A 
ATOM     12  O   UNL     1       9.155  -1.215   5.304  1.00  0.00    -0.454 OA
ATOM     13  O   UNL     1      10.743  -2.336   4.275  1.00  0.00    -0.454 OA
ATOM     14  C   UNL     1      10.473  -1.667   5.484  1.00  0.00     0.468 C 
ENDBRANCH   5   6
ENDBRANCH   1   5
TORSDOF 3
ENDMDL
MODEL 4
REMARK VINA RESULT:      -7.0      1.042      1.080
REMARK SMILES CC(=O)CCc1ccc2c(c1)OCO2
REMARK SMILES IDX 4 1 2 2 1 3 3 4 5 5 6 6 7 7 11 8 8 9 10 10 9 11 12 12 14 13
REMARK SMILES IDX 13 14
REMARK H PARENT
REMARK Flexibility Score: inf
ROOT
ATOM      1  C   UNL     1       6.488   0.352   1.534  1.00  0.00     0.080 C 
ENDROOT
BRANCH   1   2
ATOM      2  C   UNL     1       6.062   0.809   0.182  1.00  0.00     0.130 C 
ATOM      3  C   UNL     1       5.256   2.044  -0.007  1.00  0.00     0.087 C 
ATOM      4  O   UNL     1       6.364   0.176  -0.817  1.00  0.00    -0.300 OA
ENDBRANCH   1   2
BRANCH   1   5
ATOM      5  C   UNL     1       6.626  -1.156   1.588  1.00  0.00     0.043 C 
BRANCH   5   6
ATOM      6  C   UNL     1       7.785  -1.571   2.399  1.00  0.00    -0.044 A 
ATOM      7  C   UNL     1       7.871  -1.268   3.763  1.00  0.00     0.008 A 
ATOM      8  C   UNL     1       8.812  -2.275   1.812  1.00  0.00     0.054 A 
ATOM      9  C   UNL     1       8.982  -1.683   4.474  1.00  0.00     0.051 A 
ATOM     10  C   UNL     1       9.933  -2.693   2.535  1.00  0.00     0.166 A 
ATOM     11  C   UNL     1      10.019  -2.395   3.877  1.00  0.00     0.165 A 
ATOM     12  O   UNL     1      11.068  -3.394   2.187  1.00  0.00    -0.454 OA
ATOM     13  O   UNL     1      11.217  -2.925   4.329  1.00  0.00    -0.454 OA
ATOM     14  C   UNL     1      11.871  -3.645   3.312  1.00  0.00     0.468 C 
ENDBRANCH   5   6
ENDBRANCH   1   5
TORSDOF 3
ENDMDL
MODEL 5
REMARK VINA RESULT:      -6.9      3.135      4.305
REMARK SMILES CC(=O)CCc1ccc2c(c1)OCO2
REMARK SMILES IDX 4 1 2 2 1 3 3 4 5 5 6 6 7 7 11 8 8 9 10 10 9 11 12 12 14 13
REMARK SMILES IDX 13 14
REMARK H PARENT
REMARK Flexibility Score: inf
ROOT
ATOM      1  C   UNL     1       5.801   1.155  -0.266  1.00  0.00     0.080 C 
ENDROOT
BRANCH   1   2
ATOM      2  C   UNL     1       5.335   1.139   1.148  1.00  0.00     0.130 C 
ATOM      3  C   UNL     1       5.393  -0.096   1.975  1.00  0.00     0.087 C 
ATOM      4  O   UNL     1       4.889   2.146   1.673  1.00  0.00    -0.300 OA
ENDBRANCH   1   2
BRANCH   1   5
ATOM      5  C   UNL     1       7.308   1.015  -0.351  1.00  0.00     0.043 C 
BRANCH   5   6
ATOM      6  C   UNL     1       7.704  -0.277  -0.939  1.00  0.00    -0.044 A 
ATOM      7  C   UNL     1       7.836  -0.444  -2.322  1.00  0.00     0.008 A 
ATOM      8  C   UNL     1       7.956  -1.352  -0.117  1.00  0.00     0.054 A 
ATOM      9  C   UNL     1       8.212  -1.679  -2.817  1.00  0.00     0.051 A 
ATOM     10  C   UNL     1       8.336  -2.599  -0.622  1.00  0.00     0.166 A 
ATOM     11  C   UNL     1       8.464  -2.764  -1.983  1.00  0.00     0.165 A 
ATOM     12  O   UNL     1       8.636  -3.804  -0.022  1.00  0.00    -0.454 OA
ATOM     13  O   UNL     1       8.846  -4.080  -2.193  1.00  0.00    -0.454 OA
ATOM     14  C   UNL     1       9.054  -4.750  -0.973  1.00  0.00     0.468 C 
ENDBRANCH   5   6
ENDBRANCH   1   5
TORSDOF 3
ENDMDL
