@<TRIPOS>MOLECULE
/home/cewinharhar/GITHUB/reincatalyze/data/processed/docking_pred/2023-May-30-2130_sub9_nm5_bs15_s42_ex16_mel10_mts10000_k50_ec05_g099_lra3e-4_lrc3e-3/81ff0f658bd0aa2f33395d99e175a968986a195e_ligand_9.pdbqt
 14 15 0 0 0
SMALL
GASTEIGER

@<TRIPOS>ATOM
      1  C          5.4140    0.0380    2.0000 C.3     1  UNL1        0.0800
      2  C          5.2390    1.1420    1.0140 C.2     1  UNL1        0.1300
      3  C          5.8900    1.1050   -0.3220 C.3     1  UNL1        0.0870
      4  O          4.5500    2.1140    1.2790 O.2     1  UNL1       -0.3000
      5  C          6.0660   -1.1720    1.3610 C.3     1  UNL1        0.0430
      6  C          7.3290   -1.5300    2.0310 C.2     1  UNL1       -0.0440
      7  C          8.3350   -2.2430    1.3680 C.2     1  UNL1        0.0080
      8  C          7.5370   -1.1560    3.3390 C.2     1  UNL1        0.0540
      9  C          9.4990   -2.5490    2.0470 C.2     1  UNL1        0.0510
     10  C          8.7160   -1.4690    4.0220 C.2     1  UNL1        0.1660
     11  C          9.7060   -2.1710    3.3710 C.2     1  UNL1        0.1650
     12  O          9.1550   -1.2150    5.3040 O.2     1  UNL1       -0.4540
     13  O         10.7430   -2.3360    4.2750 O.2     1  UNL1       -0.4540
     14  C         10.4730   -1.6670    5.4840 C.3     1  UNL1        0.4680
@<TRIPOS>BOND
     1     3     2    1
     2     2     4    2
     3     2     1    1
     4     5     1    1
     5     5     6    1
     6     7     6    2
     7     7     9    1
     8     6     8    1
     9     9    11    2
    10     8    10    2
    11    11    10    1
    12    11    13    1
    13    10    12    1
    14    13    14    1
    15    12    14    1
