@<TRIPOS>MOLECULE
/home/cewinharhar/GITHUB/reincatalyze/data/processed/docking_pred/2023-May-30-2130_sub9_nm5_bs15_s42_ex16_mel10_mts10000_k50_ec05_g099_lra3e-4_lrc3e-3/82066193004a6cdbe54a2a950d109d8cafa96b54_ligand_9.pdbqt
 14 15 0 0 0
SMALL
GASTEIGER

@<TRIPOS>ATOM
      1  C          5.9410    1.2110   -0.1820 C.3     1  UNL1        0.0800
      2  C          5.8710    1.1720    1.3060 C.2     1  UNL1        0.1300
      3  C          5.2590    0.0260    2.0290 C.3     1  UNL1        0.0870
      4  O          6.3180    2.0870    1.9780 O.2     1  UNL1       -0.3000
      5  C          7.3770    1.1690   -0.6670 C.3     1  UNL1        0.0430
      6  C          7.7510   -0.1710   -1.1540 C.2     1  UNL1       -0.0440
      7  C          7.9180   -0.4350   -2.5180 C.2     1  UNL1        0.0080
      8  C          7.9450   -1.1940   -0.2540 C.2     1  UNL1        0.0540
      9  C          8.2700   -1.7110   -2.9160 C.2     1  UNL1        0.0510
     10  C          8.3010   -2.4830   -0.6620 C.2     1  UNL1        0.1660
     11  C          8.4650   -2.7440   -2.0040 C.2     1  UNL1        0.1650
     12  O          8.5470   -3.6520    0.0260 O.2     1  UNL1       -0.4540
     13  O          8.8120   -4.0810   -2.1130 O.2     1  UNL1       -0.4540
     14  C          8.9640   -4.6720   -0.8450 C.3     1  UNL1        0.4680
@<TRIPOS>BOND
     1     9     7    1
     2     9    11    2
     3     7     6    2
     4    13    11    1
     5    13    14    1
     6    11    10    1
     7     6     5    1
     8     6     8    1
     9    14    12    1
    10     5     1    1
    11    10     8    2
    12    10    12    1
    13     1     2    1
    14     2     4    2
    15     2     3    1
