@<TRIPOS>MOLECULE
/home/cewinharhar/GITHUB/reincatalyze/data/processed/docking_pred/2023-May-30-2130_sub9_nm5_bs15_s42_ex16_mel10_mts10000_k50_ec05_g099_lra3e-4_lrc3e-3/82066193004a6cdbe54a2a950d109d8cafa96b54_ligand_9.pdbqt
 14 15 0 0 0
SMALL
GASTEIGER

@<TRIPOS>ATOM
      1  C          6.3730    1.2160    0.8960 C.3     1  UNL1        0.0800
      2  C          5.6770    0.4030    1.9320 C.2     1  UNL1        0.1300
      3  C          6.3020   -0.8120    2.5210 C.3     1  UNL1        0.0870
      4  O          4.5660    0.7140    2.3310 O.2     1  UNL1       -0.3000
      5  C          5.8580    0.8940   -0.4930 C.3     1  UNL1        0.0430
      6  C          6.8190    0.0770   -1.2560 C.2     1  UNL1       -0.0440
      7  C          7.5200    0.6000   -2.3490 C.2     1  UNL1        0.0080
      8  C          7.0420   -1.2310   -0.8930 C.2     1  UNL1        0.0540
      9  C          8.4100   -0.2130   -3.0270 C.2     1  UNL1        0.0510
     10  C          7.9440   -2.0490   -1.5810 C.2     1  UNL1        0.1660
     11  C          8.6330   -1.5360   -2.6570 C.2     1  UNL1        0.1650
     12  O          8.3350   -3.3610   -1.4180 O.2     1  UNL1       -0.4540
     13  O          9.4420   -2.5540   -3.1370 O.2     1  UNL1       -0.4540
     14  C          9.3520   -3.7000   -2.3260 C.3     1  UNL1        0.4680
@<TRIPOS>BOND
     1    13    11    1
     2    13    14    1
     3     9    11    2
     4     9     7    1
     5    11    10    1
     6     7     6    2
     7    14    12    1
     8    10    12    1
     9    10     8    2
    10     6     8    1
    11     6     5    1
    12     5     1    1
    13     1     2    1
    14     2     4    2
    15     2     3    1
