@<TRIPOS>MOLECULE
/home/cewinharhar/GITHUB/reincatalyze/data/processed/docking_pred/2023-May-30-2130_sub9_nm5_bs15_s42_ex16_mel10_mts10000_k50_ec05_g099_lra3e-4_lrc3e-3/82066193004a6cdbe54a2a950d109d8cafa96b54_ligand_9.pdbqt
 14 15 0 0 0
SMALL
GASTEIGER

@<TRIPOS>ATOM
      1  C          5.9600    1.5300    1.2350 C.3     1  UNL1        0.0800
      2  C          5.4250    0.4000    2.0450 C.2     1  UNL1        0.1300
      3  C          6.2400   -0.8110    2.3310 C.3     1  UNL1        0.0870
      4  O          4.2930    0.4360    2.5010 O.2     1  UNL1       -0.3000
      5  C          5.7160    1.3100   -0.2450 C.3     1  UNL1        0.0430
      6  C          6.8530    0.6320   -0.8910 C.2     1  UNL1       -0.0440
      7  C          8.1290    1.2070   -0.9200 C.2     1  UNL1        0.0080
      8  C          6.6690   -0.5980   -1.4820 C.2     1  UNL1        0.0540
      9  C          9.1590    0.5240   -1.5410 C.2     1  UNL1        0.0510
     10  C          7.7140   -1.2850   -2.1070 C.2     1  UNL1        0.1660
     11  C          8.9690   -0.7190   -2.1370 C.2     1  UNL1        0.1650
     12  O          7.7840   -2.4990   -2.7560 O.2     1  UNL1       -0.4540
     13  O          9.7930   -1.6070   -2.8100 O.2     1  UNL1       -0.4540
     14  C          9.1040   -2.7890   -3.1400 C.3     1  UNL1        0.4680
@<TRIPOS>BOND
     1    14    13    1
     2    14    12    1
     3    13    11    1
     4    12    10    1
     5    11    10    2
     6    11     9    1
     7    10     8    1
     8     9     7    2
     9     8     6    2
    10     7     6    1
    11     6     5    1
    12     5     1    1
    13     1     2    1
    14     2     3    1
    15     2     4    2
