MODEL 1
REMARK VINA RESULT:      -7.2      0.000      0.000
REMARK SMILES CC(=O)CCc1ccc2c(c1)OCO2
REMARK SMILES IDX 4 1 2 2 1 3 3 4 5 5 6 6 7 7 11 8 8 9 10 10 9 11 12 12 14 13
REMARK SMILES IDX 13 14
REMARK H PARENT
REMARK Flexibility Score: inf
ROOT
ATOM      1  C   UNL     1       5.960   1.530   1.235  1.00  0.00     0.080 C 
ENDROOT
BRANCH   1   2
ATOM      2  C   UNL     1       5.425   0.400   2.045  1.00  0.00     0.130 C 
ATOM      3  C   UNL     1       6.240  -0.811   2.331  1.00  0.00     0.087 C 
ATOM      4  O   UNL     1       4.293   0.436   2.501  1.00  0.00    -0.300 OA
ENDBRANCH   1   2
BRANCH   1   5
ATOM      5  C   UNL     1       5.716   1.310  -0.245  1.00  0.00     0.043 C 
BRANCH   5   6
ATOM      6  C   UNL     1       6.853   0.632  -0.891  1.00  0.00    -0.044 A 
ATOM      7  C   UNL     1       8.129   1.207  -0.920  1.00  0.00     0.008 A 
ATOM      8  C   UNL     1       6.669  -0.598  -1.482  1.00  0.00     0.054 A 
ATOM      9  C   UNL     1       9.159   0.524  -1.541  1.00  0.00     0.051 A 
ATOM     10  C   UNL     1       7.714  -1.285  -2.107  1.00  0.00     0.166 A 
ATOM     11  C   UNL     1       8.969  -0.719  -2.137  1.00  0.00     0.165 A 
ATOM     12  O   UNL     1       7.784  -2.499  -2.756  1.00  0.00    -0.454 OA
ATOM     13  O   UNL     1       9.793  -1.607  -2.810  1.00  0.00    -0.454 OA
ATOM     14  C   UNL     1       9.104  -2.789  -3.140  1.00  0.00     0.468 C 
ENDBRANCH   5   6
ENDBRANCH   1   5
TORSDOF 3
ENDMDL
MODEL 2
REMARK VINA RESULT:      -7.1      1.052      1.064
REMARK SMILES CC(=O)CCc1ccc2c(c1)OCO2
REMARK SMILES IDX 4 1 2 2 1 3 3 4 5 5 6 6 7 7 11 8 8 9 10 10 9 11 12 12 14 13
REMARK SMILES IDX 13 14
REMARK H PARENT
REMARK Flexibility Score: inf
ROOT
ATOM      1  C   UNL     1       6.373   1.216   0.896  1.00  0.00     0.080 C 
ENDROOT
BRANCH   1   2
ATOM      2  C   UNL     1       5.677   0.403   1.932  1.00  0.00     0.130 C 
ATOM      3  C   UNL     1       6.302  -0.812   2.521  1.00  0.00     0.087 C 
ATOM      4  O   UNL     1       4.566   0.714   2.331  1.00  0.00    -0.300 OA
ENDBRANCH   1   2
BRANCH   1   5
ATOM      5  C   UNL     1       5.858   0.894  -0.493  1.00  0.00     0.043 C 
BRANCH   5   6
ATOM      6  C   UNL     1       6.819   0.077  -1.256  1.00  0.00    -0.044 A 
ATOM      7  C   UNL     1       7.520   0.600  -2.349  1.00  0.00     0.008 A 
ATOM      8  C   UNL     1       7.042  -1.231  -0.893  1.00  0.00     0.054 A 
ATOM      9  C   UNL     1       8.410  -0.213  -3.027  1.00  0.00     0.051 A 
ATOM     10  C   UNL     1       7.944  -2.049  -1.581  1.00  0.00     0.166 A 
ATOM     11  C   UNL     1       8.633  -1.536  -2.657  1.00  0.00     0.165 A 
ATOM     12  O   UNL     1       8.335  -3.361  -1.418  1.00  0.00    -0.454 OA
ATOM     13  O   UNL     1       9.442  -2.554  -3.137  1.00  0.00    -0.454 OA
ATOM     14  C   UNL     1       9.352  -3.700  -2.326  1.00  0.00     0.468 C 
ENDBRANCH   5   6
ENDBRANCH   1   5
TORSDOF 3
ENDMDL
MODEL 3
REMARK VINA RESULT:      -7.0      1.756      2.196
REMARK SMILES CC(=O)CCc1ccc2c(c1)OCO2
REMARK SMILES IDX 4 1 2 2 1 3 3 4 5 5 6 6 7 7 11 8 8 9 10 10 9 11 12 12 14 13
REMARK SMILES IDX 13 14
REMARK H PARENT
REMARK Flexibility Score: inf
ROOT
ATOM      1  C   UNL     1       5.941   1.211  -0.182  1.00  0.00     0.080 C 
ENDROOT
BRANCH   1   2
ATOM      2  C   UNL     1       5.871   1.172   1.306  1.00  0.00     0.130 C 
ATOM      3  C   UNL     1       5.259   0.026   2.029  1.00  0.00     0.087 C 
ATOM      4  O   UNL     1       6.318   2.087   1.978  1.00  0.00    -0.300 OA
ENDBRANCH   1   2
BRANCH   1   5
ATOM      5  C   UNL     1       7.377   1.169  -0.667  1.00  0.00     0.043 C 
BRANCH   5   6
ATOM      6  C   UNL     1       7.751  -0.171  -1.154  1.00  0.00    -0.044 A 
ATOM      7  C   UNL     1       7.918  -0.435  -2.518  1.00  0.00     0.008 A 
ATOM      8  C   UNL     1       7.945  -1.194  -0.254  1.00  0.00     0.054 A 
ATOM      9  C   UNL     1       8.270  -1.711  -2.916  1.00  0.00     0.051 A 
ATOM     10  C   UNL     1       8.301  -2.483  -0.662  1.00  0.00     0.166 A 
ATOM     11  C   UNL     1       8.465  -2.744  -2.004  1.00  0.00     0.165 A 
ATOM     12  O   UNL     1       8.547  -3.652   0.026  1.00  0.00    -0.454 OA
ATOM     13  O   UNL     1       8.812  -4.081  -2.113  1.00  0.00    -0.454 OA
ATOM     14  C   UNL     1       8.964  -4.672  -0.845  1.00  0.00     0.468 C 
ENDBRANCH   5   6
ENDBRANCH   1   5
TORSDOF 3
ENDMDL
MODEL 4
REMARK VINA RESULT:      -6.6      1.964      2.520
REMARK SMILES CC(=O)CCc1ccc2c(c1)OCO2
REMARK SMILES IDX 4 1 2 2 1 3 3 4 5 5 6 6 7 7 11 8 8 9 10 10 9 11 12 12 14 13
REMARK SMILES IDX 13 14
REMARK H PARENT
REMARK Flexibility Score: inf
ROOT
ATOM      1  C   UNL     1       6.136  -0.431   2.305  1.00  0.00     0.080 C 
ENDROOT
BRANCH   1   2
ATOM      2  C   UNL     1       5.089   0.542   1.886  1.00  0.00     0.130 C 
ATOM      3  C   UNL     1       5.256   1.399   0.682  1.00  0.00     0.087 C 
ATOM      4  O   UNL     1       4.056   0.664   2.525  1.00  0.00    -0.300 OA
ENDBRANCH   1   2
BRANCH   1   5
ATOM      5  C   UNL     1       7.470  -0.115   1.659  1.00  0.00     0.043 C 
BRANCH   5   6
ATOM      6  C   UNL     1       7.775  -1.041   0.554  1.00  0.00    -0.044 A 
ATOM      7  C   UNL     1       7.673  -0.644  -0.784  1.00  0.00     0.008 A 
ATOM      8  C   UNL     1       8.173  -2.329   0.833  1.00  0.00     0.054 A 
ATOM      9  C   UNL     1       7.973  -1.557  -1.780  1.00  0.00     0.051 A 
ATOM     10  C   UNL     1       8.476  -3.247  -0.177  1.00  0.00     0.166 A 
ATOM     11  C   UNL     1       8.374  -2.858  -1.494  1.00  0.00     0.165 A 
ATOM     12  O   UNL     1       8.886  -4.563  -0.158  1.00  0.00    -0.454 OA
ATOM     13  O   UNL     1       8.729  -3.954  -2.264  1.00  0.00    -0.454 OA
ATOM     14  C   UNL     1       9.148  -5.029  -1.457  1.00  0.00     0.468 C 
ENDBRANCH   5   6
ENDBRANCH   1   5
TORSDOF 3
ENDMDL
MODEL 5
REMARK VINA RESULT:      -6.4      2.062      2.475
REMARK SMILES CC(=O)CCc1ccc2c(c1)OCO2
REMARK SMILES IDX 4 1 2 2 1 3 3 4 5 5 6 6 7 7 11 8 8 9 10 10 9 11 12 12 14 13
REMARK SMILES IDX 13 14
REMARK H PARENT
REMARK Flexibility Score: inf
ROOT
ATOM      1  C   UNL     1       5.834   1.082  -0.298  1.00  0.00     0.080 C 
ENDROOT
BRANCH   1   2
ATOM      2  C   UNL     1       5.747   1.256   1.179  1.00  0.00     0.130 C 
ATOM      3  C   UNL     1       4.917   0.357   2.024  1.00  0.00     0.087 C 
ATOM      4  O   UNL     1       6.359   2.150   1.742  1.00  0.00    -0.300 OA
ENDBRANCH   1   2
BRANCH   1   5
ATOM      5  C   UNL     1       7.267   0.862  -0.743  1.00  0.00     0.043 C 
BRANCH   5   6
ATOM      6  C   UNL     1       7.726  -0.507  -0.449  1.00  0.00    -0.044 A 
ATOM      7  C   UNL     1       7.976  -0.932   0.861  1.00  0.00     0.008 A 
ATOM      8  C   UNL     1       7.915  -1.399  -1.481  1.00  0.00     0.054 A 
ATOM      9  C   UNL     1       8.404  -2.229   1.075  1.00  0.00     0.051 A 
ATOM     10  C   UNL     1       8.348  -2.709  -1.259  1.00  0.00     0.166 A 
ATOM     11  C   UNL     1       8.595  -3.128   0.030  1.00  0.00     0.165 A 
ATOM     12  O   UNL     1       8.608  -3.769  -2.102  1.00  0.00    -0.454 OA
ATOM     13  O   UNL     1       9.004  -4.450  -0.049  1.00  0.00    -0.454 OA
ATOM     14  C   UNL     1       8.939  -4.923  -1.374  1.00  0.00     0.468 C 
ENDBRANCH   5   6
ENDBRANCH   1   5
TORSDOF 3
ENDMDL
