@<TRIPOS>MOLECULE
/home/cewinharhar/GITHUB/reincatalyze/data/processed/docking_pred/2023-May-30-2130_sub9_nm5_bs15_s42_ex16_mel10_mts10000_k50_ec05_g099_lra3e-4_lrc3e-3/82066193004a6cdbe54a2a950d109d8cafa96b54_ligand_9.pdbqt
 14 15 0 0 0
SMALL
GASTEIGER

@<TRIPOS>ATOM
      1  C          5.8340    1.0820   -0.2980 C.3     1  UNL1        0.0800
      2  C          5.7470    1.2560    1.1790 C.2     1  UNL1        0.1300
      3  C          4.9170    0.3570    2.0240 C.3     1  UNL1        0.0870
      4  O          6.3590    2.1500    1.7420 O.2     1  UNL1       -0.3000
      5  C          7.2670    0.8620   -0.7430 C.3     1  UNL1        0.0430
      6  C          7.7260   -0.5070   -0.4490 C.2     1  UNL1       -0.0440
      7  C          7.9760   -0.9320    0.8610 C.2     1  UNL1        0.0080
      8  C          7.9150   -1.3990   -1.4810 C.2     1  UNL1        0.0540
      9  C          8.4040   -2.2290    1.0750 C.2     1  UNL1        0.0510
     10  C          8.3480   -2.7090   -1.2590 C.2     1  UNL1        0.1660
     11  C          8.5950   -3.1280    0.0300 C.2     1  UNL1        0.1650
     12  O          8.6080   -3.7690   -2.1020 O.2     1  UNL1       -0.4540
     13  O          9.0040   -4.4500   -0.0490 O.2     1  UNL1       -0.4540
     14  C          8.9390   -4.9230   -1.3740 C.3     1  UNL1        0.4680
@<TRIPOS>BOND
     1    12    14    1
     2    12    10    1
     3     8    10    1
     4     8     6    2
     5    14    13    1
     6    10    11    2
     7     5     6    1
     8     5     1    1
     9     6     7    1
    10     1     2    1
    11    13    11    1
    12    11     9    1
    13     7     9    2
    14     2     4    2
    15     2     3    1
