@<TRIPOS>MOLECULE
/home/cewinharhar/GITHUB/reincatalyze/data/processed/docking_pred/2023-May-30-2130_sub9_nm5_bs15_s42_ex16_mel10_mts10000_k50_ec05_g099_lra3e-4_lrc3e-3/82066193004a6cdbe54a2a950d109d8cafa96b54_ligand_9.pdbqt
 14 15 0 0 0
SMALL
GASTEIGER

@<TRIPOS>ATOM
      1  C          6.1360   -0.4310    2.3050 C.3     1  UNL1        0.0800
      2  C          5.0890    0.5420    1.8860 C.2     1  UNL1        0.1300
      3  C          5.2560    1.3990    0.6820 C.3     1  UNL1        0.0870
      4  O          4.0560    0.6640    2.5250 O.2     1  UNL1       -0.3000
      5  C          7.4700   -0.1150    1.6590 C.3     1  UNL1        0.0430
      6  C          7.7750   -1.0410    0.5540 C.2     1  UNL1       -0.0440
      7  C          7.6730   -0.6440   -0.7840 C.2     1  UNL1        0.0080
      8  C          8.1730   -2.3290    0.8330 C.2     1  UNL1        0.0540
      9  C          7.9730   -1.5570   -1.7800 C.2     1  UNL1        0.0510
     10  C          8.4760   -3.2470   -0.1770 C.2     1  UNL1        0.1660
     11  C          8.3740   -2.8580   -1.4940 C.2     1  UNL1        0.1650
     12  O          8.8860   -4.5630   -0.1580 O.2     1  UNL1       -0.4540
     13  O          8.7290   -3.9540   -2.2640 O.2     1  UNL1       -0.4540
     14  C          9.1480   -5.0290   -1.4570 C.3     1  UNL1        0.4680
@<TRIPOS>BOND
     1    13    11    1
     2    13    14    1
     3     9    11    2
     4     9     7    1
     5    11    10    1
     6    14    12    1
     7     7     6    2
     8    10    12    1
     9    10     8    2
    10     6     8    1
    11     6     5    1
    12     3     2    1
    13     5     1    1
    14     2     1    1
    15     2     4    2
