@<TRIPOS>MOLECULE
/home/cewinharhar/GITHUB/reincatalyze/data/processed/docking_pred/2023-May-30-2130_sub9_nm5_bs15_s42_ex16_mel10_mts10000_k50_ec05_g099_lra3e-4_lrc3e-3/84f6a015bafc2578e701aafee66be27aa4cb1192_ligand_9.pdbqt
 14 15 0 0 0
SMALL
GASTEIGER

@<TRIPOS>ATOM
      1  C          6.3950    1.2130    0.9340 C.3     1  UNL1        0.0800
      2  C          5.6700    0.3710    1.9260 C.2     1  UNL1        0.1300
      3  C          6.2800   -0.8570    2.5010 C.3     1  UNL1        0.0870
      4  O          4.5460    0.6680    2.2980 O.2     1  UNL1       -0.3000
      5  C          5.8930    0.9600   -0.4740 C.3     1  UNL1        0.0430
      6  C          6.8300    0.1240   -1.2450 C.2     1  UNL1       -0.0440
      7  C          7.5190    0.6270   -2.3540 C.2     1  UNL1        0.0080
      8  C          7.0410   -1.1840   -0.8740 C.2     1  UNL1        0.0540
      9  C          8.3870   -0.2040   -3.0400 C.2     1  UNL1        0.0510
     10  C          7.9200   -2.0210   -1.5690 C.2     1  UNL1        0.1660
     11  C          8.5970   -1.5270   -2.6610 C.2     1  UNL1        0.1650
     12  O          8.2950   -3.3370   -1.4010 O.2     1  UNL1       -0.4540
     13  O          9.3840   -2.5600   -3.1460 O.2     1  UNL1       -0.4540
     14  C          9.2920   -3.6980   -2.3230 C.3     1  UNL1        0.4680
@<TRIPOS>BOND
     1    13    11    1
     2    13    14    1
     3     9    11    2
     4     9     7    1
     5    11    10    1
     6     7     6    2
     7    14    12    1
     8    10    12    1
     9    10     8    2
    10     6     8    1
    11     6     5    1
    12     5     1    1
    13     1     2    1
    14     2     4    2
    15     2     3    1
