@<TRIPOS>MOLECULE
/home/cewinharhar/GITHUB/reincatalyze/data/processed/docking_pred/2023-May-30-2130_sub9_nm5_bs15_s42_ex16_mel10_mts10000_k50_ec05_g099_lra3e-4_lrc3e-3/86abca178b5bca4973d3a72a1df8ea50f2d75826_ligand_9.pdbqt
 14 15 0 0 0
SMALL
GASTEIGER

@<TRIPOS>ATOM
      1  C          6.8540    0.7840    1.3180 C.3     1  UNL1        0.0800
      2  C          5.4060    1.0960    1.4710 C.2     1  UNL1        0.1300
      3  C          4.7440    2.1500    0.6550 C.3     1  UNL1        0.0870
      4  O          4.7160    0.4930    2.2760 O.2     1  UNL1       -0.3000
      5  C          7.3170    1.0050   -0.1090 C.3     1  UNL1        0.0430
      6  C          7.6740   -0.2630   -0.7700 C.2     1  UNL1       -0.0440
      7  C          7.7580   -0.3650   -2.1630 C.2     1  UNL1        0.0080
      8  C          7.9350   -1.3800   -0.0090 C.2     1  UNL1        0.0540
      9  C          8.0980   -1.5810   -2.7280 C.2     1  UNL1        0.0510
     10  C          8.2790   -2.6070   -0.5850 C.2     1  UNL1        0.1660
     11  C          8.3610   -2.7080   -1.9560 C.2     1  UNL1        0.1650
     12  O          8.5800   -3.8430   -0.0530 O.2     1  UNL1       -0.4540
     13  O          8.7150   -4.0170   -2.2400 O.2     1  UNL1       -0.4540
     14  C          8.9530   -4.7480   -1.0610 C.3     1  UNL1        0.4680
@<TRIPOS>BOND
     1     9     7    1
     2     9    11    2
     3    13    11    1
     4    13    14    1
     5     7     6    2
     6    11    10    1
     7    14    12    1
     8     6     5    1
     9     6     8    1
    10    10    12    1
    11    10     8    2
    12     5     1    1
    13     3     2    1
    14     1     2    1
    15     2     4    2
