@<TRIPOS>MOLECULE
/home/cewinharhar/GITHUB/reincatalyze/data/processed/docking_pred/2023-May-30-2130_sub9_nm5_bs15_s42_ex16_mel10_mts10000_k50_ec05_g099_lra3e-4_lrc3e-3/86abca178b5bca4973d3a72a1df8ea50f2d75826_ligand_9.pdbqt
 14 15 0 0 0
SMALL
GASTEIGER

@<TRIPOS>ATOM
      1  C          5.3950   -0.0730    2.0280 C.3     1  UNL1        0.0800
      2  C          4.5500    1.1260    1.7720 C.2     1  UNL1        0.1300
      3  C          4.9020    2.1200    0.7230 C.3     1  UNL1        0.0870
      4  O          3.5370    1.3290    2.4210 O.2     1  UNL1       -0.3000
      5  C          6.8360    0.1730    1.6260 C.3     1  UNL1        0.0430
      6  C          7.2710   -0.7460    0.5600 C.2     1  UNL1       -0.0440
      7  C          7.1520   -0.4070   -0.7930 C.2     1  UNL1        0.0080
      8  C          7.8100   -1.9680    0.8900 C.2     1  UNL1        0.0540
      9  C          7.5780   -1.3100   -1.7510 C.2     1  UNL1        0.0510
     10  C          8.2400   -2.8770   -0.0820 C.2     1  UNL1        0.1660
     11  C          8.1220   -2.5450   -1.4130 C.2     1  UNL1        0.1650
     12  O          8.8000   -4.1350   -0.0100 O.2     1  UNL1       -0.4540
     13  O          8.6190   -3.6160   -2.1390 O.2     1  UNL1       -0.4540
     14  C          9.1420   -4.6080   -1.2880 C.3     1  UNL1        0.4680
@<TRIPOS>BOND
     1    13    11    1
     2    13    14    1
     3     9    11    2
     4     9     7    1
     5    11    10    1
     6    14    12    1
     7     7     6    2
     8    10    12    1
     9    10     8    2
    10     6     8    1
    11     6     5    1
    12     3     2    1
    13     5     1    1
    14     2     1    1
    15     2     4    2
