MODEL 1
REMARK VINA RESULT:      -7.7      0.000      0.000
REMARK SMILES CC(=O)CCc1ccc2c(c1)OCO2
REMARK SMILES IDX 4 1 2 2 1 3 3 4 5 5 6 6 7 7 11 8 8 9 10 10 9 11 12 12 14 13
REMARK SMILES IDX 13 14
REMARK H PARENT
REMARK Flexibility Score: inf
ROOT
ATOM      1  C   UNL     1       5.540   1.912   1.273  1.00  0.00     0.080 C 
ENDROOT
BRANCH   1   2
ATOM      2  C   UNL     1       5.118   0.688   2.010  1.00  0.00     0.130 C 
ATOM      3  C   UNL     1       6.027  -0.478   2.173  1.00  0.00     0.087 C 
ATOM      4  O   UNL     1       4.005   0.607   2.504  1.00  0.00    -0.300 OA
ENDBRANCH   1   2
BRANCH   1   5
ATOM      5  C   UNL     1       5.412   1.724  -0.225  1.00  0.00     0.043 C 
BRANCH   5   6
ATOM      6  C   UNL     1       6.577   1.020  -0.789  1.00  0.00    -0.044 A 
ATOM      7  C   UNL     1       7.886   1.445  -0.532  1.00  0.00     0.008 A 
ATOM      8  C   UNL     1       6.386  -0.085  -1.587  1.00  0.00     0.054 A 
ATOM      9  C   UNL     1       8.941   0.744  -1.088  1.00  0.00     0.051 A 
ATOM     10  C   UNL     1       7.456  -0.791  -2.146  1.00  0.00     0.166 A 
ATOM     11  C   UNL     1       8.744  -0.372  -1.895  1.00  0.00     0.165 A 
ATOM     12  O   UNL     1       7.527  -1.901  -2.961  1.00  0.00    -0.454 OA
ATOM     13  O   UNL     1       9.587  -1.244  -2.566  1.00  0.00    -0.454 OA
ATOM     14  C   UNL     1       8.861  -2.282  -3.180  1.00  0.00     0.468 C 
ENDBRANCH   5   6
ENDBRANCH   1   5
TORSDOF 3
ENDMDL
MODEL 2
REMARK VINA RESULT:      -7.5      1.944      2.395
REMARK SMILES CC(=O)CCc1ccc2c(c1)OCO2
REMARK SMILES IDX 4 1 2 2 1 3 3 4 5 5 6 6 7 7 11 8 8 9 10 10 9 11 12 12 14 13
REMARK SMILES IDX 13 14
REMARK H PARENT
REMARK Flexibility Score: inf
ROOT
ATOM      1  C   UNL     1       5.725   1.285  -0.281  1.00  0.00     0.080 C 
ENDROOT
BRANCH   1   2
ATOM      2  C   UNL     1       5.148   1.217   1.091  1.00  0.00     0.130 C 
ATOM      3  C   UNL     1       5.325   0.018   1.954  1.00  0.00     0.087 C 
ATOM      4  O   UNL     1       4.508   2.150   1.548  1.00  0.00    -0.300 OA
ENDBRANCH   1   2
BRANCH   1   5
ATOM      5  C   UNL     1       7.227   1.081  -0.257  1.00  0.00     0.043 C 
BRANCH   5   6
ATOM      6  C   UNL     1       7.614  -0.208  -0.857  1.00  0.00    -0.044 A 
ATOM      7  C   UNL     1       7.718  -0.369  -2.244  1.00  0.00     0.008 A 
ATOM      8  C   UNL     1       7.883  -1.286  -0.045  1.00  0.00     0.054 A 
ATOM      9  C   UNL     1       8.086  -1.602  -2.751  1.00  0.00     0.051 A 
ATOM     10  C   UNL     1       8.256  -2.530  -0.562  1.00  0.00     0.166 A 
ATOM     11  C   UNL     1       8.357  -2.689  -1.926  1.00  0.00     0.165 A 
ATOM     12  O   UNL     1       8.570  -3.736   0.027  1.00  0.00    -0.454 OA
ATOM     13  O   UNL     1       8.737  -4.004  -2.149  1.00  0.00    -0.454 OA
ATOM     14  C   UNL     1       8.971  -4.678  -0.936  1.00  0.00     0.468 C 
ENDBRANCH   5   6
ENDBRANCH   1   5
TORSDOF 3
ENDMDL
MODEL 3
REMARK VINA RESULT:      -7.2      2.057      2.635
REMARK SMILES CC(=O)CCc1ccc2c(c1)OCO2
REMARK SMILES IDX 4 1 2 2 1 3 3 4 5 5 6 6 7 7 11 8 8 9 10 10 9 11 12 12 14 13
REMARK SMILES IDX 13 14
REMARK H PARENT
REMARK Flexibility Score: inf
ROOT
ATOM      1  C   UNL     1       5.395  -0.073   2.028  1.00  0.00     0.080 C 
ENDROOT
BRANCH   1   2
ATOM      2  C   UNL     1       4.550   1.126   1.772  1.00  0.00     0.130 C 
ATOM      3  C   UNL     1       4.902   2.120   0.723  1.00  0.00     0.087 C 
ATOM      4  O   UNL     1       3.537   1.329   2.421  1.00  0.00    -0.300 OA
ENDBRANCH   1   2
BRANCH   1   5
ATOM      5  C   UNL     1       6.836   0.173   1.626  1.00  0.00     0.043 C 
BRANCH   5   6
ATOM      6  C   UNL     1       7.271  -0.746   0.560  1.00  0.00    -0.044 A 
ATOM      7  C   UNL     1       7.152  -0.407  -0.793  1.00  0.00     0.008 A 
ATOM      8  C   UNL     1       7.810  -1.968   0.890  1.00  0.00     0.054 A 
ATOM      9  C   UNL     1       7.578  -1.310  -1.751  1.00  0.00     0.051 A 
ATOM     10  C   UNL     1       8.240  -2.877  -0.082  1.00  0.00     0.166 A 
ATOM     11  C   UNL     1       8.122  -2.545  -1.413  1.00  0.00     0.165 A 
ATOM     12  O   UNL     1       8.800  -4.135  -0.010  1.00  0.00    -0.454 OA
ATOM     13  O   UNL     1       8.619  -3.616  -2.139  1.00  0.00    -0.454 OA
ATOM     14  C   UNL     1       9.142  -4.608  -1.288  1.00  0.00     0.468 C 
ENDBRANCH   5   6
ENDBRANCH   1   5
TORSDOF 3
ENDMDL
MODEL 4
REMARK VINA RESULT:      -7.1      1.246      1.456
REMARK SMILES CC(=O)CCc1ccc2c(c1)OCO2
REMARK SMILES IDX 4 1 2 2 1 3 3 4 5 5 6 6 7 7 11 8 8 9 10 10 9 11 12 12 14 13
REMARK SMILES IDX 13 14
REMARK H PARENT
REMARK Flexibility Score: inf
ROOT
ATOM      1  C   UNL     1       6.371   1.207   0.902  1.00  0.00     0.080 C 
ENDROOT
BRANCH   1   2
ATOM      2  C   UNL     1       5.665   0.388   1.927  1.00  0.00     0.130 C 
ATOM      3  C   UNL     1       6.274  -0.842   2.499  1.00  0.00     0.087 C 
ATOM      4  O   UNL     1       4.557   0.706   2.328  1.00  0.00    -0.300 OA
ENDBRANCH   1   2
BRANCH   1   5
ATOM      5  C   UNL     1       5.860   0.903  -0.492  1.00  0.00     0.043 C 
BRANCH   5   6
ATOM      6  C   UNL     1       6.819   0.089  -1.260  1.00  0.00    -0.044 A 
ATOM      7  C   UNL     1       7.525   0.618  -2.347  1.00  0.00     0.008 A 
ATOM      8  C   UNL     1       7.036  -1.224  -0.907  1.00  0.00     0.054 A 
ATOM      9  C   UNL     1       8.413  -0.194  -3.030  1.00  0.00     0.051 A 
ATOM     10  C   UNL     1       7.935  -2.040  -1.600  1.00  0.00     0.166 A 
ATOM     11  C   UNL     1       8.629  -1.521  -2.670  1.00  0.00     0.165 A 
ATOM     12  O   UNL     1       8.320  -3.355  -1.448  1.00  0.00    -0.454 OA
ATOM     13  O   UNL     1       9.434  -2.538  -3.157  1.00  0.00    -0.454 OA
ATOM     14  C   UNL     1       9.337  -3.691  -2.356  1.00  0.00     0.468 C 
ENDBRANCH   5   6
ENDBRANCH   1   5
TORSDOF 3
ENDMDL
MODEL 5
REMARK VINA RESULT:      -7.0      1.954      2.504
REMARK SMILES CC(=O)CCc1ccc2c(c1)OCO2
REMARK SMILES IDX 4 1 2 2 1 3 3 4 5 5 6 6 7 7 11 8 8 9 10 10 9 11 12 12 14 13
REMARK SMILES IDX 13 14
REMARK H PARENT
REMARK Flexibility Score: inf
ROOT
ATOM      1  C   UNL     1       6.854   0.784   1.318  1.00  0.00     0.080 C 
ENDROOT
BRANCH   1   2
ATOM      2  C   UNL     1       5.406   1.096   1.471  1.00  0.00     0.130 C 
ATOM      3  C   UNL     1       4.744   2.150   0.655  1.00  0.00     0.087 C 
ATOM      4  O   UNL     1       4.716   0.493   2.276  1.00  0.00    -0.300 OA
ENDBRANCH   1   2
BRANCH   1   5
ATOM      5  C   UNL     1       7.317   1.005  -0.109  1.00  0.00     0.043 C 
BRANCH   5   6
ATOM      6  C   UNL     1       7.674  -0.263  -0.770  1.00  0.00    -0.044 A 
ATOM      7  C   UNL     1       7.758  -0.365  -2.163  1.00  0.00     0.008 A 
ATOM      8  C   UNL     1       7.935  -1.380  -0.009  1.00  0.00     0.054 A 
ATOM      9  C   UNL     1       8.098  -1.581  -2.728  1.00  0.00     0.051 A 
ATOM     10  C   UNL     1       8.279  -2.607  -0.585  1.00  0.00     0.166 A 
ATOM     11  C   UNL     1       8.361  -2.708  -1.956  1.00  0.00     0.165 A 
ATOM     12  O   UNL     1       8.580  -3.843  -0.053  1.00  0.00    -0.454 OA
ATOM     13  O   UNL     1       8.715  -4.017  -2.240  1.00  0.00    -0.454 OA
ATOM     14  C   UNL     1       8.953  -4.748  -1.061  1.00  0.00     0.468 C 
ENDBRANCH   5   6
ENDBRANCH   1   5
TORSDOF 3
ENDMDL
