@<TRIPOS>MOLECULE
/home/cewinharhar/GITHUB/reincatalyze/data/processed/docking_pred/2023-May-30-2130_sub9_nm5_bs15_s42_ex16_mel10_mts10000_k50_ec05_g099_lra3e-4_lrc3e-3/86abca178b5bca4973d3a72a1df8ea50f2d75826_ligand_9.pdbqt
 14 15 0 0 0
SMALL
GASTEIGER

@<TRIPOS>ATOM
      1  C          5.7250    1.2850   -0.2810 C.3     1  UNL1        0.0800
      2  C          5.1480    1.2170    1.0910 C.2     1  UNL1        0.1300
      3  C          5.3250    0.0180    1.9540 C.3     1  UNL1        0.0870
      4  O          4.5080    2.1500    1.5480 O.2     1  UNL1       -0.3000
      5  C          7.2270    1.0810   -0.2570 C.3     1  UNL1        0.0430
      6  C          7.6140   -0.2080   -0.8570 C.2     1  UNL1       -0.0440
      7  C          7.7180   -0.3690   -2.2440 C.2     1  UNL1        0.0080
      8  C          7.8830   -1.2860   -0.0450 C.2     1  UNL1        0.0540
      9  C          8.0860   -1.6020   -2.7510 C.2     1  UNL1        0.0510
     10  C          8.2560   -2.5300   -0.5620 C.2     1  UNL1        0.1660
     11  C          8.3570   -2.6890   -1.9260 C.2     1  UNL1        0.1650
     12  O          8.5700   -3.7360    0.0270 O.2     1  UNL1       -0.4540
     13  O          8.7370   -4.0040   -2.1490 O.2     1  UNL1       -0.4540
     14  C          8.9710   -4.6780   -0.9360 C.3     1  UNL1        0.4680
@<TRIPOS>BOND
     1     9     7    1
     2     9    11    2
     3     7     6    2
     4    13    11    1
     5    13    14    1
     6    11    10    1
     7    14    12    1
     8     6     5    1
     9     6     8    1
    10    10     8    2
    11    10    12    1
    12     1     5    1
    13     1     2    1
    14     2     4    2
    15     2     3    1
