@<TRIPOS>MOLECULE
/home/cewinharhar/GITHUB/reincatalyze/data/processed/docking_pred/2023-May-30-2130_sub9_nm5_bs15_s42_ex16_mel10_mts10000_k50_ec05_g099_lra3e-4_lrc3e-3/87c24324279ed01ab1d4888e5c128f335f215516_ligand_9.pdbqt
 14 15 0 0 0
SMALL
GASTEIGER

@<TRIPOS>ATOM
      1  C          5.5490    1.9170    1.2790 C.3     1  UNL1        0.0800
      2  C          5.1030    0.7010    2.0140 C.2     1  UNL1        0.1300
      3  C          5.9940   -0.4770    2.1890 C.3     1  UNL1        0.0870
      4  O          3.9840    0.6360    2.4970 O.2     1  UNL1       -0.3000
      5  C          5.4160    1.7330   -0.2200 C.3     1  UNL1        0.0430
      6  C          6.5800    1.0310   -0.7890 C.2     1  UNL1       -0.0440
      7  C          7.8890    1.4650   -0.5490 C.2     1  UNL1        0.0080
      8  C          6.3870   -0.0820   -1.5760 C.2     1  UNL1        0.0540
      9  C          8.9410    0.7650   -1.1100 C.2     1  UNL1        0.0510
     10  C          7.4550   -0.7870   -2.1400 C.2     1  UNL1        0.1660
     11  C          8.7420   -0.3590   -1.9050 C.2     1  UNL1        0.1650
     12  O          7.5230   -1.9040   -2.9450 O.2     1  UNL1       -0.4540
     13  O          9.5830   -1.2320   -2.5770 O.2     1  UNL1       -0.4540
     14  C          8.8570   -2.2790   -3.1750 C.3     1  UNL1        0.4680
@<TRIPOS>BOND
     1    14    12    1
     2    14    13    1
     3    12    10    1
     4    13    11    1
     5    10    11    2
     6    10     8    1
     7    11     9    1
     8     8     6    2
     9     9     7    2
    10     6     7    1
    11     6     5    1
    12     5     1    1
    13     1     2    1
    14     2     3    1
    15     2     4    2
