MODEL 1
REMARK VINA RESULT:      -7.7      0.000      0.000
REMARK SMILES CC(=O)CCc1ccc2c(c1)OCO2
REMARK SMILES IDX 4 1 2 2 1 3 3 4 5 5 6 6 7 7 11 8 8 9 10 10 9 11 12 12 14 13
REMARK SMILES IDX 13 14
REMARK H PARENT
REMARK Flexibility Score: inf
ROOT
ATOM      1  C   UNL     1       5.490   1.928   1.258  1.00  0.00     0.080 C 
ENDROOT
BRANCH   1   2
ATOM      2  C   UNL     1       5.027   0.717   1.992  1.00  0.00     0.130 C 
ATOM      3  C   UNL     1       5.879  -0.497   2.111  1.00  0.00     0.087 C 
ATOM      4  O   UNL     1       3.927   0.686   2.519  1.00  0.00    -0.300 OA
ENDBRANCH   1   2
BRANCH   1   5
ATOM      5  C   UNL     1       5.375   1.740  -0.242  1.00  0.00     0.043 C 
BRANCH   5   6
ATOM      6  C   UNL     1       6.547   1.039  -0.797  1.00  0.00    -0.044 A 
ATOM      7  C   UNL     1       7.852   1.470  -0.532  1.00  0.00     0.008 A 
ATOM      8  C   UNL     1       6.365  -0.069  -1.593  1.00  0.00     0.054 A 
ATOM      9  C   UNL     1       8.913   0.772  -1.079  1.00  0.00     0.051 A 
ATOM     10  C   UNL     1       7.442  -0.772  -2.143  1.00  0.00     0.166 A 
ATOM     11  C   UNL     1       8.726  -0.347  -1.884  1.00  0.00     0.165 A 
ATOM     12  O   UNL     1       7.521  -1.884  -2.954  1.00  0.00    -0.454 OA
ATOM     13  O   UNL     1       9.577  -1.218  -2.547  1.00  0.00    -0.454 OA
ATOM     14  C   UNL     1       8.858  -2.260  -3.163  1.00  0.00     0.468 C 
ENDBRANCH   5   6
ENDBRANCH   1   5
TORSDOF 3
ENDMDL
MODEL 2
REMARK VINA RESULT:      -7.5      1.918      2.397
REMARK SMILES CC(=O)CCc1ccc2c(c1)OCO2
REMARK SMILES IDX 4 1 2 2 1 3 3 4 5 5 6 6 7 7 11 8 8 9 10 10 9 11 12 12 14 13
REMARK SMILES IDX 13 14
REMARK H PARENT
REMARK Flexibility Score: inf
ROOT
ATOM      1  C   UNL     1       5.741   1.290  -0.319  1.00  0.00     0.080 C 
ENDROOT
BRANCH   1   2
ATOM      2  C   UNL     1       5.200   1.237   1.067  1.00  0.00     0.130 C 
ATOM      3  C   UNL     1       5.461   0.080   1.964  1.00  0.00     0.087 C 
ATOM      4  O   UNL     1       4.520   2.150   1.510  1.00  0.00    -0.300 OA
ENDBRANCH   1   2
BRANCH   1   5
ATOM      5  C   UNL     1       7.245   1.100  -0.330  1.00  0.00     0.043 C 
BRANCH   5   6
ATOM      6  C   UNL     1       7.628  -0.194  -0.924  1.00  0.00    -0.044 A 
ATOM      7  C   UNL     1       7.738  -0.361  -2.309  1.00  0.00     0.008 A 
ATOM      8  C   UNL     1       7.888  -1.269  -0.105  1.00  0.00     0.054 A 
ATOM      9  C   UNL     1       8.102  -1.598  -2.809  1.00  0.00     0.051 A 
ATOM     10  C   UNL     1       8.257  -2.518  -0.615  1.00  0.00     0.166 A 
ATOM     11  C   UNL     1       8.364  -2.684  -1.978  1.00  0.00     0.165 A 
ATOM     12  O   UNL     1       8.562  -3.723  -0.020  1.00  0.00    -0.454 OA
ATOM     13  O   UNL     1       8.738  -4.001  -2.194  1.00  0.00    -0.454 OA
ATOM     14  C   UNL     1       8.963  -4.671  -0.976  1.00  0.00     0.468 C 
ENDBRANCH   5   6
ENDBRANCH   1   5
TORSDOF 3
ENDMDL
MODEL 3
REMARK VINA RESULT:      -7.2      2.058      2.617
REMARK SMILES CC(=O)CCc1ccc2c(c1)OCO2
REMARK SMILES IDX 4 1 2 2 1 3 3 4 5 5 6 6 7 7 11 8 8 9 10 10 9 11 12 12 14 13
REMARK SMILES IDX 13 14
REMARK H PARENT
REMARK Flexibility Score: inf
ROOT
ATOM      1  C   UNL     1       5.451  -0.024   2.028  1.00  0.00     0.080 C 
ENDROOT
BRANCH   1   2
ATOM      2  C   UNL     1       4.569   1.149   1.774  1.00  0.00     0.130 C 
ATOM      3  C   UNL     1       4.880   2.144   0.713  1.00  0.00     0.087 C 
ATOM      4  O   UNL     1       3.560   1.330   2.436  1.00  0.00    -0.300 OA
ENDBRANCH   1   2
BRANCH   1   5
ATOM      5  C   UNL     1       6.871   0.244   1.571  1.00  0.00     0.043 C 
BRANCH   5   6
ATOM      6  C   UNL     1       7.292  -0.693   0.515  1.00  0.00    -0.044 A 
ATOM      7  C   UNL     1       7.170  -0.372  -0.842  1.00  0.00     0.008 A 
ATOM      8  C   UNL     1       7.822  -1.916   0.860  1.00  0.00     0.054 A 
ATOM      9  C   UNL     1       7.583  -1.291  -1.789  1.00  0.00     0.051 A 
ATOM     10  C   UNL     1       8.239  -2.841  -0.102  1.00  0.00     0.166 A 
ATOM     11  C   UNL     1       8.118  -2.526  -1.437  1.00  0.00     0.165 A 
ATOM     12  O   UNL     1       8.788  -4.103  -0.015  1.00  0.00    -0.454 OA
ATOM     13  O   UNL     1       8.601  -3.612  -2.150  1.00  0.00    -0.454 OA
ATOM     14  C   UNL     1       9.120  -4.596  -1.288  1.00  0.00     0.468 C 
ENDBRANCH   5   6
ENDBRANCH   1   5
TORSDOF 3
ENDMDL
MODEL 4
REMARK VINA RESULT:      -7.1      1.280      1.503
REMARK SMILES CC(=O)CCc1ccc2c(c1)OCO2
REMARK SMILES IDX 4 1 2 2 1 3 3 4 5 5 6 6 7 7 11 8 8 9 10 10 9 11 12 12 14 13
REMARK SMILES IDX 13 14
REMARK H PARENT
REMARK Flexibility Score: inf
ROOT
ATOM      1  C   UNL     1       6.392   1.169   0.963  1.00  0.00     0.080 C 
ENDROOT
BRANCH   1   2
ATOM      2  C   UNL     1       5.645   0.343   1.952  1.00  0.00     0.130 C 
ATOM      3  C   UNL     1       6.234  -0.886   2.547  1.00  0.00     0.087 C 
ATOM      4  O   UNL     1       4.518   0.654   2.304  1.00  0.00    -0.300 OA
ENDBRANCH   1   2
BRANCH   1   5
ATOM      5  C   UNL     1       5.893   0.926  -0.447  1.00  0.00     0.043 C 
BRANCH   5   6
ATOM      6  C   UNL     1       6.830   0.093  -1.223  1.00  0.00    -0.044 A 
ATOM      7  C   UNL     1       7.494   0.592  -2.349  1.00  0.00     0.008 A 
ATOM      8  C   UNL     1       7.066  -1.207  -0.838  1.00  0.00     0.054 A 
ATOM      9  C   UNL     1       8.363  -0.235  -3.037  1.00  0.00     0.051 A 
ATOM     10  C   UNL     1       7.946  -2.039  -1.536  1.00  0.00     0.166 A 
ATOM     11  C   UNL     1       8.599  -1.549  -2.645  1.00  0.00     0.165 A 
ATOM     12  O   UNL     1       8.344  -3.347  -1.358  1.00  0.00    -0.454 OA
ATOM     13  O   UNL     1       9.394  -2.577  -3.129  1.00  0.00    -0.454 OA
ATOM     14  C   UNL     1       9.331  -3.706  -2.290  1.00  0.00     0.468 C 
ENDBRANCH   5   6
ENDBRANCH   1   5
TORSDOF 3
ENDMDL
MODEL 5
REMARK VINA RESULT:      -7.1      1.993      2.577
REMARK SMILES CC(=O)CCc1ccc2c(c1)OCO2
REMARK SMILES IDX 4 1 2 2 1 3 3 4 5 5 6 6 7 7 11 8 8 9 10 10 9 11 12 12 14 13
REMARK SMILES IDX 13 14
REMARK H PARENT
REMARK Flexibility Score: inf
ROOT
ATOM      1  C   UNL     1       6.789   0.668   1.244  1.00  0.00     0.080 C 
ENDROOT
BRANCH   1   2
ATOM      2  C   UNL     1       5.371   1.071   1.457  1.00  0.00     0.130 C 
ATOM      3  C   UNL     1       4.737   2.150   0.653  1.00  0.00     0.087 C 
ATOM      4  O   UNL     1       4.685   0.524   2.304  1.00  0.00    -0.300 OA
ENDBRANCH   1   2
BRANCH   1   5
ATOM      5  C   UNL     1       7.209   0.872  -0.199  1.00  0.00     0.043 C 
BRANCH   5   6
ATOM      6  C   UNL     1       7.630  -0.392  -0.829  1.00  0.00    -0.044 A 
ATOM      7  C   UNL     1       7.748  -0.514  -2.218  1.00  0.00     0.008 A 
ATOM      8  C   UNL     1       7.918  -1.483  -0.042  1.00  0.00     0.054 A 
ATOM      9  C   UNL     1       8.149  -1.725  -2.754  1.00  0.00     0.051 A 
ATOM     10  C   UNL     1       8.323  -2.705  -0.588  1.00  0.00     0.166 A 
ATOM     11  C   UNL     1       8.439  -2.827  -1.955  1.00  0.00     0.165 A 
ATOM     12  O   UNL     1       8.661  -3.919  -0.028  1.00  0.00    -0.454 OA
ATOM     13  O   UNL     1       8.851  -4.126  -2.209  1.00  0.00    -0.454 OA
ATOM     14  C   UNL     1       9.091  -4.825  -1.011  1.00  0.00     0.468 C 
ENDBRANCH   5   6
ENDBRANCH   1   5
TORSDOF 3
ENDMDL
