MODEL 1
REMARK VINA RESULT:      -7.6      0.000      0.000
REMARK SMILES CC(=O)CCc1ccc2c(c1)OCO2
REMARK SMILES IDX 4 1 2 2 1 3 3 4 5 5 6 6 7 7 11 8 8 9 10 10 9 11 12 12 14 13
REMARK SMILES IDX 13 14
REMARK H PARENT
REMARK Flexibility Score: inf
ROOT
ATOM      1  C   UNL     1       5.545   1.935   1.269  1.00  0.00     0.080 C 
ENDROOT
BRANCH   1   2
ATOM      2  C   UNL     1       5.119   0.716   2.011  1.00  0.00     0.130 C 
ATOM      3  C   UNL     1       6.030  -0.445   2.195  1.00  0.00     0.087 C 
ATOM      4  O   UNL     1       4.000   0.634   2.493  1.00  0.00    -0.300 OA
ENDBRANCH   1   2
BRANCH   1   5
ATOM      5  C   UNL     1       5.410   1.742  -0.229  1.00  0.00     0.043 C 
BRANCH   5   6
ATOM      6  C   UNL     1       6.574   1.037  -0.795  1.00  0.00    -0.044 A 
ATOM      7  C   UNL     1       7.883   1.466  -0.548  1.00  0.00     0.008 A 
ATOM      8  C   UNL     1       6.380  -0.072  -1.587  1.00  0.00     0.054 A 
ATOM      9  C   UNL     1       8.936   0.764  -1.106  1.00  0.00     0.051 A 
ATOM     10  C   UNL     1       7.448  -0.778  -2.148  1.00  0.00     0.166 A 
ATOM     11  C   UNL     1       8.737  -0.356  -1.906  1.00  0.00     0.165 A 
ATOM     12  O   UNL     1       7.516  -1.893  -2.957  1.00  0.00    -0.454 OA
ATOM     13  O   UNL     1       9.578  -1.230  -2.577  1.00  0.00    -0.454 OA
ATOM     14  C   UNL     1       8.850  -2.273  -3.182  1.00  0.00     0.468 C 
ENDBRANCH   5   6
ENDBRANCH   1   5
TORSDOF 3
ENDMDL
MODEL 2
REMARK VINA RESULT:      -7.5      1.918      2.370
REMARK SMILES CC(=O)CCc1ccc2c(c1)OCO2
REMARK SMILES IDX 4 1 2 2 1 3 3 4 5 5 6 6 7 7 11 8 8 9 10 10 9 11 12 12 14 13
REMARK SMILES IDX 13 14
REMARK H PARENT
REMARK Flexibility Score: inf
ROOT
ATOM      1  C   UNL     1       5.691   1.323  -0.276  1.00  0.00     0.080 C 
ENDROOT
BRANCH   1   2
ATOM      2  C   UNL     1       5.117   1.264   1.097  1.00  0.00     0.130 C 
ATOM      3  C   UNL     1       5.460   0.167   2.041  1.00  0.00     0.087 C 
ATOM      4  O   UNL     1       4.342   2.122   1.490  1.00  0.00    -0.300 OA
ENDBRANCH   1   2
BRANCH   1   5
ATOM      5  C   UNL     1       7.192   1.115  -0.254  1.00  0.00     0.043 C 
BRANCH   5   6
ATOM      6  C   UNL     1       7.574  -0.172  -0.863  1.00  0.00    -0.044 A 
ATOM      7  C   UNL     1       7.648  -0.333  -2.251  1.00  0.00     0.008 A 
ATOM      8  C   UNL     1       7.869  -1.247  -0.056  1.00  0.00     0.054 A 
ATOM      9  C   UNL     1       8.012  -1.564  -2.766  1.00  0.00     0.051 A 
ATOM     10  C   UNL     1       8.238  -2.490  -0.581  1.00  0.00     0.166 A 
ATOM     11  C   UNL     1       8.310  -2.649  -1.947  1.00  0.00     0.165 A 
ATOM     12  O   UNL     1       8.574  -3.693   0.001  1.00  0.00    -0.454 OA
ATOM     13  O   UNL     1       8.693  -3.961  -2.178  1.00  0.00    -0.454 OA
ATOM     14  C   UNL     1       8.960  -4.633  -0.969  1.00  0.00     0.468 C 
ENDBRANCH   5   6
ENDBRANCH   1   5
TORSDOF 3
ENDMDL
MODEL 3
REMARK VINA RESULT:      -7.2      2.055      2.633
REMARK SMILES CC(=O)CCc1ccc2c(c1)OCO2
REMARK SMILES IDX 4 1 2 2 1 3 3 4 5 5 6 6 7 7 11 8 8 9 10 10 9 11 12 12 14 13
REMARK SMILES IDX 13 14
REMARK H PARENT
REMARK Flexibility Score: inf
ROOT
ATOM      1  C   UNL     1       5.412  -0.064   2.028  1.00  0.00     0.080 C 
ENDROOT
BRANCH   1   2
ATOM      2  C   UNL     1       4.554   1.126   1.769  1.00  0.00     0.130 C 
ATOM      3  C   UNL     1       4.902   2.127   0.724  1.00  0.00     0.087 C 
ATOM      4  O   UNL     1       3.534   1.316   2.411  1.00  0.00    -0.300 OA
ENDBRANCH   1   2
BRANCH   1   5
ATOM      5  C   UNL     1       6.846   0.189   1.608  1.00  0.00     0.043 C 
BRANCH   5   6
ATOM      6  C   UNL     1       7.274  -0.733   0.541  1.00  0.00    -0.044 A 
ATOM      7  C   UNL     1       7.145  -0.400  -0.812  1.00  0.00     0.008 A 
ATOM      8  C   UNL     1       7.816  -1.954   0.872  1.00  0.00     0.054 A 
ATOM      9  C   UNL     1       7.565  -1.305  -1.769  1.00  0.00     0.051 A 
ATOM     10  C   UNL     1       8.239  -2.866  -0.099  1.00  0.00     0.166 A 
ATOM     11  C   UNL     1       8.112  -2.539  -1.431  1.00  0.00     0.165 A 
ATOM     12  O   UNL     1       8.800  -4.124  -0.027  1.00  0.00    -0.454 OA
ATOM     13  O   UNL     1       8.604  -3.613  -2.156  1.00  0.00    -0.454 OA
ATOM     14  C   UNL     1       9.134  -4.601  -1.305  1.00  0.00     0.468 C 
ENDBRANCH   5   6
ENDBRANCH   1   5
TORSDOF 3
ENDMDL
MODEL 4
REMARK VINA RESULT:      -7.1      1.251      1.466
REMARK SMILES CC(=O)CCc1ccc2c(c1)OCO2
REMARK SMILES IDX 4 1 2 2 1 3 3 4 5 5 6 6 7 7 11 8 8 9 10 10 9 11 12 12 14 13
REMARK SMILES IDX 13 14
REMARK H PARENT
REMARK Flexibility Score: inf
ROOT
ATOM      1  C   UNL     1       6.377   1.191   0.932  1.00  0.00     0.080 C 
ENDROOT
BRANCH   1   2
ATOM      2  C   UNL     1       5.658   0.370   1.946  1.00  0.00     0.130 C 
ATOM      3  C   UNL     1       6.262  -0.858   2.527  1.00  0.00     0.087 C 
ATOM      4  O   UNL     1       4.543   0.685   2.330  1.00  0.00    -0.300 OA
ENDBRANCH   1   2
BRANCH   1   5
ATOM      5  C   UNL     1       5.864   0.913  -0.467  1.00  0.00     0.043 C 
BRANCH   5   6
ATOM      6  C   UNL     1       6.812   0.096  -1.244  1.00  0.00    -0.044 A 
ATOM      7  C   UNL     1       7.491   0.616  -2.352  1.00  0.00     0.008 A 
ATOM      8  C   UNL     1       7.046  -1.211  -0.880  1.00  0.00     0.054 A 
ATOM      9  C   UNL     1       8.370  -0.198  -3.043  1.00  0.00     0.051 A 
ATOM     10  C   UNL     1       7.936  -2.029  -1.582  1.00  0.00     0.166 A 
ATOM     11  C   UNL     1       8.603  -1.518  -2.673  1.00  0.00     0.165 A 
ATOM     12  O   UNL     1       8.333  -3.340  -1.421  1.00  0.00    -0.454 OA
ATOM     13  O   UNL     1       9.406  -2.536  -3.164  1.00  0.00    -0.454 OA
ATOM     14  C   UNL     1       9.334  -3.680  -2.347  1.00  0.00     0.468 C 
ENDBRANCH   5   6
ENDBRANCH   1   5
TORSDOF 3
ENDMDL
MODEL 5
REMARK VINA RESULT:      -7.1      1.973      2.531
REMARK SMILES CC(=O)CCc1ccc2c(c1)OCO2
REMARK SMILES IDX 4 1 2 2 1 3 3 4 5 5 6 6 7 7 11 8 8 9 10 10 9 11 12 12 14 13
REMARK SMILES IDX 13 14
REMARK H PARENT
REMARK Flexibility Score: inf
ROOT
ATOM      1  C   UNL     1       6.743   0.785   1.420  1.00  0.00     0.080 C 
ENDROOT
BRANCH   1   2
ATOM      2  C   UNL     1       5.302   1.160   1.431  1.00  0.00     0.130 C 
ATOM      3  C   UNL     1       4.740   2.127   0.450  1.00  0.00     0.087 C 
ATOM      4  O   UNL     1       4.535   0.681   2.251  1.00  0.00    -0.300 OA
ENDBRANCH   1   2
BRANCH   1   5
ATOM      5  C   UNL     1       7.363   1.017   0.057  1.00  0.00     0.043 C 
BRANCH   5   6
ATOM      6  C   UNL     1       7.660  -0.252  -0.632  1.00  0.00    -0.044 A 
ATOM      7  C   UNL     1       7.598  -0.361  -2.026  1.00  0.00     0.008 A 
ATOM      8  C   UNL     1       8.009  -1.362   0.103  1.00  0.00     0.054 A 
ATOM      9  C   UNL     1       7.888  -1.577  -2.617  1.00  0.00     0.051 A 
ATOM     10  C   UNL     1       8.301  -2.589  -0.500  1.00  0.00     0.166 A 
ATOM     11  C   UNL     1       8.240  -2.697  -1.871  1.00  0.00     0.165 A 
ATOM     12  O   UNL     1       8.667  -3.819   0.003  1.00  0.00    -0.454 OA
ATOM     13  O   UNL     1       8.574  -4.005  -2.185  1.00  0.00    -0.454 OA
ATOM     14  C   UNL     1       8.940  -4.727  -1.033  1.00  0.00     0.468 C 
ENDBRANCH   5   6
ENDBRANCH   1   5
TORSDOF 3
ENDMDL
