@<TRIPOS>MOLECULE
/home/cewinharhar/GITHUB/reincatalyze/data/processed/docking_pred/2023-May-30-2130_sub9_nm5_bs15_s42_ex16_mel10_mts10000_k50_ec05_g099_lra3e-4_lrc3e-3/895ea28dab147140afd805a2e235fc395d2e1c3a_ligand_9.pdbqt
 14 15 0 0 0
SMALL
GASTEIGER

@<TRIPOS>ATOM
      1  C          5.6910    1.3230   -0.2760 C.3     1  UNL1        0.0800
      2  C          5.1170    1.2640    1.0970 C.2     1  UNL1        0.1300
      3  C          5.4600    0.1670    2.0410 C.3     1  UNL1        0.0870
      4  O          4.3420    2.1220    1.4900 O.2     1  UNL1       -0.3000
      5  C          7.1920    1.1150   -0.2540 C.3     1  UNL1        0.0430
      6  C          7.5740   -0.1720   -0.8630 C.2     1  UNL1       -0.0440
      7  C          7.6480   -0.3330   -2.2510 C.2     1  UNL1        0.0080
      8  C          7.8690   -1.2470   -0.0560 C.2     1  UNL1        0.0540
      9  C          8.0120   -1.5640   -2.7660 C.2     1  UNL1        0.0510
     10  C          8.2380   -2.4900   -0.5810 C.2     1  UNL1        0.1660
     11  C          8.3100   -2.6490   -1.9470 C.2     1  UNL1        0.1650
     12  O          8.5740   -3.6930    0.0010 O.2     1  UNL1       -0.4540
     13  O          8.6930   -3.9610   -2.1780 O.2     1  UNL1       -0.4540
     14  C          8.9600   -4.6330   -0.9690 C.3     1  UNL1        0.4680
@<TRIPOS>BOND
     1     9     7    1
     2     9    11    2
     3     7     6    2
     4    13    11    1
     5    13    14    1
     6    11    10    1
     7    14    12    1
     8     6     5    1
     9     6     8    1
    10    10     8    2
    11    10    12    1
    12     1     5    1
    13     1     2    1
    14     2     4    2
    15     2     3    1
