@<TRIPOS>MOLECULE
/home/cewinharhar/GITHUB/reincatalyze/data/processed/docking_pred/2023-May-30-2130_sub9_nm5_bs15_s42_ex16_mel10_mts10000_k50_ec05_g099_lra3e-4_lrc3e-3/8a11bcf53d23875e79cb17a52aa7b3de0dc85e7d_ligand_9.pdbqt
 14 15 0 0 0
SMALL
GASTEIGER

@<TRIPOS>ATOM
      1  C          5.8250    1.4180   -0.4030 C.3     1  UNL1        0.0800
      2  C          5.1440    1.3400    0.9190 C.2     1  UNL1        0.1300
      3  C          5.4770    0.2790    1.9070 C.3     1  UNL1        0.0870
      4  O          4.2860    2.1500    1.2320 O.2     1  UNL1       -0.3000
      5  C          7.3050    1.1150   -0.2790 C.3     1  UNL1        0.0430
      6  C          7.6470   -0.1890   -0.8750 C.2     1  UNL1       -0.0440
      7  C          7.6840   -0.3740   -2.2620 C.2     1  UNL1        0.0080
      8  C          7.9410   -1.2570   -0.0580 C.2     1  UNL1        0.0540
      9  C          8.0120   -1.6200   -2.7640 C.2     1  UNL1        0.0510
     10  C          8.2730   -2.5140   -0.5700 C.2     1  UNL1        0.1660
     11  C          8.3080   -2.6980   -1.9350 C.2     1  UNL1        0.1650
     12  O          8.5990   -3.7150    0.0240 O.2     1  UNL1       -0.4540
     13  O          8.6610   -4.0200   -2.1520 O.2     1  UNL1       -0.4540
     14  C          8.9430   -4.6770   -0.9400 C.3     1  UNL1        0.4680
@<TRIPOS>BOND
     1     9     7    1
     2     9    11    2
     3     7     6    2
     4    13    11    1
     5    13    14    1
     6    11    10    1
     7    14    12    1
     8     6     5    1
     9     6     8    1
    10    10     8    2
    11    10    12    1
    12     1     5    1
    13     1     2    1
    14     2     4    2
    15     2     3    1
