@<TRIPOS>MOLECULE
/home/cewinharhar/GITHUB/reincatalyze/data/processed/docking_pred/2023-May-30-2130_sub9_nm5_bs15_s42_ex16_mel10_mts10000_k50_ec05_g099_lra3e-4_lrc3e-3/8a11bcf53d23875e79cb17a52aa7b3de0dc85e7d_ligand_9.pdbqt
 14 15 0 0 0
SMALL
GASTEIGER

@<TRIPOS>ATOM
      1  C          5.5200    1.9410    1.2620 C.3     1  UNL1        0.0800
      2  C          5.0960    0.7240    2.0080 C.2     1  UNL1        0.1300
      3  C          6.0070   -0.4370    2.1910 C.3     1  UNL1        0.0870
      4  O          3.9790    0.6440    2.4940 O.2     1  UNL1       -0.3000
      5  C          5.3910    1.7410   -0.2360 C.3     1  UNL1        0.0430
      6  C          6.5600    1.0410   -0.7960 C.2     1  UNL1       -0.0440
      7  C          7.8660    1.4780   -0.5460 C.2     1  UNL1        0.0080
      8  C          6.3760   -0.0730   -1.5840 C.2     1  UNL1        0.0540
      9  C          8.9250    0.7800   -1.0980 C.2     1  UNL1        0.0510
     10  C          7.4490   -0.7750   -2.1390 C.2     1  UNL1        0.1660
     11  C          8.7340   -0.3450   -1.8940 C.2     1  UNL1        0.1650
     12  O          7.5260   -1.8930   -2.9430 O.2     1  UNL1       -0.4540
     13  O          9.5820   -1.2170   -2.5590 O.2     1  UNL1       -0.4540
     14  C          8.8620   -2.2660   -3.1620 C.3     1  UNL1        0.4680
@<TRIPOS>BOND
     1    14    12    1
     2    14    13    1
     3    12    10    1
     4    13    11    1
     5    10    11    2
     6    10     8    1
     7    11     9    1
     8     8     6    2
     9     9     7    2
    10     6     7    1
    11     6     5    1
    12     5     1    1
    13     1     2    1
    14     2     3    1
    15     2     4    2
