@<TRIPOS>MOLECULE
/home/cewinharhar/GITHUB/reincatalyze/data/processed/docking_pred/2023-May-30-2130_sub9_nm5_bs15_s42_ex16_mel10_mts10000_k50_ec05_g099_lra3e-4_lrc3e-3/8c75984685002de52dc1feb6518b36ce8b766619_ligand_9.pdbqt
 14 15 0 0 0
SMALL
GASTEIGER

@<TRIPOS>ATOM
      1  C          5.5050   -0.0480    1.9520 C.3     1  UNL1        0.0800
      2  C          4.6550    1.1380    1.6550 C.2     1  UNL1        0.1300
      3  C          5.0140    2.1090    0.5870 C.3     1  UNL1        0.0870
      4  O          3.6320    1.3500    2.2860 O.2     1  UNL1       -0.3000
      5  C          6.9400    0.1810    1.5210 C.3     1  UNL1        0.0430
      6  C          7.3520   -0.7650    0.4690 C.2     1  UNL1       -0.0440
      7  C          7.2270   -0.4510   -0.8900 C.2     1  UNL1        0.0080
      8  C          7.8770   -1.9880    0.8190 C.2     1  UNL1        0.0540
      9  C          7.6310   -1.3780   -1.8330 C.2     1  UNL1        0.0510
     10  C          8.2850   -2.9220   -0.1390 C.2     1  UNL1        0.1660
     11  C          8.1610   -2.6150   -1.4750 C.2     1  UNL1        0.1650
     12  O          8.8280   -4.1860   -0.0470 O.2     1  UNL1       -0.4540
     13  O          8.6360   -3.7070   -2.1840 O.2     1  UNL1       -0.4540
     14  C          9.1520   -4.6890   -1.3170 C.3     1  UNL1        0.4680
@<TRIPOS>BOND
     1    13    11    1
     2    13    14    1
     3     9    11    2
     4     9     7    1
     5    11    10    1
     6    14    12    1
     7     7     6    2
     8    10    12    1
     9    10     8    2
    10     6     8    1
    11     6     5    1
    12     3     2    1
    13     5     1    1
    14     2     1    1
    15     2     4    2
