@<TRIPOS>MOLECULE
/home/cewinharhar/GITHUB/reincatalyze/data/processed/docking_pred/2023-May-30-2130_sub9_nm5_bs15_s42_ex16_mel10_mts10000_k50_ec05_g099_lra3e-4_lrc3e-3/8d3077df06d226cded71bc62a2223dd87f430218_ligand_9.pdbqt
 14 15 0 0 0
SMALL
GASTEIGER

@<TRIPOS>ATOM
      1  C          5.2950   -0.0860    1.9760 C.3     1  UNL1        0.0800
      2  C          4.4270    1.1120    1.7990 C.2     1  UNL1        0.1300
      3  C          4.7290    2.1500    0.7770 C.3     1  UNL1        0.0870
      4  O          3.4370    1.2760    2.4930 O.2     1  UNL1       -0.3000
      5  C          6.7640    0.2870    1.9270 C.3     1  UNL1        0.0430
      6  C          7.3720   -0.0590    0.6300 C.2     1  UNL1       -0.0440
      7  C          7.8670    0.9260   -0.2330 C.2     1  UNL1        0.0080
      8  C          7.4640   -1.3780    0.2490 C.2     1  UNL1        0.0540
      9  C          8.4280    0.5420   -1.4370 C.2     1  UNL1        0.0510
     10  C          8.0330   -1.7610   -0.9690 C.2     1  UNL1        0.1660
     11  C          8.5180   -0.7930   -1.8190 C.2     1  UNL1        0.1650
     12  O          8.2360   -2.9870   -1.5670 O.2     1  UNL1       -0.4540
     13  O          9.0160   -1.4520   -2.9330 O.2     1  UNL1       -0.4540
     14  C          8.9400   -2.8480   -2.7740 C.3     1  UNL1        0.4680
@<TRIPOS>BOND
     1    13    14    1
     2    13    11    1
     3    14    12    1
     4    11     9    2
     5    11    10    1
     6    12    10    1
     7     9     7    1
     8    10     8    2
     9     7     6    2
    10     8     6    1
    11     6     5    1
    12     3     2    1
    13     2     1    1
    14     2     4    2
    15     5     1    1
