@<TRIPOS>MOLECULE
/home/cewinharhar/GITHUB/reincatalyze/data/processed/docking_pred/2023-May-30-2130_sub9_nm5_bs15_s42_ex16_mel10_mts10000_k50_ec05_g099_lra3e-4_lrc3e-3/8d3077df06d226cded71bc62a2223dd87f430218_ligand_9.pdbqt
 14 15 0 0 0
SMALL
GASTEIGER

@<TRIPOS>ATOM
      1  C          6.3660    1.2100    0.8920 C.3     1  UNL1        0.0800
      2  C          5.6610    0.4020    1.9260 C.2     1  UNL1        0.1300
      3  C          6.2620   -0.8340    2.4950 C.3     1  UNL1        0.0870
      4  O          4.5620    0.7340    2.3400 O.2     1  UNL1       -0.3000
      5  C          5.8530    0.8910   -0.4990 C.3     1  UNL1        0.0430
      6  C          6.8160    0.0790   -1.2630 C.2     1  UNL1       -0.0440
      7  C          7.5250    0.6100   -2.3470 C.2     1  UNL1        0.0080
      8  C          7.0320   -1.2340   -0.9110 C.2     1  UNL1        0.0540
      9  C          8.4160   -0.2000   -3.0270 C.2     1  UNL1        0.0510
     10  C          7.9350   -2.0480   -1.6010 C.2     1  UNL1        0.1660
     11  C          8.6330   -1.5270   -2.6680 C.2     1  UNL1        0.1650
     12  O          8.3210   -3.3630   -1.4490 O.2     1  UNL1       -0.4540
     13  O          9.4410   -2.5430   -3.1530 O.2     1  UNL1       -0.4540
     14  C          9.3430   -3.6970   -2.3540 C.3     1  UNL1        0.4680
@<TRIPOS>BOND
     1    13    11    1
     2    13    14    1
     3     9    11    2
     4     9     7    1
     5    11    10    1
     6    14    12    1
     7     7     6    2
     8    10    12    1
     9    10     8    2
    10     6     8    1
    11     6     5    1
    12     5     1    1
    13     1     2    1
    14     2     4    2
    15     2     3    1
