MODEL 1
REMARK VINA RESULT:      -7.7      0.000      0.000
REMARK SMILES CC(=O)CCc1ccc2c(c1)OCO2
REMARK SMILES IDX 4 1 2 2 1 3 3 4 5 5 6 6 7 7 11 8 8 9 10 10 9 11 12 12 14 13
REMARK SMILES IDX 13 14
REMARK H PARENT
REMARK Flexibility Score: inf
ROOT
ATOM      1  C   UNL     1       5.540   1.913   1.277  1.00  0.00     0.080 C 
ENDROOT
BRANCH   1   2
ATOM      2  C   UNL     1       5.119   0.690   2.016  1.00  0.00     0.130 C 
ATOM      3  C   UNL     1       6.031  -0.472   2.187  1.00  0.00     0.087 C 
ATOM      4  O   UNL     1       4.004   0.607   2.506  1.00  0.00    -0.300 OA
ENDBRANCH   1   2
BRANCH   1   5
ATOM      5  C   UNL     1       5.409   1.723  -0.221  1.00  0.00     0.043 C 
BRANCH   5   6
ATOM      6  C   UNL     1       6.575   1.021  -0.787  1.00  0.00    -0.044 A 
ATOM      7  C   UNL     1       7.883   1.450  -0.532  1.00  0.00     0.008 A 
ATOM      8  C   UNL     1       6.385  -0.084  -1.584  1.00  0.00     0.054 A 
ATOM      9  C   UNL     1       8.938   0.751  -1.090  1.00  0.00     0.051 A 
ATOM     10  C   UNL     1       7.455  -0.788  -2.145  1.00  0.00     0.166 A 
ATOM     11  C   UNL     1       8.743  -0.366  -1.896  1.00  0.00     0.165 A 
ATOM     12  O   UNL     1       7.527  -1.899  -2.958  1.00  0.00    -0.454 OA
ATOM     13  O   UNL     1       9.586  -1.237  -2.568  1.00  0.00    -0.454 OA
ATOM     14  C   UNL     1       8.861  -2.277  -3.180  1.00  0.00     0.468 C 
ENDBRANCH   5   6
ENDBRANCH   1   5
TORSDOF 3
ENDMDL
MODEL 2
REMARK VINA RESULT:      -7.5      1.815      2.265
REMARK SMILES CC(=O)CCc1ccc2c(c1)OCO2
REMARK SMILES IDX 4 1 2 2 1 3 3 4 5 5 6 6 7 7 11 8 8 9 10 10 9 11 12 12 14 13
REMARK SMILES IDX 13 14
REMARK H PARENT
REMARK Flexibility Score: inf
ROOT
ATOM      1  C   UNL     1       5.585   1.361  -0.255  1.00  0.00     0.080 C 
ENDROOT
BRANCH   1   2
ATOM      2  C   UNL     1       5.026   1.233   1.120  1.00  0.00     0.130 C 
ATOM      3  C   UNL     1       5.410   0.111   2.017  1.00  0.00     0.087 C 
ATOM      4  O   UNL     1       4.230   2.051   1.552  1.00  0.00    -0.300 OA
ENDBRANCH   1   2
BRANCH   1   5
ATOM      5  C   UNL     1       7.090   1.185  -0.256  1.00  0.00     0.043 C 
BRANCH   5   6
ATOM      6  C   UNL     1       7.492  -0.079  -0.898  1.00  0.00    -0.044 A 
ATOM      7  C   UNL     1       7.542  -0.211  -2.290  1.00  0.00     0.008 A 
ATOM      8  C   UNL     1       7.831  -1.162  -0.119  1.00  0.00     0.054 A 
ATOM      9  C   UNL     1       7.927  -1.422  -2.837  1.00  0.00     0.051 A 
ATOM     10  C   UNL     1       8.221  -2.384  -0.676  1.00  0.00     0.166 A 
ATOM     11  C   UNL     1       8.269  -2.515  -2.046  1.00  0.00     0.165 A 
ATOM     12  O   UNL     1       8.599  -3.590  -0.125  1.00  0.00    -0.454 OA
ATOM     13  O   UNL     1       8.681  -3.811  -2.311  1.00  0.00    -0.454 OA
ATOM     14  C   UNL     1       8.989  -4.499  -1.122  1.00  0.00     0.468 C 
ENDBRANCH   5   6
ENDBRANCH   1   5
TORSDOF 3
ENDMDL
MODEL 3
REMARK VINA RESULT:      -7.3      2.055      2.625
REMARK SMILES CC(=O)CCc1ccc2c(c1)OCO2
REMARK SMILES IDX 4 1 2 2 1 3 3 4 5 5 6 6 7 7 11 8 8 9 10 10 9 11 12 12 14 13
REMARK SMILES IDX 13 14
REMARK H PARENT
REMARK Flexibility Score: inf
ROOT
ATOM      1  C   UNL     1       5.431  -0.047   2.011  1.00  0.00     0.080 C 
ENDROOT
BRANCH   1   2
ATOM      2  C   UNL     1       4.571   1.145   1.770  1.00  0.00     0.130 C 
ATOM      3  C   UNL     1       4.885   2.132   0.702  1.00  0.00     0.087 C 
ATOM      4  O   UNL     1       3.576   1.348   2.448  1.00  0.00    -0.300 OA
ENDBRANCH   1   2
BRANCH   1   5
ATOM      5  C   UNL     1       6.860   0.209   1.576  1.00  0.00     0.043 C 
BRANCH   5   6
ATOM      6  C   UNL     1       7.283  -0.724   0.516  1.00  0.00    -0.044 A 
ATOM      7  C   UNL     1       7.148  -0.402  -0.840  1.00  0.00     0.008 A 
ATOM      8  C   UNL     1       7.828  -1.941   0.855  1.00  0.00     0.054 A 
ATOM      9  C   UNL     1       7.563  -1.316  -1.791  1.00  0.00     0.051 A 
ATOM     10  C   UNL     1       8.247  -2.862  -0.110  1.00  0.00     0.166 A 
ATOM     11  C   UNL     1       8.113  -2.547  -1.444  1.00  0.00     0.165 A 
ATOM     12  O   UNL     1       8.809  -4.118  -0.029  1.00  0.00    -0.454 OA
ATOM     13  O   UNL     1       8.602  -3.627  -2.162  1.00  0.00    -0.454 OA
ATOM     14  C   UNL     1       9.137  -4.607  -1.305  1.00  0.00     0.468 C 
ENDBRANCH   5   6
ENDBRANCH   1   5
TORSDOF 3
ENDMDL
MODEL 4
REMARK VINA RESULT:      -7.2      1.247      1.460
REMARK SMILES CC(=O)CCc1ccc2c(c1)OCO2
REMARK SMILES IDX 4 1 2 2 1 3 3 4 5 5 6 6 7 7 11 8 8 9 10 10 9 11 12 12 14 13
REMARK SMILES IDX 13 14
REMARK H PARENT
REMARK Flexibility Score: inf
ROOT
ATOM      1  C   UNL     1       6.366   1.210   0.892  1.00  0.00     0.080 C 
ENDROOT
BRANCH   1   2
ATOM      2  C   UNL     1       5.661   0.402   1.926  1.00  0.00     0.130 C 
ATOM      3  C   UNL     1       6.262  -0.834   2.495  1.00  0.00     0.087 C 
ATOM      4  O   UNL     1       4.562   0.734   2.340  1.00  0.00    -0.300 OA
ENDBRANCH   1   2
BRANCH   1   5
ATOM      5  C   UNL     1       5.853   0.891  -0.499  1.00  0.00     0.043 C 
BRANCH   5   6
ATOM      6  C   UNL     1       6.816   0.079  -1.263  1.00  0.00    -0.044 A 
ATOM      7  C   UNL     1       7.525   0.610  -2.347  1.00  0.00     0.008 A 
ATOM      8  C   UNL     1       7.032  -1.234  -0.911  1.00  0.00     0.054 A 
ATOM      9  C   UNL     1       8.416  -0.200  -3.027  1.00  0.00     0.051 A 
ATOM     10  C   UNL     1       7.935  -2.048  -1.601  1.00  0.00     0.166 A 
ATOM     11  C   UNL     1       8.633  -1.527  -2.668  1.00  0.00     0.165 A 
ATOM     12  O   UNL     1       8.321  -3.363  -1.449  1.00  0.00    -0.454 OA
ATOM     13  O   UNL     1       9.441  -2.543  -3.153  1.00  0.00    -0.454 OA
ATOM     14  C   UNL     1       9.343  -3.697  -2.354  1.00  0.00     0.468 C 
ENDBRANCH   5   6
ENDBRANCH   1   5
TORSDOF 3
ENDMDL
MODEL 5
REMARK VINA RESULT:      -6.8      1.267      1.761
REMARK SMILES CC(=O)CCc1ccc2c(c1)OCO2
REMARK SMILES IDX 4 1 2 2 1 3 3 4 5 5 6 6 7 7 11 8 8 9 10 10 9 11 12 12 14 13
REMARK SMILES IDX 13 14
REMARK H PARENT
REMARK Flexibility Score: inf
ROOT
ATOM      1  C   UNL     1       5.295  -0.086   1.976  1.00  0.00     0.080 C 
ENDROOT
BRANCH   1   2
ATOM      2  C   UNL     1       4.427   1.112   1.799  1.00  0.00     0.130 C 
ATOM      3  C   UNL     1       4.729   2.150   0.777  1.00  0.00     0.087 C 
ATOM      4  O   UNL     1       3.437   1.276   2.493  1.00  0.00    -0.300 OA
ENDBRANCH   1   2
BRANCH   1   5
ATOM      5  C   UNL     1       6.764   0.287   1.927  1.00  0.00     0.043 C 
BRANCH   5   6
ATOM      6  C   UNL     1       7.372  -0.059   0.630  1.00  0.00    -0.044 A 
ATOM      7  C   UNL     1       7.867   0.926  -0.233  1.00  0.00     0.008 A 
ATOM      8  C   UNL     1       7.464  -1.378   0.249  1.00  0.00     0.054 A 
ATOM      9  C   UNL     1       8.428   0.542  -1.437  1.00  0.00     0.051 A 
ATOM     10  C   UNL     1       8.033  -1.761  -0.969  1.00  0.00     0.166 A 
ATOM     11  C   UNL     1       8.518  -0.793  -1.819  1.00  0.00     0.165 A 
ATOM     12  O   UNL     1       8.236  -2.987  -1.567  1.00  0.00    -0.454 OA
ATOM     13  O   UNL     1       9.016  -1.452  -2.933  1.00  0.00    -0.454 OA
ATOM     14  C   UNL     1       8.940  -2.848  -2.774  1.00  0.00     0.468 C 
ENDBRANCH   5   6
ENDBRANCH   1   5
TORSDOF 3
ENDMDL
