@<TRIPOS>MOLECULE
/home/cewinharhar/GITHUB/reincatalyze/data/processed/docking_pred/2023-May-30-2130_sub9_nm5_bs15_s42_ex16_mel10_mts10000_k50_ec05_g099_lra3e-4_lrc3e-3/8d3077df06d226cded71bc62a2223dd87f430218_ligand_9.pdbqt
 14 15 0 0 0
SMALL
GASTEIGER

@<TRIPOS>ATOM
      1  C          5.5850    1.3610   -0.2550 C.3     1  UNL1        0.0800
      2  C          5.0260    1.2330    1.1200 C.2     1  UNL1        0.1300
      3  C          5.4100    0.1110    2.0170 C.3     1  UNL1        0.0870
      4  O          4.2300    2.0510    1.5520 O.2     1  UNL1       -0.3000
      5  C          7.0900    1.1850   -0.2560 C.3     1  UNL1        0.0430
      6  C          7.4920   -0.0790   -0.8980 C.2     1  UNL1       -0.0440
      7  C          7.5420   -0.2110   -2.2900 C.2     1  UNL1        0.0080
      8  C          7.8310   -1.1620   -0.1190 C.2     1  UNL1        0.0540
      9  C          7.9270   -1.4220   -2.8370 C.2     1  UNL1        0.0510
     10  C          8.2210   -2.3840   -0.6760 C.2     1  UNL1        0.1660
     11  C          8.2690   -2.5150   -2.0460 C.2     1  UNL1        0.1650
     12  O          8.5990   -3.5900   -0.1250 O.2     1  UNL1       -0.4540
     13  O          8.6810   -3.8110   -2.3110 O.2     1  UNL1       -0.4540
     14  C          8.9890   -4.4990   -1.1220 C.3     1  UNL1        0.4680
@<TRIPOS>BOND
     1     9     7    1
     2     9    11    2
     3    13    11    1
     4    13    14    1
     5     7     6    2
     6    11    10    1
     7    14    12    1
     8     6     5    1
     9     6     8    1
    10    10    12    1
    11    10     8    2
    12     5     1    1
    13     1     2    1
    14     2     4    2
    15     2     3    1
