@<TRIPOS>MOLECULE
/home/cewinharhar/GITHUB/reincatalyze/data/processed/docking_pred/2023-May-30-2130_sub9_nm5_bs15_s42_ex16_mel10_mts10000_k50_ec05_g099_lra3e-4_lrc3e-3/8d3077df06d226cded71bc62a2223dd87f430218_ligand_9.pdbqt
 14 15 0 0 0
SMALL
GASTEIGER

@<TRIPOS>ATOM
      1  C          5.4310   -0.0470    2.0110 C.3     1  UNL1        0.0800
      2  C          4.5710    1.1450    1.7700 C.2     1  UNL1        0.1300
      3  C          4.8850    2.1320    0.7020 C.3     1  UNL1        0.0870
      4  O          3.5760    1.3480    2.4480 O.2     1  UNL1       -0.3000
      5  C          6.8600    0.2090    1.5760 C.3     1  UNL1        0.0430
      6  C          7.2830   -0.7240    0.5160 C.2     1  UNL1       -0.0440
      7  C          7.1480   -0.4020   -0.8400 C.2     1  UNL1        0.0080
      8  C          7.8280   -1.9410    0.8550 C.2     1  UNL1        0.0540
      9  C          7.5630   -1.3160   -1.7910 C.2     1  UNL1        0.0510
     10  C          8.2470   -2.8620   -0.1100 C.2     1  UNL1        0.1660
     11  C          8.1130   -2.5470   -1.4440 C.2     1  UNL1        0.1650
     12  O          8.8090   -4.1180   -0.0290 O.2     1  UNL1       -0.4540
     13  O          8.6020   -3.6270   -2.1620 O.2     1  UNL1       -0.4540
     14  C          9.1370   -4.6070   -1.3050 C.3     1  UNL1        0.4680
@<TRIPOS>BOND
     1    13    11    1
     2    13    14    1
     3     9    11    2
     4     9     7    1
     5    11    10    1
     6    14    12    1
     7     7     6    2
     8    10    12    1
     9    10     8    2
    10     6     8    1
    11     6     5    1
    12     3     2    1
    13     5     1    1
    14     2     1    1
    15     2     4    2
