@<TRIPOS>MOLECULE
/home/cewinharhar/GITHUB/reincatalyze/data/processed/docking_pred/2023-May-30-2130_sub9_nm5_bs15_s42_ex16_mel10_mts10000_k50_ec05_g099_lra3e-4_lrc3e-3/8f7c925e970cb887b69f6e81c5db99fda922d0ae_ligand_9.pdbqt
 14 15 0 0 0
SMALL
GASTEIGER

@<TRIPOS>ATOM
      1  C          5.4840   -0.0130    2.0020 C.3     1  UNL1        0.0800
      2  C          4.6000    1.1580    1.7470 C.2     1  UNL1        0.1300
      3  C          4.8980    2.1430    0.6740 C.3     1  UNL1        0.0870
      4  O          3.5970    1.3440    2.4180 O.2     1  UNL1       -0.3000
      5  C          6.9010    0.2560    1.5350 C.3     1  UNL1        0.0430
      6  C          7.3180   -0.6900    0.4840 C.2     1  UNL1       -0.0440
      7  C          7.1970   -0.3770   -0.8750 C.2     1  UNL1        0.0080
      8  C          7.8440   -1.9130    0.8360 C.2     1  UNL1        0.0540
      9  C          7.6060   -1.3040   -1.8160 C.2     1  UNL1        0.0510
     10  C          8.2570   -2.8460   -0.1190 C.2     1  UNL1        0.1660
     11  C          8.1360   -2.5390   -1.4570 C.2     1  UNL1        0.1650
     12  O          8.8010   -4.1090   -0.0250 O.2     1  UNL1       -0.4540
     13  O          8.6160   -3.6310   -2.1630 O.2     1  UNL1       -0.4540
     14  C          9.1310   -4.6120   -1.2950 C.3     1  UNL1        0.4680
@<TRIPOS>BOND
     1    13    11    1
     2    13    14    1
     3     9    11    2
     4     9     7    1
     5    11    10    1
     6    14    12    1
     7     7     6    2
     8    10    12    1
     9    10     8    2
    10     6     8    1
    11     6     5    1
    12     3     2    1
    13     5     1    1
    14     2     1    1
    15     2     4    2
