@<TRIPOS>MOLECULE
/home/cewinharhar/GITHUB/reincatalyze/data/processed/docking_pred/2023-May-30-2130_sub9_nm5_bs15_s42_ex16_mel10_mts10000_k50_ec05_g099_lra3e-4_lrc3e-3/8f7c925e970cb887b69f6e81c5db99fda922d0ae_ligand_9.pdbqt
 14 15 0 0 0
SMALL
GASTEIGER

@<TRIPOS>ATOM
      1  C          8.3640    0.1960   -2.6240 C.3     1  UNL1        0.0800
      2  C          8.0790   -1.2610   -2.7410 C.2     1  UNL1        0.1300
      3  C          9.1570   -2.2470   -3.0230 C.3     1  UNL1        0.0870
      4  O          6.9450   -1.6910   -2.6080 O.2     1  UNL1       -0.3000
      5  C          8.8790    0.5480   -1.2430 C.3     1  UNL1        0.0430
      6  C          7.8290    0.4130   -0.2170 C.2     1  UNL1       -0.0440
      7  C          7.9110   -0.5510    0.7940 C.2     1  UNL1        0.0080
      8  C          6.7390    1.2520   -0.2430 C.2     1  UNL1        0.0540
      9  C          6.8960   -0.6300    1.7290 C.2     1  UNL1        0.0510
     10  C          5.7150    1.1690    0.7050 C.2     1  UNL1        0.1660
     11  C          5.7940    0.2190    1.7000 C.2     1  UNL1        0.1650
     12  O          4.5460    1.8760    0.8910 O.2     1  UNL1       -0.4540
     13  O          4.6610    0.3650    2.4840 O.2     1  UNL1       -0.4540
     14  C          3.8880    1.4630    2.0610 C.3     1  UNL1        0.4680
@<TRIPOS>BOND
     1     3     2    1
     2     2     1    1
     3     2     4    2
     4     1     5    1
     5     5     6    1
     6     8     6    2
     7     8    10    1
     8     6     7    1
     9    10    12    1
    10    10    11    2
    11     7     9    2
    12    12    14    1
    13    11     9    1
    14    11    13    1
    15    14    13    1
