@<TRIPOS>MOLECULE
/home/cewinharhar/GITHUB/reincatalyze/data/processed/docking_pred/2023-May-30-2130_sub9_nm5_bs15_s42_ex16_mel10_mts10000_k50_ec05_g099_lra3e-4_lrc3e-3/8f7c925e970cb887b69f6e81c5db99fda922d0ae_ligand_9.pdbqt
 14 15 0 0 0
SMALL
GASTEIGER

@<TRIPOS>ATOM
      1  C          5.7490    1.3080   -0.2860 C.3     1  UNL1        0.0800
      2  C          5.1850    1.2380    1.0910 C.2     1  UNL1        0.1300
      3  C          5.4210    0.0640    1.9730 C.3     1  UNL1        0.0870
      4  O          4.5080    2.1500    1.5370 O.2     1  UNL1       -0.3000
      5  C          7.2480    1.0850   -0.2790 C.3     1  UNL1        0.0430
      6  C          7.6110   -0.2090   -0.8840 C.2     1  UNL1       -0.0440
      7  C          7.6280   -0.3900   -2.2720 C.2     1  UNL1        0.0080
      8  C          7.9440   -1.2710   -0.0750 C.2     1  UNL1        0.0540
      9  C          7.9780   -1.6270   -2.7830 C.2     1  UNL1        0.0510
     10  C          8.2970   -2.5200   -0.5960 C.2     1  UNL1        0.1660
     11  C          8.3140   -2.6990   -1.9620 C.2     1  UNL1        0.1650
     12  O          8.6620   -3.7130   -0.0110 O.2     1  UNL1       -0.4540
     13  O          8.6940   -4.0120   -2.1890 O.2     1  UNL1       -0.4540
     14  C          9.0120   -4.6650   -0.9830 C.3     1  UNL1        0.4680
@<TRIPOS>BOND
     1     9     7    1
     2     9    11    2
     3     7     6    2
     4    13    11    1
     5    13    14    1
     6    11    10    1
     7    14    12    1
     8     6     5    1
     9     6     8    1
    10    10     8    2
    11    10    12    1
    12     1     5    1
    13     1     2    1
    14     2     4    2
    15     2     3    1
