@<TRIPOS>MOLECULE
/home/cewinharhar/GITHUB/reincatalyze/data/processed/docking_pred/2023-May-30-2130_sub9_nm5_bs15_s42_ex16_mel10_mts10000_k50_ec05_g099_lra3e-4_lrc3e-3/8f7c925e970cb887b69f6e81c5db99fda922d0ae_ligand_9.pdbqt
 14 15 0 0 0
SMALL
GASTEIGER

@<TRIPOS>ATOM
      1  C          6.3430    1.2110    0.9300 C.3     1  UNL1        0.0800
      2  C          5.6550    0.3700    1.9490 C.2     1  UNL1        0.1300
      3  C          6.2890   -0.8540    2.5090 C.3     1  UNL1        0.0870
      4  O          4.5420    0.6630    2.3560 O.2     1  UNL1       -0.3000
      5  C          5.8320    0.9120   -0.4660 C.3     1  UNL1        0.0430
      6  C          6.7920    0.1020   -1.2370 C.2     1  UNL1       -0.0440
      7  C          7.4920    0.6350   -2.3260 C.2     1  UNL1        0.0080
      8  C          7.0160   -1.2100   -0.8860 C.2     1  UNL1        0.0540
      9  C          8.3820   -0.1720   -3.0120 C.2     1  UNL1        0.0510
     10  C          7.9160   -2.0210   -1.5820 C.2     1  UNL1        0.1660
     11  C          8.6050   -1.4980   -2.6540 C.2     1  UNL1        0.1650
     12  O          8.3070   -3.3350   -1.4320 O.2     1  UNL1       -0.4540
     13  O          9.4130   -2.5110   -3.1440 O.2     1  UNL1       -0.4540
     14  C          9.3240   -3.6660   -2.3440 C.3     1  UNL1        0.4680
@<TRIPOS>BOND
     1    13    11    1
     2    13    14    1
     3     9    11    2
     4     9     7    1
     5    11    10    1
     6    14    12    1
     7     7     6    2
     8    10    12    1
     9    10     8    2
    10     6     8    1
    11     6     5    1
    12     5     1    1
    13     1     2    1
    14     2     4    2
    15     2     3    1
