MODEL 1
REMARK VINA RESULT:      -7.6      0.000      0.000
REMARK SMILES CC(=O)CCc1ccc2c(c1)OCO2
REMARK SMILES IDX 4 1 2 2 1 3 3 4 5 5 6 6 7 7 11 8 8 9 10 10 9 11 12 12 14 13
REMARK SMILES IDX 13 14
REMARK H PARENT
REMARK Flexibility Score: inf
ROOT
ATOM      1  C   UNL     1       5.555   1.885   1.284  1.00  0.00     0.080 C 
ENDROOT
BRANCH   1   2
ATOM      2  C   UNL     1       5.110   0.667   2.017  1.00  0.00     0.130 C 
ATOM      3  C   UNL     1       6.005  -0.508   2.193  1.00  0.00     0.087 C 
ATOM      4  O   UNL     1       3.990   0.597   2.496  1.00  0.00    -0.300 OA
ENDBRANCH   1   2
BRANCH   1   5
ATOM      5  C   UNL     1       5.419   1.706  -0.215  1.00  0.00     0.043 C 
BRANCH   5   6
ATOM      6  C   UNL     1       6.581   1.006  -0.789  1.00  0.00    -0.044 A 
ATOM      7  C   UNL     1       7.890   1.446  -0.558  1.00  0.00     0.008 A 
ATOM      8  C   UNL     1       6.388  -0.111  -1.570  1.00  0.00     0.054 A 
ATOM      9  C   UNL     1       8.942   0.748  -1.123  1.00  0.00     0.051 A 
ATOM     10  C   UNL     1       7.455  -0.813  -2.138  1.00  0.00     0.166 A 
ATOM     11  C   UNL     1       8.742  -0.380  -1.913  1.00  0.00     0.165 A 
ATOM     12  O   UNL     1       7.522  -1.933  -2.940  1.00  0.00    -0.454 OA
ATOM     13  O   UNL     1       9.582  -1.252  -2.587  1.00  0.00    -0.454 OA
ATOM     14  C   UNL     1       8.856  -2.304  -3.176  1.00  0.00     0.468 C 
ENDBRANCH   5   6
ENDBRANCH   1   5
TORSDOF 3
ENDMDL
MODEL 2
REMARK VINA RESULT:      -7.4      1.917      2.389
REMARK SMILES CC(=O)CCc1ccc2c(c1)OCO2
REMARK SMILES IDX 4 1 2 2 1 3 3 4 5 5 6 6 7 7 11 8 8 9 10 10 9 11 12 12 14 13
REMARK SMILES IDX 13 14
REMARK H PARENT
REMARK Flexibility Score: inf
ROOT
ATOM      1  C   UNL     1       5.749   1.308  -0.286  1.00  0.00     0.080 C 
ENDROOT
BRANCH   1   2
ATOM      2  C   UNL     1       5.185   1.238   1.091  1.00  0.00     0.130 C 
ATOM      3  C   UNL     1       5.421   0.064   1.973  1.00  0.00     0.087 C 
ATOM      4  O   UNL     1       4.508   2.150   1.537  1.00  0.00    -0.300 OA
ENDBRANCH   1   2
BRANCH   1   5
ATOM      5  C   UNL     1       7.248   1.085  -0.279  1.00  0.00     0.043 C 
BRANCH   5   6
ATOM      6  C   UNL     1       7.611  -0.209  -0.884  1.00  0.00    -0.044 A 
ATOM      7  C   UNL     1       7.628  -0.390  -2.272  1.00  0.00     0.008 A 
ATOM      8  C   UNL     1       7.944  -1.271  -0.075  1.00  0.00     0.054 A 
ATOM      9  C   UNL     1       7.978  -1.627  -2.783  1.00  0.00     0.051 A 
ATOM     10  C   UNL     1       8.297  -2.520  -0.596  1.00  0.00     0.166 A 
ATOM     11  C   UNL     1       8.314  -2.699  -1.962  1.00  0.00     0.165 A 
ATOM     12  O   UNL     1       8.662  -3.713  -0.011  1.00  0.00    -0.454 OA
ATOM     13  O   UNL     1       8.694  -4.012  -2.189  1.00  0.00    -0.454 OA
ATOM     14  C   UNL     1       9.012  -4.665  -0.983  1.00  0.00     0.468 C 
ENDBRANCH   5   6
ENDBRANCH   1   5
TORSDOF 3
ENDMDL
MODEL 3
REMARK VINA RESULT:      -7.2      2.050      2.599
REMARK SMILES CC(=O)CCc1ccc2c(c1)OCO2
REMARK SMILES IDX 4 1 2 2 1 3 3 4 5 5 6 6 7 7 11 8 8 9 10 10 9 11 12 12 14 13
REMARK SMILES IDX 13 14
REMARK H PARENT
REMARK Flexibility Score: inf
ROOT
ATOM      1  C   UNL     1       5.484  -0.013   2.002  1.00  0.00     0.080 C 
ENDROOT
BRANCH   1   2
ATOM      2  C   UNL     1       4.600   1.158   1.747  1.00  0.00     0.130 C 
ATOM      3  C   UNL     1       4.898   2.143   0.674  1.00  0.00     0.087 C 
ATOM      4  O   UNL     1       3.597   1.344   2.418  1.00  0.00    -0.300 OA
ENDBRANCH   1   2
BRANCH   1   5
ATOM      5  C   UNL     1       6.901   0.256   1.535  1.00  0.00     0.043 C 
BRANCH   5   6
ATOM      6  C   UNL     1       7.318  -0.690   0.484  1.00  0.00    -0.044 A 
ATOM      7  C   UNL     1       7.197  -0.377  -0.875  1.00  0.00     0.008 A 
ATOM      8  C   UNL     1       7.844  -1.913   0.836  1.00  0.00     0.054 A 
ATOM      9  C   UNL     1       7.606  -1.304  -1.816  1.00  0.00     0.051 A 
ATOM     10  C   UNL     1       8.257  -2.846  -0.119  1.00  0.00     0.166 A 
ATOM     11  C   UNL     1       8.136  -2.539  -1.457  1.00  0.00     0.165 A 
ATOM     12  O   UNL     1       8.801  -4.109  -0.025  1.00  0.00    -0.454 OA
ATOM     13  O   UNL     1       8.616  -3.631  -2.163  1.00  0.00    -0.454 OA
ATOM     14  C   UNL     1       9.131  -4.612  -1.295  1.00  0.00     0.468 C 
ENDBRANCH   5   6
ENDBRANCH   1   5
TORSDOF 3
ENDMDL
MODEL 4
REMARK VINA RESULT:      -7.1      1.233      1.420
REMARK SMILES CC(=O)CCc1ccc2c(c1)OCO2
REMARK SMILES IDX 4 1 2 2 1 3 3 4 5 5 6 6 7 7 11 8 8 9 10 10 9 11 12 12 14 13
REMARK SMILES IDX 13 14
REMARK H PARENT
REMARK Flexibility Score: inf
ROOT
ATOM      1  C   UNL     1       6.343   1.211   0.930  1.00  0.00     0.080 C 
ENDROOT
BRANCH   1   2
ATOM      2  C   UNL     1       5.655   0.370   1.949  1.00  0.00     0.130 C 
ATOM      3  C   UNL     1       6.289  -0.854   2.509  1.00  0.00     0.087 C 
ATOM      4  O   UNL     1       4.542   0.663   2.356  1.00  0.00    -0.300 OA
ENDBRANCH   1   2
BRANCH   1   5
ATOM      5  C   UNL     1       5.832   0.912  -0.466  1.00  0.00     0.043 C 
BRANCH   5   6
ATOM      6  C   UNL     1       6.792   0.102  -1.237  1.00  0.00    -0.044 A 
ATOM      7  C   UNL     1       7.492   0.635  -2.326  1.00  0.00     0.008 A 
ATOM      8  C   UNL     1       7.016  -1.210  -0.886  1.00  0.00     0.054 A 
ATOM      9  C   UNL     1       8.382  -0.172  -3.012  1.00  0.00     0.051 A 
ATOM     10  C   UNL     1       7.916  -2.021  -1.582  1.00  0.00     0.166 A 
ATOM     11  C   UNL     1       8.605  -1.498  -2.654  1.00  0.00     0.165 A 
ATOM     12  O   UNL     1       8.307  -3.335  -1.432  1.00  0.00    -0.454 OA
ATOM     13  O   UNL     1       9.413  -2.511  -3.144  1.00  0.00    -0.454 OA
ATOM     14  C   UNL     1       9.324  -3.666  -2.344  1.00  0.00     0.468 C 
ENDBRANCH   5   6
ENDBRANCH   1   5
TORSDOF 3
ENDMDL
MODEL 5
REMARK VINA RESULT:      -6.8      1.183      5.181
REMARK SMILES CC(=O)CCc1ccc2c(c1)OCO2
REMARK SMILES IDX 4 1 2 2 1 3 3 4 5 5 6 6 7 7 11 8 8 9 10 10 9 11 12 12 14 13
REMARK SMILES IDX 13 14
REMARK H PARENT
REMARK Flexibility Score: inf
ROOT
ATOM      1  C   UNL     1       8.364   0.196  -2.624  1.00  0.00     0.080 C 
ENDROOT
BRANCH   1   2
ATOM      2  C   UNL     1       8.079  -1.261  -2.741  1.00  0.00     0.130 C 
ATOM      3  C   UNL     1       9.157  -2.247  -3.023  1.00  0.00     0.087 C 
ATOM      4  O   UNL     1       6.945  -1.691  -2.608  1.00  0.00    -0.300 OA
ENDBRANCH   1   2
BRANCH   1   5
ATOM      5  C   UNL     1       8.879   0.548  -1.243  1.00  0.00     0.043 C 
BRANCH   5   6
ATOM      6  C   UNL     1       7.829   0.413  -0.217  1.00  0.00    -0.044 A 
ATOM      7  C   UNL     1       7.911  -0.551   0.794  1.00  0.00     0.008 A 
ATOM      8  C   UNL     1       6.739   1.252  -0.243  1.00  0.00     0.054 A 
ATOM      9  C   UNL     1       6.896  -0.630   1.729  1.00  0.00     0.051 A 
ATOM     10  C   UNL     1       5.715   1.169   0.705  1.00  0.00     0.166 A 
ATOM     11  C   UNL     1       5.794   0.219   1.700  1.00  0.00     0.165 A 
ATOM     12  O   UNL     1       4.546   1.876   0.891  1.00  0.00    -0.454 OA
ATOM     13  O   UNL     1       4.661   0.365   2.484  1.00  0.00    -0.454 OA
ATOM     14  C   UNL     1       3.888   1.463   2.061  1.00  0.00     0.468 C 
ENDBRANCH   5   6
ENDBRANCH   1   5
TORSDOF 3
ENDMDL
