@<TRIPOS>MOLECULE
/home/cewinharhar/GITHUB/reincatalyze/data/processed/docking_pred/2023-May-30-2130_sub9_nm5_bs15_s42_ex16_mel10_mts10000_k50_ec05_g099_lra3e-4_lrc3e-3/8f7e92428ebbeefdf44ae8ea1c0956f20f305f25_ligand_9.pdbqt
 14 15 0 0 0
SMALL
GASTEIGER

@<TRIPOS>ATOM
      1  C          6.3390    1.2190    0.9510 C.3     1  UNL1        0.0800
      2  C          5.6610    0.3650    1.9660 C.2     1  UNL1        0.1300
      3  C          6.3160   -0.8450    2.5310 C.3     1  UNL1        0.0870
      4  O          4.5400    0.6360    2.3640 O.2     1  UNL1       -0.3000
      5  C          5.8250    0.9300   -0.4450 C.3     1  UNL1        0.0430
      6  C          6.7800    0.1220   -1.2230 C.2     1  UNL1       -0.0440
      7  C          7.4660    0.6540   -2.3220 C.2     1  UNL1        0.0080
      8  C          7.0140   -1.1870   -0.8690 C.2     1  UNL1        0.0540
      9  C          8.3510   -0.1520   -3.0140 C.2     1  UNL1        0.0510
     10  C          7.9100   -1.9980   -1.5720 C.2     1  UNL1        0.1660
     11  C          8.5840   -1.4750   -2.6540 C.2     1  UNL1        0.1650
     12  O          8.3090   -3.3090   -1.4220 O.2     1  UNL1       -0.4540
     13  O          9.3920   -2.4870   -3.1490 O.2     1  UNL1       -0.4540
     14  C          9.3170   -3.6380   -2.3430 C.3     1  UNL1        0.4680
@<TRIPOS>BOND
     1    13    11    1
     2    13    14    1
     3     9    11    2
     4     9     7    1
     5    11    10    1
     6    14    12    1
     7     7     6    2
     8    10    12    1
     9    10     8    2
    10     6     8    1
    11     6     5    1
    12     5     1    1
    13     1     2    1
    14     2     4    2
    15     2     3    1
