@<TRIPOS>MOLECULE
/home/cewinharhar/GITHUB/reincatalyze/data/processed/docking_pred/2023-May-30-2130_sub9_nm5_bs15_s42_ex16_mel10_mts10000_k50_ec05_g099_lra3e-4_lrc3e-3/8f7e92428ebbeefdf44ae8ea1c0956f20f305f25_ligand_9.pdbqt
 14 15 0 0 0
SMALL
GASTEIGER

@<TRIPOS>ATOM
      1  C          6.7940    0.8950    1.2230 C.3     1  UNL1        0.0800
      2  C          5.3420    1.1930    1.3750 C.2     1  UNL1        0.1300
      3  C          4.6430    2.1500    0.4760 C.3     1  UNL1        0.0870
      4  O          4.6810    0.6560    2.2490 O.2     1  UNL1       -0.3000
      5  C          7.2410    1.0600   -0.2160 C.3     1  UNL1        0.0430
      6  C          7.5860   -0.2340   -0.8330 C.2     1  UNL1       -0.0440
      7  C          7.5950   -0.4040   -2.2220 C.2     1  UNL1        0.0080
      8  C          7.9090   -1.3060   -0.0330 C.2     1  UNL1        0.0540
      9  C          7.9270   -1.6410   -2.7440 C.2     1  UNL1        0.0510
     10  C          8.2450   -2.5550   -0.5650 C.2     1  UNL1        0.1660
     11  C          8.2540   -2.7230   -1.9320 C.2     1  UNL1        0.1650
     12  O          8.5980   -3.7570    0.0090 O.2     1  UNL1       -0.4540
     13  O          8.6170   -4.0400   -2.1710 O.2     1  UNL1       -0.4540
     14  C          8.9320   -4.7060   -0.9710 C.3     1  UNL1        0.4680
@<TRIPOS>BOND
     1     9     7    1
     2     9    11    2
     3     7     6    2
     4    13    11    1
     5    13    14    1
     6    11    10    1
     7    14    12    1
     8     6     5    1
     9     6     8    1
    10    10     8    2
    11    10    12    1
    12     5     1    1
    13     3     2    1
    14     1     2    1
    15     2     4    2
