@<TRIPOS>MOLECULE
/home/cewinharhar/GITHUB/reincatalyze/data/processed/docking_pred/2023-May-30-2130_sub9_nm5_bs15_s42_ex16_mel10_mts10000_k50_ec05_g099_lra3e-4_lrc3e-3/90bec1d2941dc3e2c4ee946d92d9c3e8ec331448_ligand_9.pdbqt
 14 15 0 0 0
SMALL
GASTEIGER

@<TRIPOS>ATOM
      1  C          6.9240    1.1370    1.0810 C.3     1  UNL1        0.0800
      2  C          5.4700    1.4520    1.0010 C.2     1  UNL1        0.1300
      3  C          4.8860    2.1470   -0.1770 C.3     1  UNL1        0.0870
      4  O          4.7120    1.1480    1.9070 O.2     1  UNL1       -0.3000
      5  C          7.5840    1.2330   -0.2800 C.3     1  UNL1        0.0430
      6  C          7.8270   -0.0980   -0.8650 C.2     1  UNL1       -0.0440
      7  C          7.7930   -0.3080   -2.2480 C.2     1  UNL1        0.0080
      8  C          8.0960   -1.1660   -0.0400 C.2     1  UNL1        0.0540
      9  C          8.0290   -1.5790   -2.7400 C.2     1  UNL1        0.0510
     10  C          8.3350   -2.4490   -0.5420 C.2     1  UNL1        0.1660
     11  C          8.3010   -2.6570   -1.9030 C.2     1  UNL1        0.1650
     12  O          8.6200   -3.6560    0.0600 O.2     1  UNL1       -0.4540
     13  O          8.5700   -4.0010   -2.1110 O.2     1  UNL1       -0.4540
     14  C          8.8670   -4.6520   -0.8990 C.3     1  UNL1        0.4680
@<TRIPOS>BOND
     1     9     7    1
     2     9    11    2
     3     7     6    2
     4    13    11    1
     5    13    14    1
     6    11    10    1
     7    14    12    1
     8     6     5    1
     9     6     8    1
    10    10     8    2
    11    10    12    1
    12     5     1    1
    13     3     2    1
    14     2     1    1
    15     2     4    2
