MODEL 1
REMARK VINA RESULT:      -7.7      0.000      0.000
REMARK SMILES CC(=O)CCc1ccc2c(c1)OCO2
REMARK SMILES IDX 4 1 2 2 1 3 3 4 5 5 6 6 7 7 11 8 8 9 10 10 9 11 12 12 14 13
REMARK SMILES IDX 13 14
REMARK H PARENT
REMARK Flexibility Score: inf
ROOT
ATOM      1  C   UNL     1       5.515   1.932   1.263  1.00  0.00     0.080 C 
ENDROOT
BRANCH   1   2
ATOM      2  C   UNL     1       5.071   0.717   2.002  1.00  0.00     0.130 C 
ATOM      3  C   UNL     1       5.959  -0.465   2.165  1.00  0.00     0.087 C 
ATOM      4  O   UNL     1       3.957   0.657   2.497  1.00  0.00    -0.300 OA
ENDBRANCH   1   2
BRANCH   1   5
ATOM      5  C   UNL     1       5.391   1.741  -0.236  1.00  0.00     0.043 C 
BRANCH   5   6
ATOM      6  C   UNL     1       6.559   1.038  -0.796  1.00  0.00    -0.044 A 
ATOM      7  C   UNL     1       7.865   1.472  -0.543  1.00  0.00     0.008 A 
ATOM      8  C   UNL     1       6.372  -0.074  -1.585  1.00  0.00     0.054 A 
ATOM      9  C   UNL     1       8.923   0.772  -1.095  1.00  0.00     0.051 A 
ATOM     10  C   UNL     1       7.445  -0.779  -2.139  1.00  0.00     0.166 A 
ATOM     11  C   UNL     1       8.731  -0.352  -1.893  1.00  0.00     0.165 A 
ATOM     12  O   UNL     1       7.520  -1.895  -2.945  1.00  0.00    -0.454 OA
ATOM     13  O   UNL     1       9.577  -1.225  -2.558  1.00  0.00    -0.454 OA
ATOM     14  C   UNL     1       8.855  -2.271  -3.163  1.00  0.00     0.468 C 
ENDBRANCH   5   6
ENDBRANCH   1   5
TORSDOF 3
ENDMDL
MODEL 2
REMARK VINA RESULT:      -7.4      1.938      2.428
REMARK SMILES CC(=O)CCc1ccc2c(c1)OCO2
REMARK SMILES IDX 4 1 2 2 1 3 3 4 5 5 6 6 7 7 11 8 8 9 10 10 9 11 12 12 14 13
REMARK SMILES IDX 13 14
REMARK H PARENT
REMARK Flexibility Score: inf
ROOT
ATOM      1  C   UNL     1       5.770   1.315  -0.294  1.00  0.00     0.080 C 
ENDROOT
BRANCH   1   2
ATOM      2  C   UNL     1       5.158   1.252   1.062  1.00  0.00     0.130 C 
ATOM      3  C   UNL     1       5.396   0.100   1.974  1.00  0.00     0.087 C 
ATOM      4  O   UNL     1       4.438   2.150   1.467  1.00  0.00    -0.300 OA
ENDBRANCH   1   2
BRANCH   1   5
ATOM      5  C   UNL     1       7.261   1.045  -0.238  1.00  0.00     0.043 C 
BRANCH   5   6
ATOM      6  C   UNL     1       7.606  -0.248  -0.857  1.00  0.00    -0.044 A 
ATOM      7  C   UNL     1       7.620  -0.415  -2.246  1.00  0.00     0.008 A 
ATOM      8  C   UNL     1       7.926  -1.322  -0.059  1.00  0.00     0.054 A 
ATOM      9  C   UNL     1       7.952  -1.651  -2.770  1.00  0.00     0.051 A 
ATOM     10  C   UNL     1       8.262  -2.570  -0.593  1.00  0.00     0.166 A 
ATOM     11  C   UNL     1       8.275  -2.735  -1.960  1.00  0.00     0.165 A 
ATOM     12  O   UNL     1       8.612  -3.774  -0.020  1.00  0.00    -0.454 OA
ATOM     13  O   UNL     1       8.637  -4.051  -2.201  1.00  0.00    -0.454 OA
ATOM     14  C   UNL     1       8.949  -4.720  -1.002  1.00  0.00     0.468 C 
ENDBRANCH   5   6
ENDBRANCH   1   5
TORSDOF 3
ENDMDL
MODEL 3
REMARK VINA RESULT:      -7.2      2.090      2.623
REMARK SMILES CC(=O)CCc1ccc2c(c1)OCO2
REMARK SMILES IDX 4 1 2 2 1 3 3 4 5 5 6 6 7 7 11 8 8 9 10 10 9 11 12 12 14 13
REMARK SMILES IDX 13 14
REMARK H PARENT
REMARK Flexibility Score: inf
ROOT
ATOM      1  C   UNL     1       5.554  -0.000   1.942  1.00  0.00     0.080 C 
ENDROOT
BRANCH   1   2
ATOM      2  C   UNL     1       4.669   1.160   1.643  1.00  0.00     0.130 C 
ATOM      3  C   UNL     1       4.958   2.093   0.521  1.00  0.00     0.087 C 
ATOM      4  O   UNL     1       3.675   1.380   2.315  1.00  0.00    -0.300 OA
ENDBRANCH   1   2
BRANCH   1   5
ATOM      5  C   UNL     1       6.973   0.255   1.476  1.00  0.00     0.043 C 
BRANCH   5   6
ATOM      6  C   UNL     1       7.387  -0.704   0.435  1.00  0.00    -0.044 A 
ATOM      7  C   UNL     1       7.302  -0.390  -0.926  1.00  0.00     0.008 A 
ATOM      8  C   UNL     1       7.873  -1.939   0.800  1.00  0.00     0.054 A 
ATOM      9  C   UNL     1       7.705  -1.330  -1.858  1.00  0.00     0.051 A 
ATOM     10  C   UNL     1       8.280  -2.885  -0.146  1.00  0.00     0.166 A 
ATOM     11  C   UNL     1       8.195  -2.578  -1.485  1.00  0.00     0.165 A 
ATOM     12  O   UNL     1       8.789  -4.162  -0.039  1.00  0.00    -0.454 OA
ATOM     13  O   UNL     1       8.660  -3.683  -2.180  1.00  0.00    -0.454 OA
ATOM     14  C   UNL     1       9.131  -4.676  -1.300  1.00  0.00     0.468 C 
ENDBRANCH   5   6
ENDBRANCH   1   5
TORSDOF 3
ENDMDL
MODEL 4
REMARK VINA RESULT:      -7.1      1.265      1.483
REMARK SMILES CC(=O)CCc1ccc2c(c1)OCO2
REMARK SMILES IDX 4 1 2 2 1 3 3 4 5 5 6 6 7 7 11 8 8 9 10 10 9 11 12 12 14 13
REMARK SMILES IDX 13 14
REMARK H PARENT
REMARK Flexibility Score: inf
ROOT
ATOM      1  C   UNL     1       6.380   1.183   0.959  1.00  0.00     0.080 C 
ENDROOT
BRANCH   1   2
ATOM      2  C   UNL     1       5.637   0.357   1.951  1.00  0.00     0.130 C 
ATOM      3  C   UNL     1       6.228  -0.875   2.540  1.00  0.00     0.087 C 
ATOM      4  O   UNL     1       4.514   0.669   2.311  1.00  0.00    -0.300 OA
ENDBRANCH   1   2
BRANCH   1   5
ATOM      5  C   UNL     1       5.875   0.940  -0.449  1.00  0.00     0.043 C 
BRANCH   5   6
ATOM      6  C   UNL     1       6.808   0.106  -1.228  1.00  0.00    -0.044 A 
ATOM      7  C   UNL     1       7.466   0.603  -2.359  1.00  0.00     0.008 A 
ATOM      8  C   UNL     1       7.047  -1.193  -0.841  1.00  0.00     0.054 A 
ATOM      9  C   UNL     1       8.331  -0.225  -3.050  1.00  0.00     0.051 A 
ATOM     10  C   UNL     1       7.924  -2.026  -1.543  1.00  0.00     0.166 A 
ATOM     11  C   UNL     1       8.570  -1.539  -2.657  1.00  0.00     0.165 A 
ATOM     12  O   UNL     1       8.323  -3.334  -1.364  1.00  0.00    -0.454 OA
ATOM     13  O   UNL     1       9.362  -2.567  -3.143  1.00  0.00    -0.454 OA
ATOM     14  C   UNL     1       9.305  -3.694  -2.301  1.00  0.00     0.468 C 
ENDBRANCH   5   6
ENDBRANCH   1   5
TORSDOF 3
ENDMDL
MODEL 5
REMARK VINA RESULT:      -6.9      1.916      2.581
REMARK SMILES CC(=O)CCc1ccc2c(c1)OCO2
REMARK SMILES IDX 4 1 2 2 1 3 3 4 5 5 6 6 7 7 11 8 8 9 10 10 9 11 12 12 14 13
REMARK SMILES IDX 13 14
REMARK H PARENT
REMARK Flexibility Score: inf
ROOT
ATOM      1  C   UNL     1       6.924   1.137   1.081  1.00  0.00     0.080 C 
ENDROOT
BRANCH   1   2
ATOM      2  C   UNL     1       5.470   1.452   1.001  1.00  0.00     0.130 C 
ATOM      3  C   UNL     1       4.886   2.147  -0.177  1.00  0.00     0.087 C 
ATOM      4  O   UNL     1       4.712   1.148   1.907  1.00  0.00    -0.300 OA
ENDBRANCH   1   2
BRANCH   1   5
ATOM      5  C   UNL     1       7.584   1.233  -0.280  1.00  0.00     0.043 C 
BRANCH   5   6
ATOM      6  C   UNL     1       7.827  -0.098  -0.865  1.00  0.00    -0.044 A 
ATOM      7  C   UNL     1       7.793  -0.308  -2.248  1.00  0.00     0.008 A 
ATOM      8  C   UNL     1       8.096  -1.166  -0.040  1.00  0.00     0.054 A 
ATOM      9  C   UNL     1       8.029  -1.579  -2.740  1.00  0.00     0.051 A 
ATOM     10  C   UNL     1       8.335  -2.449  -0.542  1.00  0.00     0.166 A 
ATOM     11  C   UNL     1       8.301  -2.657  -1.903  1.00  0.00     0.165 A 
ATOM     12  O   UNL     1       8.620  -3.656   0.060  1.00  0.00    -0.454 OA
ATOM     13  O   UNL     1       8.570  -4.001  -2.111  1.00  0.00    -0.454 OA
ATOM     14  C   UNL     1       8.867  -4.652  -0.899  1.00  0.00     0.468 C 
ENDBRANCH   5   6
ENDBRANCH   1   5
TORSDOF 3
ENDMDL
