@<TRIPOS>MOLECULE
/home/cewinharhar/GITHUB/reincatalyze/data/processed/docking_pred/2023-May-30-2130_sub9_nm5_bs15_s42_ex16_mel10_mts10000_k50_ec05_g099_lra3e-4_lrc3e-3/90bec1d2941dc3e2c4ee946d92d9c3e8ec331448_ligand_9.pdbqt
 14 15 0 0 0
SMALL
GASTEIGER

@<TRIPOS>ATOM
      1  C          5.7700    1.3150   -0.2940 C.3     1  UNL1        0.0800
      2  C          5.1580    1.2520    1.0620 C.2     1  UNL1        0.1300
      3  C          5.3960    0.1000    1.9740 C.3     1  UNL1        0.0870
      4  O          4.4380    2.1500    1.4670 O.2     1  UNL1       -0.3000
      5  C          7.2610    1.0450   -0.2380 C.3     1  UNL1        0.0430
      6  C          7.6060   -0.2480   -0.8570 C.2     1  UNL1       -0.0440
      7  C          7.6200   -0.4150   -2.2460 C.2     1  UNL1        0.0080
      8  C          7.9260   -1.3220   -0.0590 C.2     1  UNL1        0.0540
      9  C          7.9520   -1.6510   -2.7700 C.2     1  UNL1        0.0510
     10  C          8.2620   -2.5700   -0.5930 C.2     1  UNL1        0.1660
     11  C          8.2750   -2.7350   -1.9600 C.2     1  UNL1        0.1650
     12  O          8.6120   -3.7740   -0.0200 O.2     1  UNL1       -0.4540
     13  O          8.6370   -4.0510   -2.2010 O.2     1  UNL1       -0.4540
     14  C          8.9490   -4.7200   -1.0020 C.3     1  UNL1        0.4680
@<TRIPOS>BOND
     1     9     7    1
     2     9    11    2
     3     7     6    2
     4    13    11    1
     5    13    14    1
     6    11    10    1
     7    14    12    1
     8     6     5    1
     9     6     8    1
    10    10     8    2
    11    10    12    1
    12     1     5    1
    13     1     2    1
    14     2     4    2
    15     2     3    1
