@<TRIPOS>MOLECULE
/home/cewinharhar/GITHUB/reincatalyze/data/processed/docking_pred/2023-May-30-2130_sub9_nm5_bs15_s42_ex16_mel10_mts10000_k50_ec05_g099_lra3e-4_lrc3e-3/90bec1d2941dc3e2c4ee946d92d9c3e8ec331448_ligand_9.pdbqt
 14 15 0 0 0
SMALL
GASTEIGER

@<TRIPOS>ATOM
      1  C          6.3800    1.1830    0.9590 C.3     1  UNL1        0.0800
      2  C          5.6370    0.3570    1.9510 C.2     1  UNL1        0.1300
      3  C          6.2280   -0.8750    2.5400 C.3     1  UNL1        0.0870
      4  O          4.5140    0.6690    2.3110 O.2     1  UNL1       -0.3000
      5  C          5.8750    0.9400   -0.4490 C.3     1  UNL1        0.0430
      6  C          6.8080    0.1060   -1.2280 C.2     1  UNL1       -0.0440
      7  C          7.4660    0.6030   -2.3590 C.2     1  UNL1        0.0080
      8  C          7.0470   -1.1930   -0.8410 C.2     1  UNL1        0.0540
      9  C          8.3310   -0.2250   -3.0500 C.2     1  UNL1        0.0510
     10  C          7.9240   -2.0260   -1.5430 C.2     1  UNL1        0.1660
     11  C          8.5700   -1.5390   -2.6570 C.2     1  UNL1        0.1650
     12  O          8.3230   -3.3340   -1.3640 O.2     1  UNL1       -0.4540
     13  O          9.3620   -2.5670   -3.1430 O.2     1  UNL1       -0.4540
     14  C          9.3050   -3.6940   -2.3010 C.3     1  UNL1        0.4680
@<TRIPOS>BOND
     1    13    11    1
     2    13    14    1
     3     9    11    2
     4     9     7    1
     5    11    10    1
     6     7     6    2
     7    14    12    1
     8    10    12    1
     9    10     8    2
    10     6     8    1
    11     6     5    1
    12     5     1    1
    13     1     2    1
    14     2     4    2
    15     2     3    1
