@<TRIPOS>MOLECULE
/home/cewinharhar/GITHUB/reincatalyze/data/processed/docking_pred/2023-May-30-2130_sub9_nm5_bs15_s42_ex16_mel10_mts10000_k50_ec05_g099_lra3e-4_lrc3e-3/90bec1d2941dc3e2c4ee946d92d9c3e8ec331448_ligand_9.pdbqt
 14 15 0 0 0
SMALL
GASTEIGER

@<TRIPOS>ATOM
      1  C          5.5150    1.9320    1.2630 C.3     1  UNL1        0.0800
      2  C          5.0710    0.7170    2.0020 C.2     1  UNL1        0.1300
      3  C          5.9590   -0.4650    2.1650 C.3     1  UNL1        0.0870
      4  O          3.9570    0.6570    2.4970 O.2     1  UNL1       -0.3000
      5  C          5.3910    1.7410   -0.2360 C.3     1  UNL1        0.0430
      6  C          6.5590    1.0380   -0.7960 C.2     1  UNL1       -0.0440
      7  C          7.8650    1.4720   -0.5430 C.2     1  UNL1        0.0080
      8  C          6.3720   -0.0740   -1.5850 C.2     1  UNL1        0.0540
      9  C          8.9230    0.7720   -1.0950 C.2     1  UNL1        0.0510
     10  C          7.4450   -0.7790   -2.1390 C.2     1  UNL1        0.1660
     11  C          8.7310   -0.3520   -1.8930 C.2     1  UNL1        0.1650
     12  O          7.5200   -1.8950   -2.9450 O.2     1  UNL1       -0.4540
     13  O          9.5770   -1.2250   -2.5580 O.2     1  UNL1       -0.4540
     14  C          8.8550   -2.2710   -3.1630 C.3     1  UNL1        0.4680
@<TRIPOS>BOND
     1    14    12    1
     2    14    13    1
     3    12    10    1
     4    13    11    1
     5    10    11    2
     6    10     8    1
     7    11     9    1
     8     8     6    2
     9     9     7    2
    10     6     7    1
    11     6     5    1
    12     5     1    1
    13     1     2    1
    14     2     3    1
    15     2     4    2
