@<TRIPOS>MOLECULE
/home/cewinharhar/GITHUB/reincatalyze/data/processed/docking_pred/2023-May-30-2130_sub9_nm5_bs15_s42_ex16_mel10_mts10000_k50_ec05_g099_lra3e-4_lrc3e-3/91438d65c636cbfd2c8442c68b92b155f88758ee_ligand_9.pdbqt
 14 15 0 0 0
SMALL
GASTEIGER

@<TRIPOS>ATOM
      1  C          5.5950    1.8570    1.2890 C.3     1  UNL1        0.0800
      2  C          5.1360    0.6430    2.0200 C.2     1  UNL1        0.1300
      3  C          6.0190   -0.5410    2.1980 C.3     1  UNL1        0.0870
      4  O          4.0140    0.5850    2.4960 O.2     1  UNL1       -0.3000
      5  C          5.4520    1.6840   -0.2100 C.3     1  UNL1        0.0430
      6  C          6.6110    0.9870   -0.7930 C.2     1  UNL1       -0.0440
      7  C          7.9210    1.4290   -0.5710 C.2     1  UNL1        0.0080
      8  C          6.4140   -0.1290   -1.5740 C.2     1  UNL1        0.0540
      9  C          8.9700    0.7340   -1.1430 C.2     1  UNL1        0.0510
     10  C          7.4790   -0.8290   -2.1500 C.2     1  UNL1        0.1660
     11  C          8.7670   -0.3940   -1.9330 C.2     1  UNL1        0.1650
     12  O          7.5430   -1.9480   -2.9540 O.2     1  UNL1       -0.4540
     13  O          9.6040   -1.2640   -2.6140 O.2     1  UNL1       -0.4540
     14  C          8.8760   -2.3170   -3.1990 C.3     1  UNL1        0.4680
@<TRIPOS>BOND
     1    14    12    1
     2    14    13    1
     3    12    10    1
     4    13    11    1
     5    10    11    2
     6    10     8    1
     7    11     9    1
     8     8     6    2
     9     9     7    2
    10     6     7    1
    11     6     5    1
    12     5     1    1
    13     1     2    1
    14     2     3    1
    15     2     4    2
