@<TRIPOS>MOLECULE
/home/cewinharhar/GITHUB/reincatalyze/data/processed/docking_pred/2023-May-30-2130_sub9_nm5_bs15_s42_ex16_mel10_mts10000_k50_ec05_g099_lra3e-4_lrc3e-3/9282b18981f6708324b0af4486d36de930a99903_ligand_9.pdbqt
 14 15 0 0 0
SMALL
GASTEIGER

@<TRIPOS>ATOM
      1  C          6.0540    1.3740    1.8980 C.3     1  UNL1        0.0800
      2  C          4.8600    1.7890    1.1110 C.2     1  UNL1        0.1300
      3  C          4.9600    2.1460   -0.3300 C.3     1  UNL1        0.0870
      4  O          3.7570    1.8490    1.6290 O.2     1  UNL1       -0.3000
      5  C          5.9480   -0.0740    2.3360 C.3     1  UNL1        0.0430
      6  C          7.1200   -0.8600    1.9100 C.2     1  UNL1       -0.0440
      7  C          8.4110   -0.3200    1.9250 C.2     1  UNL1        0.0080
      8  C          6.9520   -2.1590    1.4860 C.2     1  UNL1        0.0540
      9  C          9.4720   -1.1060    1.5140 C.2     1  UNL1        0.0510
     10  C          8.0280   -2.9500    1.0730 C.2     1  UNL1        0.1660
     11  C          9.2980   -2.4180    1.0860 C.2     1  UNL1        0.1650
     12  O          8.1200   -4.2470    0.6150 O.2     1  UNL1       -0.4540
     13  O         10.1530   -3.4110    0.6330 O.2     1  UNL1       -0.4540
     14  C          9.4590   -4.6160    0.4090 C.3     1  UNL1        0.4680
@<TRIPOS>BOND
     1     3     2    1
     2    14    12    1
     3    14    13    1
     4    12    10    1
     5    13    11    1
     6    10    11    2
     7    10     8    1
     8    11     9    1
     9     2     4    2
    10     2     1    1
    11     8     6    2
    12     9     7    2
    13     1     5    1
    14     6     7    1
    15     6     5    1
