@<TRIPOS>MOLECULE
/home/cewinharhar/GITHUB/reincatalyze/data/processed/docking_pred/2023-May-30-2130_sub9_nm5_bs15_s42_ex16_mel10_mts10000_k50_ec05_g099_lra3e-4_lrc3e-3/9282b18981f6708324b0af4486d36de930a99903_ligand_9.pdbqt
 14 15 0 0 0
SMALL
GASTEIGER

@<TRIPOS>ATOM
      1  C          1.9970    0.0500    2.9870 C.3     1  UNL1        0.0800
      2  C          0.5260    0.2680    2.8950 C.2     1  UNL1        0.1300
      3  C         -0.0440    1.4740    2.2370 C.3     1  UNL1        0.0870
      4  O         -0.2580   -0.5410    3.3630 O.2     1  UNL1       -0.3000
      5  C          2.7630    1.1620    2.2980 C.3     1  UNL1        0.0430
      6  C          4.1780    0.8060    2.0950 C.2     1  UNL1       -0.0440
      7  C          5.1540    1.7830    1.8650 C.2     1  UNL1        0.0080
      8  C          4.5620   -0.5150    2.1340 C.2     1  UNL1        0.0540
      9  C          6.4670    1.3900    1.6820 C.2     1  UNL1        0.0510
     10  C          5.8910   -0.9070    1.9500 C.2     1  UNL1        0.1660
     11  C          6.8510    0.0530    1.7210 C.2     1  UNL1        0.1650
     12  O          6.5160   -2.1370    1.9420 O.2     1  UNL1       -0.4540
     13  O          8.0580   -0.6130    1.5780 O.2     1  UNL1       -0.4540
     14  C          7.9060   -1.9950    1.8000 C.3     1  UNL1        0.4680
@<TRIPOS>BOND
     1    13    11    1
     2    13    14    1
     3     9    11    2
     4     9     7    1
     5    11    10    1
     6    14    12    1
     7     7     6    2
     8    12    10    1
     9    10     8    2
    10     6     8    1
    11     6     5    1
    12     3     2    1
    13     5     1    1
    14     2     1    1
    15     2     4    2
