@<TRIPOS>MOLECULE
/home/cewinharhar/GITHUB/reincatalyze/data/processed/docking_pred/2023-May-30-2130_sub9_nm5_bs15_s42_ex16_mel10_mts10000_k50_ec05_g099_lra3e-4_lrc3e-3/9282b18981f6708324b0af4486d36de930a99903_ligand_9.pdbqt
 14 15 0 0 0
SMALL
GASTEIGER

@<TRIPOS>ATOM
      1  C          6.5220    2.1460    1.5390 C.3     1  UNL1        0.0800
      2  C          5.1660    2.0410    0.9320 C.2     1  UNL1        0.1300
      3  C          4.9580    2.1490   -0.5370 C.3     1  UNL1        0.0870
      4  O          4.1800    1.8620    1.6280 O.2     1  UNL1       -0.3000
      5  C          6.6920    1.1620    2.6790 C.3     1  UNL1        0.0430
      6  C          6.9890   -0.1960    2.1890 C.2     1  UNL1       -0.0440
      7  C          5.9750   -1.1340    1.9690 C.2     1  UNL1        0.0080
      8  C          8.2920   -0.5590    1.9360 C.2     1  UNL1        0.0540
      9  C          6.3130   -2.3930    1.5080 C.2     1  UNL1        0.0510
     10  C          8.6300   -1.8330    1.4680 C.2     1  UNL1        0.1660
     11  C          7.6320   -2.7580    1.2530 C.2     1  UNL1        0.1650
     12  O          9.8310   -2.4290    1.1470 O.2     1  UNL1       -0.4540
     13  O          8.2480   -3.9130    0.7980 O.2     1  UNL1       -0.4540
     14  C          9.6320   -3.7190    0.6300 C.3     1  UNL1        0.4680
@<TRIPOS>BOND
     1     3     2    1
     2    14    13    1
     3    14    12    1
     4    13    11    1
     5     2     1    1
     6     2     4    2
     7    12    10    1
     8    11    10    2
     9    11     9    1
    10    10     8    1
    11     9     7    2
    12     1     5    1
    13     8     6    2
    14     7     6    1
    15     6     5    1
