@<TRIPOS>MOLECULE
/home/cewinharhar/GITHUB/reincatalyze/data/processed/docking_pred/2023-May-30-2130_sub9_nm5_bs15_s42_ex16_mel10_mts10000_k50_ec05_g099_lra3e-4_lrc3e-3/9282b18981f6708324b0af4486d36de930a99903_ligand_9.pdbqt
 14 15 0 0 0
SMALL
GASTEIGER

@<TRIPOS>ATOM
      1  C          8.7820   -4.7950   -0.3620 C.3     1  UNL1        0.0800
      2  C          9.5080   -4.7050   -1.6600 C.2     1  UNL1        0.1300
      3  C         10.3360   -5.8300   -2.1710 C.3     1  UNL1        0.0870
      4  O          9.4430   -3.6970   -2.3450 O.2     1  UNL1       -0.3000
      5  C          9.5320   -4.0720    0.7390 C.3     1  UNL1        0.0430
      6  C          8.8730   -2.8070    1.1090 C.2     1  UNL1       -0.0440
      7  C          9.5950   -1.6140    1.2370 C.2     1  UNL1        0.0080
      8  C          7.5160   -2.7840    1.3330 C.2     1  UNL1        0.0540
      9  C          8.9230   -0.4570    1.5860 C.2     1  UNL1        0.0510
     10  C          6.8410   -1.6120    1.6850 C.2     1  UNL1        0.1660
     11  C          7.5510   -0.4380    1.8130 C.2     1  UNL1        0.1650
     12  O          5.5180   -1.3340    1.9580 O.2     1  UNL1       -0.4540
     13  O          6.6390    0.5450    2.1630 O.2     1  UNL1       -0.4540
     14  C          5.3260    0.0400    2.1780 C.3     1  UNL1        0.4680
@<TRIPOS>BOND
     1     4     2    2
     2     3     2    1
     3     2     1    1
     4     1     5    1
     5     5     6    1
     6     6     7    2
     7     6     8    1
     8     7     9    1
     9     8    10    2
    10     9    11    2
    11    10    11    1
    12    10    12    1
    13    11    13    1
    14    12    14    1
    15    13    14    1
