@<TRIPOS>MOLECULE
/home/cewinharhar/GITHUB/reincatalyze/data/processed/docking_pred/2023-May-30-2130_sub9_nm5_bs15_s42_ex16_mel10_mts10000_k50_ec05_g099_lra3e-4_lrc3e-3/9282b18981f6708324b0af4486d36de930a99903_ligand_9.pdbqt
 14 15 0 0 0
SMALL
GASTEIGER

@<TRIPOS>ATOM
      1  C          7.9600   -3.0580    0.8580 C.3     1  UNL1        0.0800
      2  C          9.1170   -3.9310    0.5150 C.2     1  UNL1        0.1300
      3  C          9.0880   -4.8370   -0.6640 C.3     1  UNL1        0.0870
      4  O         10.1290   -3.9290    1.1980 O.2     1  UNL1       -0.3000
      5  C          8.3560   -1.9870    1.8550 C.3     1  UNL1        0.0430
      6  C          7.4020   -0.8640    1.8590 C.2     1  UNL1       -0.0440
      7  C          7.8070    0.4450    1.5730 C.2     1  UNL1        0.0080
      8  C          6.0760   -1.0970    2.1470 C.2     1  UNL1        0.0540
      9  C          6.8670    1.4580    1.5910 C.2     1  UNL1        0.0510
     10  C          5.1290   -0.0690    2.1630 C.2     1  UNL1        0.1660
     11  C          5.5270    1.2190    1.8830 C.2     1  UNL1        0.1650
     12  O          3.7740   -0.0440    2.4170 O.2     1  UNL1       -0.4540
     13  O          4.3970    2.0170    1.9700 O.2     1  UNL1       -0.4540
     14  C          3.2470    1.2430    2.2170 C.3     1  UNL1        0.4680
@<TRIPOS>BOND
     1     3     2    1
     2     2     1    1
     3     2     4    2
     4     1     5    1
     5     7     9    1
     6     7     6    2
     7     9    11    2
     8     5     6    1
     9     6     8    1
    10    11    13    1
    11    11    10    1
    12    13    14    1
    13     8    10    2
    14    10    12    1
    15    14    12    1
