MODEL 1
REMARK VINA RESULT:       1.1      0.000      0.000
REMARK SMILES CC(=O)CCc1ccc2c(c1)OCO2
REMARK SMILES IDX 4 1 2 2 1 3 3 4 5 5 6 6 7 7 11 8 8 9 10 10 9 11 12 12 14 13
REMARK SMILES IDX 13 14
REMARK H PARENT
REMARK Flexibility Score: inf
ROOT
ATOM      1  C   UNL     1       6.522   2.146   1.539  1.00  0.00     0.080 C 
ENDROOT
BRANCH   1   2
ATOM      2  C   UNL     1       5.166   2.041   0.932  1.00  0.00     0.130 C 
ATOM      3  C   UNL     1       4.958   2.149  -0.537  1.00  0.00     0.087 C 
ATOM      4  O   UNL     1       4.180   1.862   1.628  1.00  0.00    -0.300 OA
ENDBRANCH   1   2
BRANCH   1   5
ATOM      5  C   UNL     1       6.692   1.162   2.679  1.00  0.00     0.043 C 
BRANCH   5   6
ATOM      6  C   UNL     1       6.989  -0.196   2.189  1.00  0.00    -0.044 A 
ATOM      7  C   UNL     1       5.975  -1.134   1.969  1.00  0.00     0.008 A 
ATOM      8  C   UNL     1       8.292  -0.559   1.936  1.00  0.00     0.054 A 
ATOM      9  C   UNL     1       6.313  -2.393   1.508  1.00  0.00     0.051 A 
ATOM     10  C   UNL     1       8.630  -1.833   1.468  1.00  0.00     0.166 A 
ATOM     11  C   UNL     1       7.632  -2.758   1.253  1.00  0.00     0.165 A 
ATOM     12  O   UNL     1       9.831  -2.429   1.147  1.00  0.00    -0.454 OA
ATOM     13  O   UNL     1       8.248  -3.913   0.798  1.00  0.00    -0.454 OA
ATOM     14  C   UNL     1       9.632  -3.719   0.630  1.00  0.00     0.468 C 
ENDBRANCH   5   6
ENDBRANCH   1   5
TORSDOF 3
ENDMDL
MODEL 2
REMARK VINA RESULT:       1.2      2.152      5.779
REMARK SMILES CC(=O)CCc1ccc2c(c1)OCO2
REMARK SMILES IDX 4 1 2 2 1 3 3 4 5 5 6 6 7 7 11 8 8 9 10 10 9 11 12 12 14 13
REMARK SMILES IDX 13 14
REMARK H PARENT
REMARK Flexibility Score: inf
ROOT
ATOM      1  C   UNL     1       8.782  -4.795  -0.362  1.00  0.00     0.080 C 
ENDROOT
BRANCH   1   2
ATOM      2  C   UNL     1       9.508  -4.705  -1.660  1.00  0.00     0.130 C 
ATOM      3  C   UNL     1      10.336  -5.830  -2.171  1.00  0.00     0.087 C 
ATOM      4  O   UNL     1       9.443  -3.697  -2.345  1.00  0.00    -0.300 OA
ENDBRANCH   1   2
BRANCH   1   5
ATOM      5  C   UNL     1       9.532  -4.072   0.739  1.00  0.00     0.043 C 
BRANCH   5   6
ATOM      6  C   UNL     1       8.873  -2.807   1.109  1.00  0.00    -0.044 A 
ATOM      7  C   UNL     1       9.595  -1.614   1.237  1.00  0.00     0.008 A 
ATOM      8  C   UNL     1       7.516  -2.784   1.333  1.00  0.00     0.054 A 
ATOM      9  C   UNL     1       8.923  -0.457   1.586  1.00  0.00     0.051 A 
ATOM     10  C   UNL     1       6.841  -1.612   1.685  1.00  0.00     0.166 A 
ATOM     11  C   UNL     1       7.551  -0.438   1.813  1.00  0.00     0.165 A 
ATOM     12  O   UNL     1       5.518  -1.334   1.958  1.00  0.00    -0.454 OA
ATOM     13  O   UNL     1       6.639   0.545   2.163  1.00  0.00    -0.454 OA
ATOM     14  C   UNL     1       5.326   0.040   2.178  1.00  0.00     0.468 C 
ENDBRANCH   5   6
ENDBRANCH   1   5
TORSDOF 3
ENDMDL
MODEL 3
REMARK VINA RESULT:       2.0      1.293      5.709
REMARK SMILES CC(=O)CCc1ccc2c(c1)OCO2
REMARK SMILES IDX 4 1 2 2 1 3 3 4 5 5 6 6 7 7 11 8 8 9 10 10 9 11 12 12 14 13
REMARK SMILES IDX 13 14
REMARK H PARENT
REMARK Flexibility Score: inf
ROOT
ATOM      1  C   UNL     1       7.960  -3.058   0.858  1.00  0.00     0.080 C 
ENDROOT
BRANCH   1   2
ATOM      2  C   UNL     1       9.117  -3.931   0.515  1.00  0.00     0.130 C 
ATOM      3  C   UNL     1       9.088  -4.837  -0.664  1.00  0.00     0.087 C 
ATOM      4  O   UNL     1      10.129  -3.929   1.198  1.00  0.00    -0.300 OA
ENDBRANCH   1   2
BRANCH   1   5
ATOM      5  C   UNL     1       8.356  -1.987   1.855  1.00  0.00     0.043 C 
BRANCH   5   6
ATOM      6  C   UNL     1       7.402  -0.864   1.859  1.00  0.00    -0.044 A 
ATOM      7  C   UNL     1       7.807   0.445   1.573  1.00  0.00     0.008 A 
ATOM      8  C   UNL     1       6.076  -1.097   2.147  1.00  0.00     0.054 A 
ATOM      9  C   UNL     1       6.867   1.458   1.591  1.00  0.00     0.051 A 
ATOM     10  C   UNL     1       5.129  -0.069   2.163  1.00  0.00     0.166 A 
ATOM     11  C   UNL     1       5.527   1.219   1.883  1.00  0.00     0.165 A 
ATOM     12  O   UNL     1       3.774  -0.044   2.417  1.00  0.00    -0.454 OA
ATOM     13  O   UNL     1       4.397   2.017   1.970  1.00  0.00    -0.454 OA
ATOM     14  C   UNL     1       3.247   1.243   2.217  1.00  0.00     0.468 C 
ENDBRANCH   5   6
ENDBRANCH   1   5
TORSDOF 3
ENDMDL
MODEL 4
REMARK VINA RESULT:       2.3      0.771      1.750
REMARK SMILES CC(=O)CCc1ccc2c(c1)OCO2
REMARK SMILES IDX 4 1 2 2 1 3 3 4 5 5 6 6 7 7 11 8 8 9 10 10 9 11 12 12 14 13
REMARK SMILES IDX 13 14
REMARK H PARENT
REMARK Flexibility Score: inf
ROOT
ATOM      1  C   UNL     1       6.054   1.374   1.898  1.00  0.00     0.080 C 
ENDROOT
BRANCH   1   2
ATOM      2  C   UNL     1       4.860   1.789   1.111  1.00  0.00     0.130 C 
ATOM      3  C   UNL     1       4.960   2.146  -0.330  1.00  0.00     0.087 C 
ATOM      4  O   UNL     1       3.757   1.849   1.629  1.00  0.00    -0.300 OA
ENDBRANCH   1   2
BRANCH   1   5
ATOM      5  C   UNL     1       5.948  -0.074   2.336  1.00  0.00     0.043 C 
BRANCH   5   6
ATOM      6  C   UNL     1       7.120  -0.860   1.910  1.00  0.00    -0.044 A 
ATOM      7  C   UNL     1       8.411  -0.320   1.925  1.00  0.00     0.008 A 
ATOM      8  C   UNL     1       6.952  -2.159   1.486  1.00  0.00     0.054 A 
ATOM      9  C   UNL     1       9.472  -1.106   1.514  1.00  0.00     0.051 A 
ATOM     10  C   UNL     1       8.028  -2.950   1.073  1.00  0.00     0.166 A 
ATOM     11  C   UNL     1       9.298  -2.418   1.086  1.00  0.00     0.165 A 
ATOM     12  O   UNL     1       8.120  -4.247   0.615  1.00  0.00    -0.454 OA
ATOM     13  O   UNL     1      10.153  -3.411   0.633  1.00  0.00    -0.454 OA
ATOM     14  C   UNL     1       9.459  -4.616   0.409  1.00  0.00     0.468 C 
ENDBRANCH   5   6
ENDBRANCH   1   5
TORSDOF 3
ENDMDL
MODEL 5
REMARK VINA RESULT:       2.4      3.114      4.027
REMARK SMILES CC(=O)CCc1ccc2c(c1)OCO2
REMARK SMILES IDX 4 1 2 2 1 3 3 4 5 5 6 6 7 7 11 8 8 9 10 10 9 11 12 12 14 13
REMARK SMILES IDX 13 14
REMARK H PARENT
REMARK Flexibility Score: inf
ROOT
ATOM      1  C   UNL     1       1.997   0.050   2.987  1.00  0.00     0.080 C 
ENDROOT
BRANCH   1   2
ATOM      2  C   UNL     1       0.526   0.268   2.895  1.00  0.00     0.130 C 
ATOM      3  C   UNL     1      -0.044   1.474   2.237  1.00  0.00     0.087 C 
ATOM      4  O   UNL     1      -0.258  -0.541   3.363  1.00  0.00    -0.300 OA
ENDBRANCH   1   2
BRANCH   1   5
ATOM      5  C   UNL     1       2.763   1.162   2.298  1.00  0.00     0.043 C 
BRANCH   5   6
ATOM      6  C   UNL     1       4.178   0.806   2.095  1.00  0.00    -0.044 A 
ATOM      7  C   UNL     1       5.154   1.783   1.865  1.00  0.00     0.008 A 
ATOM      8  C   UNL     1       4.562  -0.515   2.134  1.00  0.00     0.054 A 
ATOM      9  C   UNL     1       6.467   1.390   1.682  1.00  0.00     0.051 A 
ATOM     10  C   UNL     1       5.891  -0.907   1.950  1.00  0.00     0.166 A 
ATOM     11  C   UNL     1       6.851   0.053   1.721  1.00  0.00     0.165 A 
ATOM     12  O   UNL     1       6.516  -2.137   1.942  1.00  0.00    -0.454 OA
ATOM     13  O   UNL     1       8.058  -0.613   1.578  1.00  0.00    -0.454 OA
ATOM     14  C   UNL     1       7.906  -1.995   1.800  1.00  0.00     0.468 C 
ENDBRANCH   5   6
ENDBRANCH   1   5
TORSDOF 3
ENDMDL
