@<TRIPOS>MOLECULE
/home/cewinharhar/GITHUB/reincatalyze/data/processed/docking_pred/2023-May-30-2130_sub9_nm5_bs15_s42_ex16_mel10_mts10000_k50_ec05_g099_lra3e-4_lrc3e-3/93701e902e11c8f56728ec46c4b188a0e05b9a15_ligand_9.pdbqt
 14 15 0 0 0
SMALL
GASTEIGER

@<TRIPOS>ATOM
      1  C          5.7520    1.1620   -0.3270 C.3     1  UNL1        0.0800
      2  C          5.2820    1.1580    1.0870 C.2     1  UNL1        0.1300
      3  C          5.4160   -0.0450    1.9510 C.3     1  UNL1        0.0870
      4  O          4.7680    2.1490    1.5790 O.2     1  UNL1       -0.3000
      5  C          7.2610    1.0390   -0.4050 C.3     1  UNL1        0.0430
      6  C          7.6750   -0.2540   -0.9770 C.2     1  UNL1       -0.0440
      7  C          7.8280   -0.4300   -2.3570 C.2     1  UNL1        0.0080
      8  C          7.9210   -1.3210   -0.1430 C.2     1  UNL1        0.0540
      9  C          8.2200   -1.6670   -2.8360 C.2     1  UNL1        0.0510
     10  C          8.3180   -2.5690   -0.6330 C.2     1  UNL1        0.1660
     11  C          8.4680   -2.7440   -1.9900 C.2     1  UNL1        0.1650
     12  O          8.6180   -3.7670   -0.0190 O.2     1  UNL1       -0.4540
     13  O          8.8620   -4.0580   -2.1840 O.2     1  UNL1       -0.4540
     14  C          9.0570   -4.7170   -0.9560 C.3     1  UNL1        0.4680
@<TRIPOS>BOND
     1     9     7    1
     2     9    11    2
     3     7     6    2
     4    13    11    1
     5    13    14    1
     6    11    10    1
     7     6     5    1
     8     6     8    1
     9    14    12    1
    10    10     8    2
    11    10    12    1
    12     5     1    1
    13     1     2    1
    14     2     4    2
    15     2     3    1
