@<TRIPOS>MOLECULE
/home/cewinharhar/GITHUB/reincatalyze/data/processed/docking_pred/2023-May-30-2130_sub9_nm5_bs15_s42_ex16_mel10_mts10000_k50_ec05_g099_lra3e-4_lrc3e-3/93701e902e11c8f56728ec46c4b188a0e05b9a15_ligand_9.pdbqt
 14 15 0 0 0
SMALL
GASTEIGER

@<TRIPOS>ATOM
      1  C          5.5330    1.9260    1.2560 C.3     1  UNL1        0.0800
      2  C          5.1060    0.7110    2.0050 C.2     1  UNL1        0.1300
      3  C          6.0120   -0.4560    2.1810 C.3     1  UNL1        0.0870
      4  O          3.9930    0.6370    2.4980 O.2     1  UNL1       -0.3000
      5  C          5.3970    1.7260   -0.2400 C.3     1  UNL1        0.0430
      6  C          6.5650    1.0280   -0.8070 C.2     1  UNL1       -0.0440
      7  C          7.8710    1.4670   -0.5610 C.2     1  UNL1        0.0080
      8  C          6.3790   -0.0840   -1.5950 C.2     1  UNL1        0.0540
      9  C          8.9290    0.7710   -1.1180 C.2     1  UNL1        0.0510
     10  C          7.4510   -0.7850   -2.1560 C.2     1  UNL1        0.1660
     11  C          8.7370   -0.3530   -1.9160 C.2     1  UNL1        0.1650
     12  O          7.5260   -1.9000   -2.9620 O.2     1  UNL1       -0.4540
     13  O          9.5830   -1.2230   -2.5860 O.2     1  UNL1       -0.4540
     14  C          8.8620   -2.2710   -3.1870 C.3     1  UNL1        0.4680
@<TRIPOS>BOND
     1    14    12    1
     2    14    13    1
     3    12    10    1
     4    13    11    1
     5    10    11    2
     6    10     8    1
     7    11     9    1
     8     8     6    2
     9     9     7    2
    10     6     7    1
    11     6     5    1
    12     5     1    1
    13     1     2    1
    14     2     3    1
    15     2     4    2
