@<TRIPOS>MOLECULE
/home/cewinharhar/GITHUB/reincatalyze/data/processed/docking_pred/2023-May-30-2130_sub9_nm5_bs15_s42_ex16_mel10_mts10000_k50_ec05_g099_lra3e-4_lrc3e-3/939bd1e5684a89eea32cbd4f4170b12915347732_ligand_9.pdbqt
 14 15 0 0 0
SMALL
GASTEIGER

@<TRIPOS>ATOM
      1  C          5.5420    0.0080    1.9410 C.3     1  UNL1        0.0800
      2  C          4.6550    1.1660    1.6410 C.2     1  UNL1        0.1300
      3  C          4.9530    2.1130    0.5340 C.3     1  UNL1        0.0870
      4  O          3.6500    1.3730    2.3030 O.2     1  UNL1       -0.3000
      5  C          6.9590    0.2620    1.4650 C.3     1  UNL1        0.0430
      6  C          7.3680   -0.7010    0.4270 C.2     1  UNL1       -0.0440
      7  C          7.2650   -0.4000   -0.9350 C.2     1  UNL1        0.0080
      8  C          7.8680   -1.9300    0.7960 C.2     1  UNL1        0.0540
      9  C          7.6650   -1.3430   -1.8640 C.2     1  UNL1        0.0510
     10  C          8.2720   -2.8800   -0.1470 C.2     1  UNL1        0.1660
     11  C          8.1690   -2.5840   -1.4880 C.2     1  UNL1        0.1650
     12  O          8.7920   -4.1520   -0.0350 O.2     1  UNL1       -0.4540
     13  O          8.6350   -3.6910   -2.1790 O.2     1  UNL1       -0.4540
     14  C          9.1240   -4.6730   -1.2970 C.3     1  UNL1        0.4680
@<TRIPOS>BOND
     1    13    11    1
     2    13    14    1
     3     9    11    2
     4     9     7    1
     5    11    10    1
     6    14    12    1
     7     7     6    2
     8    10    12    1
     9    10     8    2
    10     6     8    1
    11     6     5    1
    12     3     2    1
    13     5     1    1
    14     2     1    1
    15     2     4    2
