@<TRIPOS>MOLECULE
/home/cewinharhar/GITHUB/reincatalyze/data/processed/docking_pred/2023-May-30-2130_sub9_nm5_bs15_s42_ex16_mel10_mts10000_k50_ec05_g099_lra3e-4_lrc3e-3/939bd1e5684a89eea32cbd4f4170b12915347732_ligand_9.pdbqt
 14 15 0 0 0
SMALL
GASTEIGER

@<TRIPOS>ATOM
      1  C          5.3210   -0.0800    1.9450 C.3     1  UNL1        0.0800
      2  C          4.4410    1.1100    1.7790 C.2     1  UNL1        0.1300
      3  C          4.7200    2.1500    0.7530 C.3     1  UNL1        0.0870
      4  O          3.4580    1.2670    2.4860 O.2     1  UNL1       -0.3000
      5  C          6.7860    0.3070    1.8920 C.3     1  UNL1        0.0430
      6  C          7.3970   -0.0460    0.5990 C.2     1  UNL1       -0.0440
      7  C          7.9000    0.9340   -0.2650 C.2     1  UNL1        0.0080
      8  C          7.4830   -1.3670    0.2220 C.2     1  UNL1        0.0540
      9  C          8.4640    0.5440   -1.4660 C.2     1  UNL1        0.0510
     10  C          8.0550   -1.7560   -0.9930 C.2     1  UNL1        0.1660
     11  C          8.5490   -0.7920   -1.8450 C.2     1  UNL1        0.1650
     12  O          8.2540   -2.9840   -1.5870 O.2     1  UNL1       -0.4540
     13  O          9.0480   -1.4560   -2.9540 O.2     1  UNL1       -0.4540
     14  C          8.9640   -2.8520   -2.7920 C.3     1  UNL1        0.4680
@<TRIPOS>BOND
     1    13    14    1
     2    13    11    1
     3    14    12    1
     4    11     9    2
     5    11    10    1
     6    12    10    1
     7     9     7    1
     8    10     8    2
     9     7     6    2
    10     8     6    1
    11     6     5    1
    12     3     2    1
    13     2     1    1
    14     2     4    2
    15     5     1    1
