@<TRIPOS>MOLECULE
/home/cewinharhar/GITHUB/reincatalyze/data/processed/docking_pred/2023-May-30-2130_sub9_nm5_bs15_s42_ex16_mel10_mts10000_k50_ec05_g099_lra3e-4_lrc3e-3/939bd1e5684a89eea32cbd4f4170b12915347732_ligand_9.pdbqt
 14 15 0 0 0
SMALL
GASTEIGER

@<TRIPOS>ATOM
      1  C          5.5510    1.9180    1.2810 C.3     1  UNL1        0.0800
      2  C          5.1260    0.6960    2.0190 C.2     1  UNL1        0.1300
      3  C          6.0380   -0.4650    2.1990 C.3     1  UNL1        0.0870
      4  O          4.0070    0.6130    2.5000 O.2     1  UNL1       -0.3000
      5  C          5.4170    1.7310   -0.2180 C.3     1  UNL1        0.0430
      6  C          6.5810    1.0290   -0.7870 C.2     1  UNL1       -0.0440
      7  C          7.8900    1.4590   -0.5390 C.2     1  UNL1        0.0080
      8  C          6.3890   -0.0780   -1.5810 C.2     1  UNL1        0.0540
      9  C          8.9430    0.7600   -1.1000 C.2     1  UNL1        0.0510
     10  C          7.4570   -0.7820   -2.1450 C.2     1  UNL1        0.1660
     11  C          8.7450   -0.3590   -1.9030 C.2     1  UNL1        0.1650
     12  O          7.5260   -1.8940   -2.9570 O.2     1  UNL1       -0.4540
     13  O          9.5870   -1.2300   -2.5770 O.2     1  UNL1       -0.4540
     14  C          8.8600   -2.2710   -3.1840 C.3     1  UNL1        0.4680
@<TRIPOS>BOND
     1    14    12    1
     2    14    13    1
     3    12    10    1
     4    13    11    1
     5    10    11    2
     6    10     8    1
     7    11     9    1
     8     8     6    2
     9     9     7    2
    10     6     7    1
    11     6     5    1
    12     5     1    1
    13     1     2    1
    14     2     3    1
    15     2     4    2
