MODEL 1
REMARK VINA RESULT:      -7.7      0.000      0.000
REMARK SMILES CC(=O)CCc1ccc2c(c1)OCO2
REMARK SMILES IDX 4 1 2 2 1 3 3 4 5 5 6 6 7 7 11 8 8 9 10 10 9 11 12 12 14 13
REMARK SMILES IDX 13 14
REMARK H PARENT
REMARK Flexibility Score: inf
ROOT
ATOM      1  C   UNL     1       5.551   1.918   1.281  1.00  0.00     0.080 C 
ENDROOT
BRANCH   1   2
ATOM      2  C   UNL     1       5.126   0.696   2.019  1.00  0.00     0.130 C 
ATOM      3  C   UNL     1       6.038  -0.465   2.199  1.00  0.00     0.087 C 
ATOM      4  O   UNL     1       4.007   0.613   2.500  1.00  0.00    -0.300 OA
ENDBRANCH   1   2
BRANCH   1   5
ATOM      5  C   UNL     1       5.417   1.731  -0.218  1.00  0.00     0.043 C 
BRANCH   5   6
ATOM      6  C   UNL     1       6.581   1.029  -0.787  1.00  0.00    -0.044 A 
ATOM      7  C   UNL     1       7.890   1.459  -0.539  1.00  0.00     0.008 A 
ATOM      8  C   UNL     1       6.389  -0.078  -1.581  1.00  0.00     0.054 A 
ATOM      9  C   UNL     1       8.943   0.760  -1.100  1.00  0.00     0.051 A 
ATOM     10  C   UNL     1       7.457  -0.782  -2.145  1.00  0.00     0.166 A 
ATOM     11  C   UNL     1       8.745  -0.359  -1.903  1.00  0.00     0.165 A 
ATOM     12  O   UNL     1       7.526  -1.894  -2.957  1.00  0.00    -0.454 OA
ATOM     13  O   UNL     1       9.587  -1.230  -2.577  1.00  0.00    -0.454 OA
ATOM     14  C   UNL     1       8.860  -2.271  -3.184  1.00  0.00     0.468 C 
ENDBRANCH   5   6
ENDBRANCH   1   5
TORSDOF 3
ENDMDL
MODEL 2
REMARK VINA RESULT:      -7.5      1.933      2.387
REMARK SMILES CC(=O)CCc1ccc2c(c1)OCO2
REMARK SMILES IDX 4 1 2 2 1 3 3 4 5 5 6 6 7 7 11 8 8 9 10 10 9 11 12 12 14 13
REMARK SMILES IDX 13 14
REMARK H PARENT
REMARK Flexibility Score: inf
ROOT
ATOM      1  C   UNL     1       5.726   1.357  -0.307  1.00  0.00     0.080 C 
ENDROOT
BRANCH   1   2
ATOM      2  C   UNL     1       5.097   1.277   1.041  1.00  0.00     0.130 C 
ATOM      3  C   UNL     1       5.372   0.144   1.965  1.00  0.00     0.087 C 
ATOM      4  O   UNL     1       4.331   2.145   1.427  1.00  0.00    -0.300 OA
ENDBRANCH   1   2
BRANCH   1   5
ATOM      5  C   UNL     1       7.220   1.114  -0.232  1.00  0.00     0.043 C 
BRANCH   5   6
ATOM      6  C   UNL     1       7.596  -0.175  -0.841  1.00  0.00    -0.044 A 
ATOM      7  C   UNL     1       7.665  -0.337  -2.229  1.00  0.00     0.008 A 
ATOM      8  C   UNL     1       7.890  -1.250  -0.034  1.00  0.00     0.054 A 
ATOM      9  C   UNL     1       8.023  -1.570  -2.743  1.00  0.00     0.051 A 
ATOM     10  C   UNL     1       8.253  -2.494  -0.559  1.00  0.00     0.166 A 
ATOM     11  C   UNL     1       8.320  -2.655  -1.925  1.00  0.00     0.165 A 
ATOM     12  O   UNL     1       8.587  -3.699   0.024  1.00  0.00    -0.454 OA
ATOM     13  O   UNL     1       8.698  -3.969  -2.155  1.00  0.00    -0.454 OA
ATOM     14  C   UNL     1       8.966  -4.640  -0.947  1.00  0.00     0.468 C 
ENDBRANCH   5   6
ENDBRANCH   1   5
TORSDOF 3
ENDMDL
MODEL 3
REMARK VINA RESULT:      -7.2      2.089      2.627
REMARK SMILES CC(=O)CCc1ccc2c(c1)OCO2
REMARK SMILES IDX 4 1 2 2 1 3 3 4 5 5 6 6 7 7 11 8 8 9 10 10 9 11 12 12 14 13
REMARK SMILES IDX 13 14
REMARK H PARENT
REMARK Flexibility Score: inf
ROOT
ATOM      1  C   UNL     1       5.542   0.008   1.941  1.00  0.00     0.080 C 
ENDROOT
BRANCH   1   2
ATOM      2  C   UNL     1       4.655   1.166   1.641  1.00  0.00     0.130 C 
ATOM      3  C   UNL     1       4.953   2.113   0.534  1.00  0.00     0.087 C 
ATOM      4  O   UNL     1       3.650   1.373   2.303  1.00  0.00    -0.300 OA
ENDBRANCH   1   2
BRANCH   1   5
ATOM      5  C   UNL     1       6.959   0.262   1.465  1.00  0.00     0.043 C 
BRANCH   5   6
ATOM      6  C   UNL     1       7.368  -0.701   0.427  1.00  0.00    -0.044 A 
ATOM      7  C   UNL     1       7.265  -0.400  -0.935  1.00  0.00     0.008 A 
ATOM      8  C   UNL     1       7.868  -1.930   0.796  1.00  0.00     0.054 A 
ATOM      9  C   UNL     1       7.665  -1.343  -1.864  1.00  0.00     0.051 A 
ATOM     10  C   UNL     1       8.272  -2.880  -0.147  1.00  0.00     0.166 A 
ATOM     11  C   UNL     1       8.169  -2.584  -1.488  1.00  0.00     0.165 A 
ATOM     12  O   UNL     1       8.792  -4.152  -0.035  1.00  0.00    -0.454 OA
ATOM     13  O   UNL     1       8.635  -3.691  -2.179  1.00  0.00    -0.454 OA
ATOM     14  C   UNL     1       9.124  -4.673  -1.297  1.00  0.00     0.468 C 
ENDBRANCH   5   6
ENDBRANCH   1   5
TORSDOF 3
ENDMDL
MODEL 4
REMARK VINA RESULT:      -7.1      1.246      1.461
REMARK SMILES CC(=O)CCc1ccc2c(c1)OCO2
REMARK SMILES IDX 4 1 2 2 1 3 3 4 5 5 6 6 7 7 11 8 8 9 10 10 9 11 12 12 14 13
REMARK SMILES IDX 13 14
REMARK H PARENT
REMARK Flexibility Score: inf
ROOT
ATOM      1  C   UNL     1       6.373   1.200   0.914  1.00  0.00     0.080 C 
ENDROOT
BRANCH   1   2
ATOM      2  C   UNL     1       5.656   0.379   1.929  1.00  0.00     0.130 C 
ATOM      3  C   UNL     1       6.261  -0.850   2.509  1.00  0.00     0.087 C 
ATOM      4  O   UNL     1       4.543   0.694   2.317  1.00  0.00    -0.300 OA
ENDBRANCH   1   2
BRANCH   1   5
ATOM      5  C   UNL     1       5.866   0.911  -0.485  1.00  0.00     0.043 C 
BRANCH   5   6
ATOM      6  C   UNL     1       6.820   0.093  -1.254  1.00  0.00    -0.044 A 
ATOM      7  C   UNL     1       7.518   0.616  -2.349  1.00  0.00     0.008 A 
ATOM      8  C   UNL     1       7.041  -1.217  -0.895  1.00  0.00     0.054 A 
ATOM      9  C   UNL     1       8.402  -0.199  -3.033  1.00  0.00     0.051 A 
ATOM     10  C   UNL     1       7.936  -2.037  -1.589  1.00  0.00     0.166 A 
ATOM     11  C   UNL     1       8.621  -1.524  -2.667  1.00  0.00     0.165 A 
ATOM     12  O   UNL     1       8.323  -3.351  -1.431  1.00  0.00    -0.454 OA
ATOM     13  O   UNL     1       9.424  -2.543  -3.154  1.00  0.00    -0.454 OA
ATOM     14  C   UNL     1       9.334  -3.692  -2.344  1.00  0.00     0.468 C 
ENDBRANCH   5   6
ENDBRANCH   1   5
TORSDOF 3
ENDMDL
MODEL 5
REMARK VINA RESULT:      -6.8      1.260      1.752
REMARK SMILES CC(=O)CCc1ccc2c(c1)OCO2
REMARK SMILES IDX 4 1 2 2 1 3 3 4 5 5 6 6 7 7 11 8 8 9 10 10 9 11 12 12 14 13
REMARK SMILES IDX 13 14
REMARK H PARENT
REMARK Flexibility Score: inf
ROOT
ATOM      1  C   UNL     1       5.321  -0.080   1.945  1.00  0.00     0.080 C 
ENDROOT
BRANCH   1   2
ATOM      2  C   UNL     1       4.441   1.110   1.779  1.00  0.00     0.130 C 
ATOM      3  C   UNL     1       4.720   2.150   0.753  1.00  0.00     0.087 C 
ATOM      4  O   UNL     1       3.458   1.267   2.486  1.00  0.00    -0.300 OA
ENDBRANCH   1   2
BRANCH   1   5
ATOM      5  C   UNL     1       6.786   0.307   1.892  1.00  0.00     0.043 C 
BRANCH   5   6
ATOM      6  C   UNL     1       7.397  -0.046   0.599  1.00  0.00    -0.044 A 
ATOM      7  C   UNL     1       7.900   0.934  -0.265  1.00  0.00     0.008 A 
ATOM      8  C   UNL     1       7.483  -1.367   0.222  1.00  0.00     0.054 A 
ATOM      9  C   UNL     1       8.464   0.544  -1.466  1.00  0.00     0.051 A 
ATOM     10  C   UNL     1       8.055  -1.756  -0.993  1.00  0.00     0.166 A 
ATOM     11  C   UNL     1       8.549  -0.792  -1.845  1.00  0.00     0.165 A 
ATOM     12  O   UNL     1       8.254  -2.984  -1.587  1.00  0.00    -0.454 OA
ATOM     13  O   UNL     1       9.048  -1.456  -2.954  1.00  0.00    -0.454 OA
ATOM     14  C   UNL     1       8.964  -2.852  -2.792  1.00  0.00     0.468 C 
ENDBRANCH   5   6
ENDBRANCH   1   5
TORSDOF 3
ENDMDL
