@<TRIPOS>MOLECULE
/home/cewinharhar/GITHUB/reincatalyze/data/processed/docking_pred/2023-May-30-2130_sub9_nm5_bs15_s42_ex16_mel10_mts10000_k50_ec05_g099_lra3e-4_lrc3e-3/939bd1e5684a89eea32cbd4f4170b12915347732_ligand_9.pdbqt
 14 15 0 0 0
SMALL
GASTEIGER

@<TRIPOS>ATOM
      1  C          5.7260    1.3570   -0.3070 C.3     1  UNL1        0.0800
      2  C          5.0970    1.2770    1.0410 C.2     1  UNL1        0.1300
      3  C          5.3720    0.1440    1.9650 C.3     1  UNL1        0.0870
      4  O          4.3310    2.1450    1.4270 O.2     1  UNL1       -0.3000
      5  C          7.2200    1.1140   -0.2320 C.3     1  UNL1        0.0430
      6  C          7.5960   -0.1750   -0.8410 C.2     1  UNL1       -0.0440
      7  C          7.6650   -0.3370   -2.2290 C.2     1  UNL1        0.0080
      8  C          7.8900   -1.2500   -0.0340 C.2     1  UNL1        0.0540
      9  C          8.0230   -1.5700   -2.7430 C.2     1  UNL1        0.0510
     10  C          8.2530   -2.4940   -0.5590 C.2     1  UNL1        0.1660
     11  C          8.3200   -2.6550   -1.9250 C.2     1  UNL1        0.1650
     12  O          8.5870   -3.6990    0.0240 O.2     1  UNL1       -0.4540
     13  O          8.6980   -3.9690   -2.1550 O.2     1  UNL1       -0.4540
     14  C          8.9660   -4.6400   -0.9470 C.3     1  UNL1        0.4680
@<TRIPOS>BOND
     1     9     7    1
     2     9    11    2
     3     7     6    2
     4    13    11    1
     5    13    14    1
     6    11    10    1
     7    14    12    1
     8     6     5    1
     9     6     8    1
    10    10     8    2
    11    10    12    1
    12     1     5    1
    13     1     2    1
    14     2     4    2
    15     2     3    1
