@<TRIPOS>MOLECULE
/home/cewinharhar/GITHUB/reincatalyze/data/processed/docking_pred/2023-May-30-2130_sub9_nm5_bs15_s42_ex16_mel10_mts10000_k50_ec05_g099_lra3e-4_lrc3e-3/93b19c8378935853b44d27bbf459025f9fc44a5e_ligand_9.pdbqt
 14 15 0 0 0
SMALL
GASTEIGER

@<TRIPOS>ATOM
      1  C          6.4090    1.2350    0.8580 C.3     1  UNL1        0.0800
      2  C          5.7150    0.4450    1.9130 C.2     1  UNL1        0.1300
      3  C          6.3410   -0.7550    2.5290 C.3     1  UNL1        0.0870
      4  O          4.6030    0.7620    2.3040 O.2     1  UNL1       -0.3000
      5  C          5.8850    0.8900   -0.5220 C.3     1  UNL1        0.0430
      6  C          6.8420    0.0620   -1.2780 C.2     1  UNL1       -0.0440
      7  C          7.5430    0.5710   -2.3770 C.2     1  UNL1        0.0080
      8  C          7.0600   -1.2440   -0.9020 C.2     1  UNL1        0.0540
      9  C          8.4290   -0.2530   -3.0480 C.2     1  UNL1        0.0510
     10  C          7.9570   -2.0730   -1.5830 C.2     1  UNL1        0.1660
     11  C          8.6470   -1.5730   -2.6650 C.2     1  UNL1        0.1650
     12  O          8.3430   -3.3850   -1.4080 O.2     1  UNL1       -0.4540
     13  O          9.4510   -2.5990   -3.1360 O.2     1  UNL1       -0.4540
     14  C          9.3570   -3.7370   -2.3130 C.3     1  UNL1        0.4680
@<TRIPOS>BOND
     1    13    11    1
     2    13    14    1
     3     9    11    2
     4     9     7    1
     5    11    10    1
     6     7     6    2
     7    14    12    1
     8    10    12    1
     9    10     8    2
    10     6     8    1
    11     6     5    1
    12     5     1    1
    13     1     2    1
    14     2     4    2
    15     2     3    1
