@<TRIPOS>MOLECULE
/home/cewinharhar/GITHUB/reincatalyze/data/processed/docking_pred/2023-May-30-2130_sub9_nm5_bs15_s42_ex16_mel10_mts10000_k50_ec05_g099_lra3e-4_lrc3e-3/93b19c8378935853b44d27bbf459025f9fc44a5e_ligand_9.pdbqt
 14 15 0 0 0
SMALL
GASTEIGER

@<TRIPOS>ATOM
      1  C          5.6510    1.3280   -0.2280 C.3     1  UNL1        0.0800
      2  C          5.0050    1.2120    1.1090 C.2     1  UNL1        0.1300
      3  C          5.2820    0.0630    2.0130 C.3     1  UNL1        0.0870
      4  O          4.2250    2.0630    1.5040 O.2     1  UNL1       -0.3000
      5  C          7.1470    1.0980   -0.1380 C.3     1  UNL1        0.0430
      6  C          7.5450   -0.1690   -0.7760 C.2     1  UNL1       -0.0440
      7  C          7.6330   -0.2940   -2.1680 C.2     1  UNL1        0.0080
      8  C          7.8410   -1.2630    0.0050 C.2     1  UNL1        0.0540
      9  C          8.0120   -1.5080   -2.7100 C.2     1  UNL1        0.0510
     10  C          8.2240   -2.4880   -0.5480 C.2     1  UNL1        0.1660
     11  C          8.3100   -2.6120   -1.9170 C.2     1  UNL1        0.1650
     12  O          8.5640   -3.7040    0.0070 O.2     1  UNL1       -0.4540
     13  O          8.7060   -3.9150   -2.1770 O.2     1  UNL1       -0.4540
     14  C          8.9660   -4.6150   -0.9840 C.3     1  UNL1        0.4680
@<TRIPOS>BOND
     1     9     7    1
     2     9    11    2
     3    13    11    1
     4    13    14    1
     5     7     6    2
     6    11    10    1
     7    14    12    1
     8     6     5    1
     9     6     8    1
    10    10     8    2
    11    10    12    1
    12     1     5    1
    13     1     2    1
    14     2     4    2
    15     2     3    1
