@<TRIPOS>MOLECULE
/home/cewinharhar/GITHUB/reincatalyze/data/processed/docking_pred/2023-May-30-2130_sub9_nm5_bs15_s42_ex16_mel10_mts10000_k50_ec05_g099_lra3e-4_lrc3e-3/93b19c8378935853b44d27bbf459025f9fc44a5e_ligand_9.pdbqt
 14 15 0 0 0
SMALL
GASTEIGER

@<TRIPOS>ATOM
      1  C          5.4890    1.9250    1.2690 C.3     1  UNL1        0.0800
      2  C          5.0010    0.7140    1.9850 C.2     1  UNL1        0.1300
      3  C          5.8410   -0.5070    2.1150 C.3     1  UNL1        0.0870
      4  O          3.8890    0.6880    2.4870 O.2     1  UNL1       -0.3000
      5  C          5.3810    1.7580   -0.2340 C.3     1  UNL1        0.0430
      6  C          6.5460    1.0460   -0.7890 C.2     1  UNL1       -0.0440
      7  C          7.8550    1.4620   -0.5220 C.2     1  UNL1        0.0080
      8  C          6.3530   -0.0580   -1.5890 C.2     1  UNL1        0.0540
      9  C          8.9090    0.7540   -1.0700 C.2     1  UNL1        0.0510
     10  C          7.4220   -0.7700   -2.1400 C.2     1  UNL1        0.1660
     11  C          8.7110   -0.3600   -1.8790 C.2     1  UNL1        0.1650
     12  O          7.4910   -1.8810   -2.9540 O.2     1  UNL1       -0.4540
     13  O          9.5530   -1.2380   -2.5430 O.2     1  UNL1       -0.4540
     14  C          8.8240   -2.2710   -3.1630 C.3     1  UNL1        0.4680
@<TRIPOS>BOND
     1    14    12    1
     2    14    13    1
     3    12    10    1
     4    13    11    1
     5    10    11    2
     6    10     8    1
     7    11     9    1
     8     8     6    2
     9     9     7    2
    10     6     7    1
    11     6     5    1
    12     5     1    1
    13     1     2    1
    14     2     3    1
    15     2     4    2
