@<TRIPOS>MOLECULE
/home/cewinharhar/GITHUB/reincatalyze/data/processed/docking_pred/2023-May-30-2130_sub9_nm5_bs15_s42_ex16_mel10_mts10000_k50_ec05_g099_lra3e-4_lrc3e-3/93c3770ef064b633c902e85f3368d9330fbaaeb8_ligand_9.pdbqt
 14 15 0 0 0
SMALL
GASTEIGER

@<TRIPOS>ATOM
      1  C          5.4610   -0.0220    1.9520 C.3     1  UNL1        0.0800
      2  C          4.6240    1.1730    1.6530 C.2     1  UNL1        0.1300
      3  C          4.9840    2.1280    0.5720 C.3     1  UNL1        0.0870
      4  O          3.6110    1.4040    2.2930 O.2     1  UNL1       -0.3000
      5  C          6.9040    0.2010    1.5430 C.3     1  UNL1        0.0430
      6  C          7.3250   -0.7410    0.4910 C.2     1  UNL1       -0.0440
      7  C          7.2130   -0.4200   -0.8670 C.2     1  UNL1        0.0080
      8  C          7.8460   -1.9660    0.8400 C.2     1  UNL1        0.0540
      9  C          7.6260   -1.3430   -1.8110 C.2     1  UNL1        0.0510
     10  C          8.2620   -2.8960   -0.1180 C.2     1  UNL1        0.1660
     11  C          8.1510   -2.5820   -1.4540 C.2     1  UNL1        0.1650
     12  O          8.8030   -4.1610   -0.0270 O.2     1  UNL1       -0.4540
     13  O          8.6320   -3.6710   -2.1630 O.2     1  UNL1       -0.4540
     14  C          9.1400   -4.6580   -1.2970 C.3     1  UNL1        0.4680
@<TRIPOS>BOND
     1    13    11    1
     2    13    14    1
     3     9    11    2
     4     9     7    1
     5    11    10    1
     6    14    12    1
     7     7     6    2
     8    10    12    1
     9    10     8    2
    10     6     8    1
    11     6     5    1
    12     3     2    1
    13     5     1    1
    14     2     1    1
    15     2     4    2
