MODEL 1
REMARK VINA RESULT:      -7.6      0.000      0.000
REMARK SMILES CC(=O)CCc1ccc2c(c1)OCO2
REMARK SMILES IDX 4 1 2 2 1 3 3 4 5 5 6 6 7 7 11 8 8 9 10 10 9 11 12 12 14 13
REMARK SMILES IDX 13 14
REMARK H PARENT
REMARK Flexibility Score: inf
ROOT
ATOM      1  C   UNL     1       5.546   1.925   1.274  1.00  0.00     0.080 C 
ENDROOT
BRANCH   1   2
ATOM      2  C   UNL     1       5.112   0.706   2.014  1.00  0.00     0.130 C 
ATOM      3  C   UNL     1       6.016  -0.460   2.196  1.00  0.00     0.087 C 
ATOM      4  O   UNL     1       3.993   0.631   2.494  1.00  0.00    -0.300 OA
ENDBRANCH   1   2
BRANCH   1   5
ATOM      5  C   UNL     1       5.415   1.735  -0.224  1.00  0.00     0.043 C 
BRANCH   5   6
ATOM      6  C   UNL     1       6.579   1.030  -0.790  1.00  0.00    -0.044 A 
ATOM      7  C   UNL     1       7.887   1.458  -0.540  1.00  0.00     0.008 A 
ATOM      8  C   UNL     1       6.385  -0.078  -1.583  1.00  0.00     0.054 A 
ATOM      9  C   UNL     1       8.941   0.756  -1.098  1.00  0.00     0.051 A 
ATOM     10  C   UNL     1       7.454  -0.785  -2.143  1.00  0.00     0.166 A 
ATOM     11  C   UNL     1       8.742  -0.364  -1.899  1.00  0.00     0.165 A 
ATOM     12  O   UNL     1       7.522  -1.899  -2.953  1.00  0.00    -0.454 OA
ATOM     13  O   UNL     1       9.583  -1.237  -2.570  1.00  0.00    -0.454 OA
ATOM     14  C   UNL     1       8.855  -2.279  -3.176  1.00  0.00     0.468 C 
ENDBRANCH   5   6
ENDBRANCH   1   5
TORSDOF 3
ENDMDL
MODEL 2
REMARK VINA RESULT:      -7.4      1.903      2.371
REMARK SMILES CC(=O)CCc1ccc2c(c1)OCO2
REMARK SMILES IDX 4 1 2 2 1 3 3 4 5 5 6 6 7 7 11 8 8 9 10 10 9 11 12 12 14 13
REMARK SMILES IDX 13 14
REMARK H PARENT
REMARK Flexibility Score: inf
ROOT
ATOM      1  C   UNL     1       5.784   1.414  -0.355  1.00  0.00     0.080 C 
ENDROOT
BRANCH   1   2
ATOM      2  C   UNL     1       5.176   1.329   1.003  1.00  0.00     0.130 C 
ATOM      3  C   UNL     1       5.544   0.249   1.957  1.00  0.00     0.087 C 
ATOM      4  O   UNL     1       4.352   2.150   1.372  1.00  0.00    -0.300 OA
ENDBRANCH   1   2
BRANCH   1   5
ATOM      5  C   UNL     1       7.279   1.168  -0.304  1.00  0.00     0.043 C 
BRANCH   5   6
ATOM      6  C   UNL     1       7.641  -0.129  -0.903  1.00  0.00    -0.044 A 
ATOM      7  C   UNL     1       7.701  -0.304  -2.291  1.00  0.00     0.008 A 
ATOM      8  C   UNL     1       7.930  -1.200  -0.089  1.00  0.00     0.054 A 
ATOM      9  C   UNL     1       8.047  -1.544  -2.796  1.00  0.00     0.051 A 
ATOM     10  C   UNL     1       8.280  -2.451  -0.605  1.00  0.00     0.166 A 
ATOM     11  C   UNL     1       8.338  -2.625  -1.969  1.00  0.00     0.165 A 
ATOM     12  O   UNL     1       8.607  -3.653  -0.014  1.00  0.00    -0.454 OA
ATOM     13  O   UNL     1       8.705  -3.943  -2.191  1.00  0.00    -0.454 OA
ATOM     14  C   UNL     1       8.973  -4.606  -0.978  1.00  0.00     0.468 C 
ENDBRANCH   5   6
ENDBRANCH   1   5
TORSDOF 3
ENDMDL
MODEL 3
REMARK VINA RESULT:      -7.2      2.082      2.641
REMARK SMILES CC(=O)CCc1ccc2c(c1)OCO2
REMARK SMILES IDX 4 1 2 2 1 3 3 4 5 5 6 6 7 7 11 8 8 9 10 10 9 11 12 12 14 13
REMARK SMILES IDX 13 14
REMARK H PARENT
REMARK Flexibility Score: inf
ROOT
ATOM      1  C   UNL     1       5.461  -0.022   1.952  1.00  0.00     0.080 C 
ENDROOT
BRANCH   1   2
ATOM      2  C   UNL     1       4.624   1.173   1.653  1.00  0.00     0.130 C 
ATOM      3  C   UNL     1       4.984   2.128   0.572  1.00  0.00     0.087 C 
ATOM      4  O   UNL     1       3.611   1.404   2.293  1.00  0.00    -0.300 OA
ENDBRANCH   1   2
BRANCH   1   5
ATOM      5  C   UNL     1       6.904   0.201   1.543  1.00  0.00     0.043 C 
BRANCH   5   6
ATOM      6  C   UNL     1       7.325  -0.741   0.491  1.00  0.00    -0.044 A 
ATOM      7  C   UNL     1       7.213  -0.420  -0.867  1.00  0.00     0.008 A 
ATOM      8  C   UNL     1       7.846  -1.966   0.840  1.00  0.00     0.054 A 
ATOM      9  C   UNL     1       7.626  -1.343  -1.811  1.00  0.00     0.051 A 
ATOM     10  C   UNL     1       8.262  -2.896  -0.118  1.00  0.00     0.166 A 
ATOM     11  C   UNL     1       8.151  -2.582  -1.454  1.00  0.00     0.165 A 
ATOM     12  O   UNL     1       8.803  -4.161  -0.027  1.00  0.00    -0.454 OA
ATOM     13  O   UNL     1       8.632  -3.671  -2.163  1.00  0.00    -0.454 OA
ATOM     14  C   UNL     1       9.140  -4.658  -1.297  1.00  0.00     0.468 C 
ENDBRANCH   5   6
ENDBRANCH   1   5
TORSDOF 3
ENDMDL
MODEL 4
REMARK VINA RESULT:      -7.1      1.266      1.482
REMARK SMILES CC(=O)CCc1ccc2c(c1)OCO2
REMARK SMILES IDX 4 1 2 2 1 3 3 4 5 5 6 6 7 7 11 8 8 9 10 10 9 11 12 12 14 13
REMARK SMILES IDX 13 14
REMARK H PARENT
REMARK Flexibility Score: inf
ROOT
ATOM      1  C   UNL     1       6.392   1.169   0.963  1.00  0.00     0.080 C 
ENDROOT
BRANCH   1   2
ATOM      2  C   UNL     1       5.645   0.343   1.952  1.00  0.00     0.130 C 
ATOM      3  C   UNL     1       6.234  -0.886   2.547  1.00  0.00     0.087 C 
ATOM      4  O   UNL     1       4.518   0.654   2.304  1.00  0.00    -0.300 OA
ENDBRANCH   1   2
BRANCH   1   5
ATOM      5  C   UNL     1       5.893   0.926  -0.447  1.00  0.00     0.043 C 
BRANCH   5   6
ATOM      6  C   UNL     1       6.830   0.093  -1.223  1.00  0.00    -0.044 A 
ATOM      7  C   UNL     1       7.494   0.592  -2.349  1.00  0.00     0.008 A 
ATOM      8  C   UNL     1       7.066  -1.207  -0.838  1.00  0.00     0.054 A 
ATOM      9  C   UNL     1       8.363  -0.235  -3.037  1.00  0.00     0.051 A 
ATOM     10  C   UNL     1       7.946  -2.039  -1.536  1.00  0.00     0.166 A 
ATOM     11  C   UNL     1       8.599  -1.549  -2.645  1.00  0.00     0.165 A 
ATOM     12  O   UNL     1       8.344  -3.347  -1.358  1.00  0.00    -0.454 OA
ATOM     13  O   UNL     1       9.394  -2.577  -3.129  1.00  0.00    -0.454 OA
ATOM     14  C   UNL     1       9.331  -3.706  -2.290  1.00  0.00     0.468 C 
ENDBRANCH   5   6
ENDBRANCH   1   5
TORSDOF 3
ENDMDL
MODEL 5
REMARK VINA RESULT:      -6.8      1.263      1.754
REMARK SMILES CC(=O)CCc1ccc2c(c1)OCO2
REMARK SMILES IDX 4 1 2 2 1 3 3 4 5 5 6 6 7 7 11 8 8 9 10 10 9 11 12 12 14 13
REMARK SMILES IDX 13 14
REMARK H PARENT
REMARK Flexibility Score: inf
ROOT
ATOM      1  C   UNL     1       5.347  -0.063   1.980  1.00  0.00     0.080 C 
ENDROOT
BRANCH   1   2
ATOM      2  C   UNL     1       4.463   1.119   1.781  1.00  0.00     0.130 C 
ATOM      3  C   UNL     1       4.758   2.150   0.749  1.00  0.00     0.087 C 
ATOM      4  O   UNL     1       3.465   1.277   2.464  1.00  0.00    -0.300 OA
ENDBRANCH   1   2
BRANCH   1   5
ATOM      5  C   UNL     1       6.811   0.326   1.913  1.00  0.00     0.043 C 
BRANCH   5   6
ATOM      6  C   UNL     1       7.413  -0.032   0.617  1.00  0.00    -0.044 A 
ATOM      7  C   UNL     1       7.914   0.943  -0.254  1.00  0.00     0.008 A 
ATOM      8  C   UNL     1       7.493  -1.355   0.244  1.00  0.00     0.054 A 
ATOM      9  C   UNL     1       8.469   0.547  -1.457  1.00  0.00     0.051 A 
ATOM     10  C   UNL     1       8.056  -1.750  -0.973  1.00  0.00     0.166 A 
ATOM     11  C   UNL     1       8.547  -0.791  -1.831  1.00  0.00     0.165 A 
ATOM     12  O   UNL     1       8.248  -2.981  -1.564  1.00  0.00    -0.454 OA
ATOM     13  O   UNL     1       9.037  -1.460  -2.941  1.00  0.00    -0.454 OA
ATOM     14  C   UNL     1       8.950  -2.855  -2.774  1.00  0.00     0.468 C 
ENDBRANCH   5   6
ENDBRANCH   1   5
TORSDOF 3
ENDMDL
