@<TRIPOS>MOLECULE
/home/cewinharhar/GITHUB/reincatalyze/data/processed/docking_pred/2023-May-30-2130_sub9_nm5_bs15_s42_ex16_mel10_mts10000_k50_ec05_g099_lra3e-4_lrc3e-3/93c3770ef064b633c902e85f3368d9330fbaaeb8_ligand_9.pdbqt
 14 15 0 0 0
SMALL
GASTEIGER

@<TRIPOS>ATOM
      1  C          5.5460    1.9250    1.2740 C.3     1  UNL1        0.0800
      2  C          5.1120    0.7060    2.0140 C.2     1  UNL1        0.1300
      3  C          6.0160   -0.4600    2.1960 C.3     1  UNL1        0.0870
      4  O          3.9930    0.6310    2.4940 O.2     1  UNL1       -0.3000
      5  C          5.4150    1.7350   -0.2240 C.3     1  UNL1        0.0430
      6  C          6.5790    1.0300   -0.7900 C.2     1  UNL1       -0.0440
      7  C          7.8870    1.4580   -0.5400 C.2     1  UNL1        0.0080
      8  C          6.3850   -0.0780   -1.5830 C.2     1  UNL1        0.0540
      9  C          8.9410    0.7560   -1.0980 C.2     1  UNL1        0.0510
     10  C          7.4540   -0.7850   -2.1430 C.2     1  UNL1        0.1660
     11  C          8.7420   -0.3640   -1.8990 C.2     1  UNL1        0.1650
     12  O          7.5220   -1.8990   -2.9530 O.2     1  UNL1       -0.4540
     13  O          9.5830   -1.2370   -2.5700 O.2     1  UNL1       -0.4540
     14  C          8.8550   -2.2790   -3.1760 C.3     1  UNL1        0.4680
@<TRIPOS>BOND
     1    14    12    1
     2    14    13    1
     3    12    10    1
     4    13    11    1
     5    10    11    2
     6    10     8    1
     7    11     9    1
     8     8     6    2
     9     9     7    2
    10     6     7    1
    11     6     5    1
    12     5     1    1
    13     1     2    1
    14     2     3    1
    15     2     4    2
