MODEL 1
REMARK VINA RESULT:      -7.6      0.000      0.000
REMARK SMILES CC(=O)CCc1ccc2c(c1)OCO2
REMARK SMILES IDX 4 1 2 2 1 3 3 4 5 5 6 6 7 7 11 8 8 9 10 10 9 11 12 12 14 13
REMARK SMILES IDX 13 14
REMARK H PARENT
REMARK Flexibility Score: inf
ROOT
ATOM      1  C   UNL     1       5.563   1.862   1.296  1.00  0.00     0.080 C 
ENDROOT
BRANCH   1   2
ATOM      2  C   UNL     1       5.106   0.644   2.022  1.00  0.00     0.130 C 
ATOM      3  C   UNL     1       5.988  -0.542   2.188  1.00  0.00     0.087 C 
ATOM      4  O   UNL     1       3.987   0.585   2.503  1.00  0.00    -0.300 OA
ENDBRANCH   1   2
BRANCH   1   5
ATOM      5  C   UNL     1       5.425   1.693  -0.204  1.00  0.00     0.043 C 
BRANCH   5   6
ATOM      6  C   UNL     1       6.585   0.994  -0.785  1.00  0.00    -0.044 A 
ATOM      7  C   UNL     1       7.894   1.438  -0.564  1.00  0.00     0.008 A 
ATOM      8  C   UNL     1       6.389  -0.124  -1.563  1.00  0.00     0.054 A 
ATOM      9  C   UNL     1       8.944   0.741  -1.134  1.00  0.00     0.051 A 
ATOM     10  C   UNL     1       7.453  -0.825  -2.136  1.00  0.00     0.166 A 
ATOM     11  C   UNL     1       8.742  -0.389  -1.920  1.00  0.00     0.165 A 
ATOM     12  O   UNL     1       7.518  -1.946  -2.936  1.00  0.00    -0.454 OA
ATOM     13  O   UNL     1       9.579  -1.261  -2.598  1.00  0.00    -0.454 OA
ATOM     14  C   UNL     1       8.851  -2.315  -3.181  1.00  0.00     0.468 C 
ENDBRANCH   5   6
ENDBRANCH   1   5
TORSDOF 3
ENDMDL
MODEL 2
REMARK VINA RESULT:      -7.5      1.912      2.354
REMARK SMILES CC(=O)CCc1ccc2c(c1)OCO2
REMARK SMILES IDX 4 1 2 2 1 3 3 4 5 5 6 6 7 7 11 8 8 9 10 10 9 11 12 12 14 13
REMARK SMILES IDX 13 14
REMARK H PARENT
REMARK Flexibility Score: inf
ROOT
ATOM      1  C   UNL     1       5.705   1.290  -0.288  1.00  0.00     0.080 C 
ENDROOT
BRANCH   1   2
ATOM      2  C   UNL     1       5.121   1.262   1.082  1.00  0.00     0.130 C 
ATOM      3  C   UNL     1       5.420   0.161   2.037  1.00  0.00     0.087 C 
ATOM      4  O   UNL     1       4.373   2.148   1.462  1.00  0.00    -0.300 OA
ENDBRANCH   1   2
BRANCH   1   5
ATOM      5  C   UNL     1       7.208   1.095  -0.249  1.00  0.00     0.043 C 
BRANCH   5   6
ATOM      6  C   UNL     1       7.610  -0.185  -0.857  1.00  0.00    -0.044 A 
ATOM      7  C   UNL     1       7.734  -0.331  -2.244  1.00  0.00     0.008 A 
ATOM      8  C   UNL     1       7.874  -1.270  -0.052  1.00  0.00     0.054 A 
ATOM      9  C   UNL     1       8.115  -1.557  -2.758  1.00  0.00     0.051 A 
ATOM     10  C   UNL     1       8.259  -2.507  -0.577  1.00  0.00     0.166 A 
ATOM     11  C   UNL     1       8.381  -2.652  -1.941  1.00  0.00     0.165 A 
ATOM     12  O   UNL     1       8.572  -3.718   0.004  1.00  0.00    -0.454 OA
ATOM     13  O   UNL     1       8.770  -3.962  -2.172  1.00  0.00    -0.454 OA
ATOM     14  C   UNL     1       8.991  -4.647  -0.962  1.00  0.00     0.468 C 
ENDBRANCH   5   6
ENDBRANCH   1   5
TORSDOF 3
ENDMDL
MODEL 3
REMARK VINA RESULT:      -7.2      2.040      2.616
REMARK SMILES CC(=O)CCc1ccc2c(c1)OCO2
REMARK SMILES IDX 4 1 2 2 1 3 3 4 5 5 6 6 7 7 11 8 8 9 10 10 9 11 12 12 14 13
REMARK SMILES IDX 13 14
REMARK H PARENT
REMARK Flexibility Score: inf
ROOT
ATOM      1  C   UNL     1       5.377  -0.101   2.005  1.00  0.00     0.080 C 
ENDROOT
BRANCH   1   2
ATOM      2  C   UNL     1       4.559   1.123   1.775  1.00  0.00     0.130 C 
ATOM      3  C   UNL     1       4.926   2.124   0.737  1.00  0.00     0.087 C 
ATOM      4  O   UNL     1       3.557   1.341   2.437  1.00  0.00    -0.300 OA
ENDBRANCH   1   2
BRANCH   1   5
ATOM      5  C   UNL     1       6.829   0.130   1.634  1.00  0.00     0.043 C 
BRANCH   5   6
ATOM      6  C   UNL     1       7.268  -0.775   0.557  1.00  0.00    -0.044 A 
ATOM      7  C   UNL     1       7.146  -0.423  -0.792  1.00  0.00     0.008 A 
ATOM      8  C   UNL     1       7.815  -1.998   0.874  1.00  0.00     0.054 A 
ATOM      9  C   UNL     1       7.576  -1.313  -1.759  1.00  0.00     0.051 A 
ATOM     10  C   UNL     1       8.249  -2.894  -0.108  1.00  0.00     0.166 A 
ATOM     11  C   UNL     1       8.128  -2.548  -1.435  1.00  0.00     0.165 A 
ATOM     12  O   UNL     1       8.816  -4.149  -0.050  1.00  0.00    -0.454 OA
ATOM     13  O   UNL     1       8.630  -3.609  -2.173  1.00  0.00    -0.454 OA
ATOM     14  C   UNL     1       9.160  -4.606  -1.332  1.00  0.00     0.468 C 
ENDBRANCH   5   6
ENDBRANCH   1   5
TORSDOF 3
ENDMDL
MODEL 4
REMARK VINA RESULT:      -7.1      1.971      2.490
REMARK SMILES CC(=O)CCc1ccc2c(c1)OCO2
REMARK SMILES IDX 4 1 2 2 1 3 3 4 5 5 6 6 7 7 11 8 8 9 10 10 9 11 12 12 14 13
REMARK SMILES IDX 13 14
REMARK H PARENT
REMARK Flexibility Score: inf
ROOT
ATOM      1  C   UNL     1       6.735   0.735   1.499  1.00  0.00     0.080 C 
ENDROOT
BRANCH   1   2
ATOM      2  C   UNL     1       5.308   1.162   1.503  1.00  0.00     0.130 C 
ATOM      3  C   UNL     1       4.785   2.144   0.517  1.00  0.00     0.087 C 
ATOM      4  O   UNL     1       4.523   0.716   2.323  1.00  0.00    -0.300 OA
ENDBRANCH   1   2
BRANCH   1   5
ATOM      5  C   UNL     1       7.387   1.003   0.157  1.00  0.00     0.043 C 
BRANCH   5   6
ATOM      6  C   UNL     1       7.703  -0.247  -0.557  1.00  0.00    -0.044 A 
ATOM      7  C   UNL     1       7.717  -0.309  -1.955  1.00  0.00     0.008 A 
ATOM      8  C   UNL     1       7.995  -1.386   0.159  1.00  0.00     0.054 A 
ATOM      9  C   UNL     1       8.022  -1.510  -2.570  1.00  0.00     0.051 A 
ATOM     10  C   UNL     1       8.303  -2.597  -0.467  1.00  0.00     0.166 A 
ATOM     11  C   UNL     1       8.316  -2.660  -1.843  1.00  0.00     0.165 A 
ATOM     12  O   UNL     1       8.622  -3.849   0.013  1.00  0.00    -0.454 OA
ATOM     13  O   UNL     1       8.648  -3.962  -2.182  1.00  0.00    -0.454 OA
ATOM     14  C   UNL     1       8.939  -4.727  -1.036  1.00  0.00     0.468 C 
ENDBRANCH   5   6
ENDBRANCH   1   5
TORSDOF 3
ENDMDL
MODEL 5
REMARK VINA RESULT:      -7.1      1.236      1.431
REMARK SMILES CC(=O)CCc1ccc2c(c1)OCO2
REMARK SMILES IDX 4 1 2 2 1 3 3 4 5 5 6 6 7 7 11 8 8 9 10 10 9 11 12 12 14 13
REMARK SMILES IDX 13 14
REMARK H PARENT
REMARK Flexibility Score: inf
ROOT
ATOM      1  C   UNL     1       6.392   1.214   0.932  1.00  0.00     0.080 C 
ENDROOT
BRANCH   1   2
ATOM      2  C   UNL     1       5.671   0.372   1.928  1.00  0.00     0.130 C 
ATOM      3  C   UNL     1       6.283  -0.857   2.500  1.00  0.00     0.087 C 
ATOM      4  O   UNL     1       4.549   0.670   2.305  1.00  0.00    -0.300 OA
ENDBRANCH   1   2
BRANCH   1   5
ATOM      5  C   UNL     1       5.889   0.955  -0.474  1.00  0.00     0.043 C 
BRANCH   5   6
ATOM      6  C   UNL     1       6.827   0.121  -1.245  1.00  0.00    -0.044 A 
ATOM      7  C   UNL     1       7.514   0.625  -2.356  1.00  0.00     0.008 A 
ATOM      8  C   UNL     1       7.043  -1.186  -0.872  1.00  0.00     0.054 A 
ATOM      9  C   UNL     1       8.383  -0.205  -3.041  1.00  0.00     0.051 A 
ATOM     10  C   UNL     1       7.924  -2.021  -1.567  1.00  0.00     0.166 A 
ATOM     11  C   UNL     1       8.599  -1.526  -2.661  1.00  0.00     0.165 A 
ATOM     12  O   UNL     1       8.304  -3.335  -1.398  1.00  0.00    -0.454 OA
ATOM     13  O   UNL     1       9.389  -2.557  -3.145  1.00  0.00    -0.454 OA
ATOM     14  C   UNL     1       9.301  -3.694  -2.320  1.00  0.00     0.468 C 
ENDBRANCH   5   6
ENDBRANCH   1   5
TORSDOF 3
ENDMDL
