@<TRIPOS>MOLECULE
/home/cewinharhar/GITHUB/reincatalyze/data/processed/docking_pred/2023-May-30-2130_sub9_nm5_bs15_s42_ex16_mel10_mts10000_k50_ec05_g099_lra3e-4_lrc3e-3/955e59fc22a1e87e2ab10a68f3a5c98643a236a4_ligand_9.pdbqt
 14 15 0 0 0
SMALL
GASTEIGER

@<TRIPOS>ATOM
      1  C          5.5440    1.9000    1.2860 C.3     1  UNL1        0.0800
      2  C          5.1180    0.6790    2.0250 C.2     1  UNL1        0.1300
      3  C          6.0250   -0.4880    2.1930 C.3     1  UNL1        0.0870
      4  O          4.0040    0.6000    2.5170 O.2     1  UNL1       -0.3000
      5  C          5.4080    1.7120   -0.2120 C.3     1  UNL1        0.0430
      6  C          6.5730    1.0150   -0.7830 C.2     1  UNL1       -0.0440
      7  C          7.8810    1.4500   -0.5380 C.2     1  UNL1        0.0080
      8  C          6.3840   -0.0940   -1.5770 C.2     1  UNL1        0.0540
      9  C          8.9360    0.7560   -1.1000 C.2     1  UNL1        0.0510
     10  C          7.4540   -0.7930   -2.1430 C.2     1  UNL1        0.1660
     11  C          8.7410   -0.3640   -1.9030 C.2     1  UNL1        0.1650
     12  O          7.5260   -1.9050   -2.9540 O.2     1  UNL1       -0.4540
     13  O          9.5850   -1.2320   -2.5780 O.2     1  UNL1       -0.4540
     14  C          8.8610   -2.2770   -3.1830 C.3     1  UNL1        0.4680
@<TRIPOS>BOND
     1    14    12    1
     2    14    13    1
     3    12    10    1
     4    13    11    1
     5    10    11    2
     6    10     8    1
     7    11     9    1
     8     8     6    2
     9     9     7    2
    10     6     7    1
    11     6     5    1
    12     5     1    1
    13     1     2    1
    14     2     3    1
    15     2     4    2
