@<TRIPOS>MOLECULE
/home/cewinharhar/GITHUB/reincatalyze/data/processed/docking_pred/2023-May-30-2130_sub9_nm5_bs15_s42_ex16_mel10_mts10000_k50_ec05_g099_lra3e-4_lrc3e-3/955e59fc22a1e87e2ab10a68f3a5c98643a236a4_ligand_9.pdbqt
 14 15 0 0 0
SMALL
GASTEIGER

@<TRIPOS>ATOM
      1  C          6.7800    0.4780    0.9740 C.3     1  UNL1        0.0800
      2  C          5.4440    0.9740    1.4060 C.2     1  UNL1        0.1300
      3  C          4.8010    2.1500    0.7600 C.3     1  UNL1        0.0870
      4  O          4.8340    0.4260    2.3100 O.2     1  UNL1       -0.3000
      5  C          6.9350    0.5540   -0.5320 C.3     1  UNL1        0.0430
      6  C          7.5410   -0.6710   -1.0820 C.2     1  UNL1       -0.0440
      7  C          7.8970   -0.7710   -2.4320 C.2     1  UNL1        0.0080
      8  C          7.7700   -1.7490   -0.2560 C.2     1  UNL1        0.0540
      9  C          8.4630   -1.9470   -2.8910 C.2     1  UNL1        0.0510
     10  C          8.3440   -2.9340   -0.7250 C.2     1  UNL1        0.1660
     11  C          8.6930   -3.0340   -2.0540 C.2     1  UNL1        0.1650
     12  O          8.6680   -4.1270   -0.1150 O.2     1  UNL1       -0.4540
     13  O          9.2300   -4.2990   -2.2330 O.2     1  UNL1       -0.4540
     14  C          9.3170   -4.9930   -1.0110 C.3     1  UNL1        0.4680
@<TRIPOS>BOND
     1     9     7    1
     2     9    11    2
     3     7     6    2
     4    13    11    1
     5    13    14    1
     6    11    10    1
     7     6     5    1
     8     6     8    1
     9    14    12    1
    10    10     8    2
    11    10    12    1
    12     5     1    1
    13     3     2    1
    14     1     2    1
    15     2     4    2
