MODEL 1
REMARK VINA RESULT:      -7.3      0.000      0.000
REMARK SMILES CC(=O)CCc1ccc2c(c1)OCO2
REMARK SMILES IDX 4 1 2 2 1 3 3 4 5 5 6 6 7 7 11 8 8 9 10 10 9 11 12 12 14 13
REMARK SMILES IDX 13 14
REMARK H PARENT
REMARK Flexibility Score: inf
ROOT
ATOM      1  C   UNL     1       5.791   1.265  -0.550  1.00  0.00     0.080 C 
ENDROOT
BRANCH   1   2
ATOM      2  C   UNL     1       5.370   1.387   0.873  1.00  0.00     0.130 C 
ATOM      3  C   UNL     1       6.017   0.591   1.950  1.00  0.00     0.087 C 
ATOM      4  O   UNL     1       4.474   2.150   1.199  1.00  0.00    -0.300 OA
ENDBRANCH   1   2
BRANCH   1   5
ATOM      5  C   UNL     1       7.296   1.125  -0.669  1.00  0.00     0.043 C 
BRANCH   5   6
ATOM      6  C   UNL     1       7.683  -0.206  -1.170  1.00  0.00    -0.044 A 
ATOM      7  C   UNL     1       7.825  -0.460  -2.539  1.00  0.00     0.008 A 
ATOM      8  C   UNL     1       7.916  -1.229  -0.280  1.00  0.00     0.054 A 
ATOM      9  C   UNL     1       8.191  -1.729  -2.951  1.00  0.00     0.051 A 
ATOM     10  C   UNL     1       8.288  -2.509  -0.702  1.00  0.00     0.166 A 
ATOM     11  C   UNL     1       8.426  -2.761  -2.049  1.00  0.00     0.165 A 
ATOM     12  O   UNL     1       8.570  -3.676  -0.025  1.00  0.00    -0.454 OA
ATOM     13  O   UNL     1       8.795  -4.091  -2.172  1.00  0.00    -0.454 OA
ATOM     14  C   UNL     1       8.987  -4.685  -0.909  1.00  0.00     0.468 C 
ENDBRANCH   5   6
ENDBRANCH   1   5
TORSDOF 3
ENDMDL
MODEL 2
REMARK VINA RESULT:      -7.3      1.841      2.382
REMARK SMILES CC(=O)CCc1ccc2c(c1)OCO2
REMARK SMILES IDX 4 1 2 2 1 3 3 4 5 5 6 6 7 7 11 8 8 9 10 10 9 11 12 12 14 13
REMARK SMILES IDX 13 14
REMARK H PARENT
REMARK Flexibility Score: inf
ROOT
ATOM      1  C   UNL     1       5.669   2.135   1.124  1.00  0.00     0.080 C 
ENDROOT
BRANCH   1   2
ATOM      2  C   UNL     1       5.442   0.938   1.981  1.00  0.00     0.130 C 
ATOM      3  C   UNL     1       6.553   0.020   2.350  1.00  0.00     0.087 C 
ATOM      4  O   UNL     1       4.330   0.674   2.407  1.00  0.00    -0.300 OA
ENDBRANCH   1   2
BRANCH   1   5
ATOM      5  C   UNL     1       5.476   1.807  -0.343  1.00  0.00     0.043 C 
BRANCH   5   6
ATOM      6  C   UNL     1       6.620   1.057  -0.891  1.00  0.00    -0.044 A 
ATOM      7  C   UNL     1       7.937   1.495  -0.712  1.00  0.00     0.008 A 
ATOM      8  C   UNL     1       6.399  -0.106  -1.594  1.00  0.00     0.054 A 
ATOM      9  C   UNL     1       8.971   0.749  -1.248  1.00  0.00     0.051 A 
ATOM     10  C   UNL     1       7.448  -0.857  -2.133  1.00  0.00     0.166 A 
ATOM     11  C   UNL     1       8.744  -0.425  -1.959  1.00  0.00     0.165 A 
ATOM     12  O   UNL     1       7.488  -2.027  -2.861  1.00  0.00    -0.454 OA
ATOM     13  O   UNL     1       9.562  -1.350  -2.589  1.00  0.00    -0.454 OA
ATOM     14  C   UNL     1       8.813  -2.429  -3.096  1.00  0.00     0.468 C 
ENDBRANCH   5   6
ENDBRANCH   1   5
TORSDOF 3
ENDMDL
MODEL 3
REMARK VINA RESULT:      -7.2      0.740      1.119
REMARK SMILES CC(=O)CCc1ccc2c(c1)OCO2
REMARK SMILES IDX 4 1 2 2 1 3 3 4 5 5 6 6 7 7 11 8 8 9 10 10 9 11 12 12 14 13
REMARK SMILES IDX 13 14
REMARK H PARENT
REMARK Flexibility Score: inf
ROOT
ATOM      1  C   UNL     1       6.460   0.615   1.494  1.00  0.00     0.080 C 
ENDROOT
BRANCH   1   2
ATOM      2  C   UNL     1       5.155   1.307   1.298  1.00  0.00     0.130 C 
ATOM      3  C   UNL     1       4.889   2.147   0.099  1.00  0.00     0.087 C 
ATOM      4  O   UNL     1       4.261   1.204   2.122  1.00  0.00    -0.300 OA
ENDBRANCH   1   2
BRANCH   1   5
ATOM      5  C   UNL     1       7.401   0.875   0.334  1.00  0.00     0.043 C 
BRANCH   5   6
ATOM      6  C   UNL     1       7.687  -0.356  -0.423  1.00  0.00    -0.044 A 
ATOM      7  C   UNL     1       7.610  -0.392  -1.820  1.00  0.00     0.008 A 
ATOM      8  C   UNL     1       8.043  -1.503   0.249  1.00  0.00     0.054 A 
ATOM      9  C   UNL     1       7.891  -1.575  -2.478  1.00  0.00     0.051 A 
ATOM     10  C   UNL     1       8.327  -2.697  -0.421  1.00  0.00     0.166 A 
ATOM     11  C   UNL     1       8.250  -2.734  -1.795  1.00  0.00     0.165 A 
ATOM     12  O   UNL     1       8.696  -3.953   0.013  1.00  0.00    -0.454 OA
ATOM     13  O   UNL     1       8.578  -4.024  -2.181  1.00  0.00    -0.454 OA
ATOM     14  C   UNL     1       8.956  -4.805  -1.073  1.00  0.00     0.468 C 
ENDBRANCH   5   6
ENDBRANCH   1   5
TORSDOF 3
ENDMDL
MODEL 4
REMARK VINA RESULT:      -6.9      1.151      1.426
REMARK SMILES CC(=O)CCc1ccc2c(c1)OCO2
REMARK SMILES IDX 4 1 2 2 1 3 3 4 5 5 6 6 7 7 11 8 8 9 10 10 9 11 12 12 14 13
REMARK SMILES IDX 13 14
REMARK H PARENT
REMARK Flexibility Score: inf
ROOT
ATOM      1  C   UNL     1       6.424   1.555   0.690  1.00  0.00     0.080 C 
ENDROOT
BRANCH   1   2
ATOM      2  C   UNL     1       5.967   0.736   1.848  1.00  0.00     0.130 C 
ATOM      3  C   UNL     1       6.868  -0.239   2.518  1.00  0.00     0.087 C 
ATOM      4  O   UNL     1       4.832   0.844   2.282  1.00  0.00    -0.300 OA
ENDBRANCH   1   2
BRANCH   1   5
ATOM      5  C   UNL     1       5.840   1.041  -0.611  1.00  0.00     0.043 C 
BRANCH   5   6
ATOM      6  C   UNL     1       6.794   0.185  -1.338  1.00  0.00    -0.044 A 
ATOM      7  C   UNL     1       7.509   0.659  -2.444  1.00  0.00     0.008 A 
ATOM      8  C   UNL     1       6.997  -1.113  -0.927  1.00  0.00     0.054 A 
ATOM      9  C   UNL     1       8.392  -0.190  -3.086  1.00  0.00     0.051 A 
ATOM     10  C   UNL     1       7.891  -1.967  -1.579  1.00  0.00     0.166 A 
ATOM     11  C   UNL     1       8.594  -1.502  -2.668  1.00  0.00     0.165 A 
ATOM     12  O   UNL     1       8.263  -3.277  -1.367  1.00  0.00    -0.454 OA
ATOM     13  O   UNL     1       9.392  -2.547  -3.106  1.00  0.00    -0.454 OA
ATOM     14  C   UNL     1       9.281  -3.663  -2.255  1.00  0.00     0.468 C 
ENDBRANCH   5   6
ENDBRANCH   1   5
TORSDOF 3
ENDMDL
MODEL 5
REMARK VINA RESULT:      -6.5      0.913      1.816
REMARK SMILES CC(=O)CCc1ccc2c(c1)OCO2
REMARK SMILES IDX 4 1 2 2 1 3 3 4 5 5 6 6 7 7 11 8 8 9 10 10 9 11 12 12 14 13
REMARK SMILES IDX 13 14
REMARK H PARENT
REMARK Flexibility Score: inf
ROOT
ATOM      1  C   UNL     1       5.717   0.945  -0.653  1.00  0.00     0.080 C 
ENDROOT
BRANCH   1   2
ATOM      2  C   UNL     1       5.545   1.670   0.637  1.00  0.00     0.130 C 
ATOM      3  C   UNL     1       6.713   2.146   1.426  1.00  0.00     0.087 C 
ATOM      4  O   UNL     1       4.433   1.896   1.086  1.00  0.00    -0.300 OA
ENDBRANCH   1   2
BRANCH   1   5
ATOM      5  C   UNL     1       7.183   0.751  -0.985  1.00  0.00     0.043 C 
BRANCH   5   6
ATOM      6  C   UNL     1       7.639  -0.615  -0.669  1.00  0.00    -0.044 A 
ATOM      7  C   UNL     1       7.717  -1.074   0.651  1.00  0.00     0.008 A 
ATOM      8  C   UNL     1       7.996  -1.468  -1.688  1.00  0.00     0.054 A 
ATOM      9  C   UNL     1       8.151  -2.366   0.887  1.00  0.00     0.051 A 
ATOM     10  C   UNL     1       8.434  -2.773  -1.444  1.00  0.00     0.166 A 
ATOM     11  C   UNL     1       8.512  -3.226  -0.146  1.00  0.00     0.165 A 
ATOM     12  O   UNL     1       8.841  -3.798  -2.272  1.00  0.00    -0.454 OA
ATOM     13  O   UNL     1       8.969  -4.533  -0.204  1.00  0.00    -0.454 OA
ATOM     14  C   UNL     1       9.103  -4.966  -1.537  1.00  0.00     0.468 C 
ENDBRANCH   5   6
ENDBRANCH   1   5
TORSDOF 3
ENDMDL
