@<TRIPOS>MOLECULE
/home/cewinharhar/GITHUB/reincatalyze/data/processed/docking_pred/2023-May-30-2130_sub9_nm5_bs15_s42_ex16_mel10_mts10000_k50_ec05_g099_lra3e-4_lrc3e-3/96aa1335557473cc7235c71144735280de1f686e_ligand_9.pdbqt
 14 15 0 0 0
SMALL
GASTEIGER

@<TRIPOS>ATOM
      1  C          5.7910    1.2650   -0.5500 C.3     1  UNL1        0.0800
      2  C          5.3700    1.3870    0.8730 C.2     1  UNL1        0.1300
      3  C          6.0170    0.5910    1.9500 C.3     1  UNL1        0.0870
      4  O          4.4740    2.1500    1.1990 O.2     1  UNL1       -0.3000
      5  C          7.2960    1.1250   -0.6690 C.3     1  UNL1        0.0430
      6  C          7.6830   -0.2060   -1.1700 C.2     1  UNL1       -0.0440
      7  C          7.8250   -0.4600   -2.5390 C.2     1  UNL1        0.0080
      8  C          7.9160   -1.2290   -0.2800 C.2     1  UNL1        0.0540
      9  C          8.1910   -1.7290   -2.9510 C.2     1  UNL1        0.0510
     10  C          8.2880   -2.5090   -0.7020 C.2     1  UNL1        0.1660
     11  C          8.4260   -2.7610   -2.0490 C.2     1  UNL1        0.1650
     12  O          8.5700   -3.6760   -0.0250 O.2     1  UNL1       -0.4540
     13  O          8.7950   -4.0910   -2.1720 O.2     1  UNL1       -0.4540
     14  C          8.9870   -4.6850   -0.9090 C.3     1  UNL1        0.4680
@<TRIPOS>BOND
     1     9     7    1
     2     9    11    2
     3     7     6    2
     4    13    11    1
     5    13    14    1
     6    11    10    1
     7     6     5    1
     8     6     8    1
     9    14    12    1
    10    10     8    2
    11    10    12    1
    12     5     1    1
    13     1     2    1
    14     2     4    2
    15     2     3    1
