@<TRIPOS>MOLECULE
/home/cewinharhar/GITHUB/reincatalyze/data/processed/docking_pred/2023-May-30-2130_sub9_nm5_bs15_s42_ex16_mel10_mts10000_k50_ec05_g099_lra3e-4_lrc3e-3/96aa1335557473cc7235c71144735280de1f686e_ligand_9.pdbqt
 14 15 0 0 0
SMALL
GASTEIGER

@<TRIPOS>ATOM
      1  C          5.7170    0.9450   -0.6530 C.3     1  UNL1        0.0800
      2  C          5.5450    1.6700    0.6370 C.2     1  UNL1        0.1300
      3  C          6.7130    2.1460    1.4260 C.3     1  UNL1        0.0870
      4  O          4.4330    1.8960    1.0860 O.2     1  UNL1       -0.3000
      5  C          7.1830    0.7510   -0.9850 C.3     1  UNL1        0.0430
      6  C          7.6390   -0.6150   -0.6690 C.2     1  UNL1       -0.0440
      7  C          7.7170   -1.0740    0.6510 C.2     1  UNL1        0.0080
      8  C          7.9960   -1.4680   -1.6880 C.2     1  UNL1        0.0540
      9  C          8.1510   -2.3660    0.8870 C.2     1  UNL1        0.0510
     10  C          8.4340   -2.7730   -1.4440 C.2     1  UNL1        0.1660
     11  C          8.5120   -3.2260   -0.1460 C.2     1  UNL1        0.1650
     12  O          8.8410   -3.7980   -2.2720 O.2     1  UNL1       -0.4540
     13  O          8.9690   -4.5330   -0.2040 O.2     1  UNL1       -0.4540
     14  C          9.1030   -4.9660   -1.5370 C.3     1  UNL1        0.4680
@<TRIPOS>BOND
     1    12    14    1
     2    12    10    1
     3     8    10    1
     4     8     6    2
     5    14    13    1
     6    10    11    2
     7     5     6    1
     8     5     1    1
     9     6     7    1
    10     1     2    1
    11    13    11    1
    12    11     9    1
    13     2     4    2
    14     2     3    1
    15     7     9    2
