@<TRIPOS>MOLECULE
/home/cewinharhar/GITHUB/reincatalyze/data/processed/docking_pred/2023-May-30-2130_sub9_nm5_bs15_s42_ex16_mel10_mts10000_k50_ec05_g099_lra3e-4_lrc3e-3/96aa1335557473cc7235c71144735280de1f686e_ligand_9.pdbqt
 14 15 0 0 0
SMALL
GASTEIGER

@<TRIPOS>ATOM
      1  C          6.4240    1.5550    0.6900 C.3     1  UNL1        0.0800
      2  C          5.9670    0.7360    1.8480 C.2     1  UNL1        0.1300
      3  C          6.8680   -0.2390    2.5180 C.3     1  UNL1        0.0870
      4  O          4.8320    0.8440    2.2820 O.2     1  UNL1       -0.3000
      5  C          5.8400    1.0410   -0.6110 C.3     1  UNL1        0.0430
      6  C          6.7940    0.1850   -1.3380 C.2     1  UNL1       -0.0440
      7  C          7.5090    0.6590   -2.4440 C.2     1  UNL1        0.0080
      8  C          6.9970   -1.1130   -0.9270 C.2     1  UNL1        0.0540
      9  C          8.3920   -0.1900   -3.0860 C.2     1  UNL1        0.0510
     10  C          7.8910   -1.9670   -1.5790 C.2     1  UNL1        0.1660
     11  C          8.5940   -1.5020   -2.6680 C.2     1  UNL1        0.1650
     12  O          8.2630   -3.2770   -1.3670 O.2     1  UNL1       -0.4540
     13  O          9.3920   -2.5470   -3.1060 O.2     1  UNL1       -0.4540
     14  C          9.2810   -3.6630   -2.2550 C.3     1  UNL1        0.4680
@<TRIPOS>BOND
     1    13    11    1
     2    13    14    1
     3     9    11    2
     4     9     7    1
     5    11    10    1
     6     7     6    2
     7    14    12    1
     8    10    12    1
     9    10     8    2
    10     6     8    1
    11     6     5    1
    12     5     1    1
    13     1     2    1
    14     2     4    2
    15     2     3    1
