@<TRIPOS>MOLECULE
/home/cewinharhar/GITHUB/reincatalyze/data/processed/docking_pred/2023-May-30-2130_sub9_nm5_bs15_s42_ex16_mel10_mts10000_k50_ec05_g099_lra3e-4_lrc3e-3/96aa1335557473cc7235c71144735280de1f686e_ligand_9.pdbqt
 14 15 0 0 0
SMALL
GASTEIGER

@<TRIPOS>ATOM
      1  C          5.6690    2.1350    1.1240 C.3     1  UNL1        0.0800
      2  C          5.4420    0.9380    1.9810 C.2     1  UNL1        0.1300
      3  C          6.5530    0.0200    2.3500 C.3     1  UNL1        0.0870
      4  O          4.3300    0.6740    2.4070 O.2     1  UNL1       -0.3000
      5  C          5.4760    1.8070   -0.3430 C.3     1  UNL1        0.0430
      6  C          6.6200    1.0570   -0.8910 C.2     1  UNL1       -0.0440
      7  C          7.9370    1.4950   -0.7120 C.2     1  UNL1        0.0080
      8  C          6.3990   -0.1060   -1.5940 C.2     1  UNL1        0.0540
      9  C          8.9710    0.7490   -1.2480 C.2     1  UNL1        0.0510
     10  C          7.4480   -0.8570   -2.1330 C.2     1  UNL1        0.1660
     11  C          8.7440   -0.4250   -1.9590 C.2     1  UNL1        0.1650
     12  O          7.4880   -2.0270   -2.8610 O.2     1  UNL1       -0.4540
     13  O          9.5620   -1.3500   -2.5890 O.2     1  UNL1       -0.4540
     14  C          8.8130   -2.4290   -3.0960 C.3     1  UNL1        0.4680
@<TRIPOS>BOND
     1    14    12    1
     2    14    13    1
     3    12    10    1
     4    13    11    1
     5    10    11    2
     6    10     8    1
     7    11     9    1
     8     8     6    2
     9     9     7    2
    10     6     7    1
    11     6     5    1
    12     5     1    1
    13     1     2    1
    14     2     3    1
    15     2     4    2
