@<TRIPOS>MOLECULE
/home/cewinharhar/GITHUB/reincatalyze/data/processed/docking_pred/2023-May-30-2130_sub9_nm5_bs15_s42_ex16_mel10_mts10000_k50_ec05_g099_lra3e-4_lrc3e-3/96aa1335557473cc7235c71144735280de1f686e_ligand_9.pdbqt
 14 15 0 0 0
SMALL
GASTEIGER

@<TRIPOS>ATOM
      1  C          6.4600    0.6150    1.4940 C.3     1  UNL1        0.0800
      2  C          5.1550    1.3070    1.2980 C.2     1  UNL1        0.1300
      3  C          4.8890    2.1470    0.0990 C.3     1  UNL1        0.0870
      4  O          4.2610    1.2040    2.1220 O.2     1  UNL1       -0.3000
      5  C          7.4010    0.8750    0.3340 C.3     1  UNL1        0.0430
      6  C          7.6870   -0.3560   -0.4230 C.2     1  UNL1       -0.0440
      7  C          7.6100   -0.3920   -1.8200 C.2     1  UNL1        0.0080
      8  C          8.0430   -1.5030    0.2490 C.2     1  UNL1        0.0540
      9  C          7.8910   -1.5750   -2.4780 C.2     1  UNL1        0.0510
     10  C          8.3270   -2.6970   -0.4210 C.2     1  UNL1        0.1660
     11  C          8.2500   -2.7340   -1.7950 C.2     1  UNL1        0.1650
     12  O          8.6960   -3.9530    0.0130 O.2     1  UNL1       -0.4540
     13  O          8.5780   -4.0240   -2.1810 O.2     1  UNL1       -0.4540
     14  C          8.9560   -4.8050   -1.0730 C.3     1  UNL1        0.4680
@<TRIPOS>BOND
     1     9     7    1
     2     9    11    2
     3    13    11    1
     4    13    14    1
     5     7     6    2
     6    11    10    1
     7    14    12    1
     8     6     8    1
     9     6     5    1
    10    10    12    1
    11    10     8    2
    12     3     2    1
    13     5     1    1
    14     2     1    1
    15     2     4    2
