MODEL 1
REMARK VINA RESULT:      -7.7      0.000      0.000
REMARK SMILES CC(=O)CCc1ccc2c(c1)OCO2
REMARK SMILES IDX 4 1 2 2 1 3 3 4 5 5 6 6 7 7 11 8 8 9 10 10 9 11 12 12 14 13
REMARK SMILES IDX 13 14
REMARK H PARENT
REMARK Flexibility Score: inf
ROOT
ATOM      1  C   UNL     1       5.529   1.913   1.254  1.00  0.00     0.080 C 
ENDROOT
BRANCH   1   2
ATOM      2  C   UNL     1       5.079   0.706   2.002  1.00  0.00     0.130 C 
ATOM      3  C   UNL     1       5.961  -0.480   2.174  1.00  0.00     0.087 C 
ATOM      4  O   UNL     1       3.966   0.655   2.499  1.00  0.00    -0.300 OA
ENDBRANCH   1   2
BRANCH   1   5
ATOM      5  C   UNL     1       5.400   1.712  -0.243  1.00  0.00     0.043 C 
BRANCH   5   6
ATOM      6  C   UNL     1       6.571   1.013  -0.803  1.00  0.00    -0.044 A 
ATOM      7  C   UNL     1       7.876   1.452  -0.551  1.00  0.00     0.008 A 
ATOM      8  C   UNL     1       6.388  -0.099  -1.592  1.00  0.00     0.054 A 
ATOM      9  C   UNL     1       8.936   0.756  -1.103  1.00  0.00     0.051 A 
ATOM     10  C   UNL     1       7.463  -0.800  -2.147  1.00  0.00     0.166 A 
ATOM     11  C   UNL     1       8.747  -0.369  -1.901  1.00  0.00     0.165 A 
ATOM     12  O   UNL     1       7.542  -1.916  -2.952  1.00  0.00    -0.454 OA
ATOM     13  O   UNL     1       9.597  -1.239  -2.566  1.00  0.00    -0.454 OA
ATOM     14  C   UNL     1       8.879  -2.287  -3.171  1.00  0.00     0.468 C 
ENDBRANCH   5   6
ENDBRANCH   1   5
TORSDOF 3
ENDMDL
MODEL 2
REMARK VINA RESULT:      -7.4      1.948      2.417
REMARK SMILES CC(=O)CCc1ccc2c(c1)OCO2
REMARK SMILES IDX 4 1 2 2 1 3 3 4 5 5 6 6 7 7 11 8 8 9 10 10 9 11 12 12 14 13
REMARK SMILES IDX 13 14
REMARK H PARENT
REMARK Flexibility Score: inf
ROOT
ATOM      1  C   UNL     1       5.765   1.192  -0.314  1.00  0.00     0.080 C 
ENDROOT
BRANCH   1   2
ATOM      2  C   UNL     1       5.179   1.204   1.056  1.00  0.00     0.130 C 
ATOM      3  C   UNL     1       5.388   0.077   2.004  1.00  0.00     0.087 C 
ATOM      4  O   UNL     1       4.506   2.146   1.441  1.00  0.00    -0.300 OA
ENDBRANCH   1   2
BRANCH   1   5
ATOM      5  C   UNL     1       7.268   1.003  -0.268  1.00  0.00     0.043 C 
BRANCH   5   6
ATOM      6  C   UNL     1       7.678  -0.275  -0.876  1.00  0.00    -0.044 A 
ATOM      7  C   UNL     1       7.844  -0.408  -2.259  1.00  0.00     0.008 A 
ATOM      8  C   UNL     1       7.906  -1.370  -0.074  1.00  0.00     0.054 A 
ATOM      9  C   UNL     1       8.231  -1.633  -2.774  1.00  0.00     0.051 A 
ATOM     10  C   UNL     1       8.298  -2.605  -0.599  1.00  0.00     0.166 A 
ATOM     11  C   UNL     1       8.461  -2.738  -1.960  1.00  0.00     0.165 A 
ATOM     12  O   UNL     1       8.581  -3.825  -0.021  1.00  0.00    -0.454 OA
ATOM     13  O   UNL     1       8.846  -4.049  -2.192  1.00  0.00    -0.454 OA
ATOM     14  C   UNL     1       9.022  -4.748  -0.983  1.00  0.00     0.468 C 
ENDBRANCH   5   6
ENDBRANCH   1   5
TORSDOF 3
ENDMDL
MODEL 3
REMARK VINA RESULT:      -7.2      2.072      2.664
REMARK SMILES CC(=O)CCc1ccc2c(c1)OCO2
REMARK SMILES IDX 4 1 2 2 1 3 3 4 5 5 6 6 7 7 11 8 8 9 10 10 9 11 12 12 14 13
REMARK SMILES IDX 13 14
REMARK H PARENT
REMARK Flexibility Score: inf
ROOT
ATOM      1  C   UNL     1       5.358  -0.122   2.006  1.00  0.00     0.080 C 
ENDROOT
BRANCH   1   2
ATOM      2  C   UNL     1       4.548   1.106   1.774  1.00  0.00     0.130 C 
ATOM      3  C   UNL     1       4.901   2.084   0.710  1.00  0.00     0.087 C 
ATOM      4  O   UNL     1       3.564   1.346   2.455  1.00  0.00    -0.300 OA
ENDBRANCH   1   2
BRANCH   1   5
ATOM      5  C   UNL     1       6.813   0.101   1.643  1.00  0.00     0.043 C 
BRANCH   5   6
ATOM      6  C   UNL     1       7.255  -0.811   0.573  1.00  0.00    -0.044 A 
ATOM      7  C   UNL     1       7.120  -0.475  -0.779  1.00  0.00     0.008 A 
ATOM      8  C   UNL     1       7.819  -2.023   0.900  1.00  0.00     0.054 A 
ATOM      9  C   UNL     1       7.554  -1.371  -1.739  1.00  0.00     0.051 A 
ATOM     10  C   UNL     1       8.256  -2.925  -0.075  1.00  0.00     0.166 A 
ATOM     11  C   UNL     1       8.122  -2.596  -1.405  1.00  0.00     0.165 A 
ATOM     12  O   UNL     1       8.839  -4.173  -0.007  1.00  0.00    -0.454 OA
ATOM     13  O   UNL     1       8.632  -3.659  -2.134  1.00  0.00    -0.454 OA
ATOM     14  C   UNL     1       9.180  -4.641  -1.286  1.00  0.00     0.468 C 
ENDBRANCH   5   6
ENDBRANCH   1   5
TORSDOF 3
ENDMDL
MODEL 4
REMARK VINA RESULT:      -7.1      1.235      1.420
REMARK SMILES CC(=O)CCc1ccc2c(c1)OCO2
REMARK SMILES IDX 4 1 2 2 1 3 3 4 5 5 6 6 7 7 11 8 8 9 10 10 9 11 12 12 14 13
REMARK SMILES IDX 13 14
REMARK H PARENT
REMARK Flexibility Score: inf
ROOT
ATOM      1  C   UNL     1       6.355   1.268   0.915  1.00  0.00     0.080 C 
ENDROOT
BRANCH   1   2
ATOM      2  C   UNL     1       5.684   0.402   1.924  1.00  0.00     0.130 C 
ATOM      3  C   UNL     1       6.360  -0.789   2.504  1.00  0.00     0.087 C 
ATOM      4  O   UNL     1       4.551   0.647   2.306  1.00  0.00    -0.300 OA
ENDBRANCH   1   2
BRANCH   1   5
ATOM      5  C   UNL     1       5.846   0.980  -0.484  1.00  0.00     0.043 C 
BRANCH   5   6
ATOM      6  C   UNL     1       6.796   0.155  -1.252  1.00  0.00    -0.044 A 
ATOM      7  C   UNL     1       7.497   0.672  -2.347  1.00  0.00     0.008 A 
ATOM      8  C   UNL     1       7.008  -1.156  -0.890  1.00  0.00     0.054 A 
ATOM      9  C   UNL     1       8.376  -0.149  -3.029  1.00  0.00     0.051 A 
ATOM     10  C   UNL     1       7.899  -1.981  -1.582  1.00  0.00     0.166 A 
ATOM     11  C   UNL     1       8.588  -1.474  -2.661  1.00  0.00     0.165 A 
ATOM     12  O   UNL     1       8.278  -3.297  -1.423  1.00  0.00    -0.454 OA
ATOM     13  O   UNL     1       9.385  -2.499  -3.146  1.00  0.00    -0.454 OA
ATOM     14  C   UNL     1       9.288  -3.645  -2.335  1.00  0.00     0.468 C 
ENDBRANCH   5   6
ENDBRANCH   1   5
TORSDOF 3
ENDMDL
MODEL 5
REMARK VINA RESULT:      -7.0      2.014      2.565
REMARK SMILES CC(=O)CCc1ccc2c(c1)OCO2
REMARK SMILES IDX 4 1 2 2 1 3 3 4 5 5 6 6 7 7 11 8 8 9 10 10 9 11 12 12 14 13
REMARK SMILES IDX 13 14
REMARK H PARENT
REMARK Flexibility Score: inf
ROOT
ATOM      1  C   UNL     1       6.813   0.673   1.504  1.00  0.00     0.080 C 
ENDROOT
BRANCH   1   2
ATOM      2  C   UNL     1       5.391   1.114   1.533  1.00  0.00     0.130 C 
ATOM      3  C   UNL     1       4.876   2.150   0.598  1.00  0.00     0.087 C 
ATOM      4  O   UNL     1       4.603   0.635   2.332  1.00  0.00    -0.300 OA
ENDBRANCH   1   2
BRANCH   1   5
ATOM      5  C   UNL     1       7.440   0.926   0.147  1.00  0.00     0.043 C 
BRANCH   5   6
ATOM      6  C   UNL     1       7.742  -0.332  -0.558  1.00  0.00    -0.044 A 
ATOM      7  C   UNL     1       7.731  -0.410  -1.956  1.00  0.00     0.008 A 
ATOM      8  C   UNL     1       8.047  -1.464   0.164  1.00  0.00     0.054 A 
ATOM      9  C   UNL     1       8.024  -1.618  -2.563  1.00  0.00     0.051 A 
ATOM     10  C   UNL     1       8.342  -2.682  -0.455  1.00  0.00     0.166 A 
ATOM     11  C   UNL     1       8.330  -2.760  -1.830  1.00  0.00     0.165 A 
ATOM     12  O   UNL     1       8.669  -3.929   0.034  1.00  0.00    -0.454 OA
ATOM     13  O   UNL     1       8.655  -4.066  -2.160  1.00  0.00    -0.454 OA
ATOM     14  C   UNL     1       8.967  -4.818  -1.012  1.00  0.00     0.468 C 
ENDBRANCH   5   6
ENDBRANCH   1   5
TORSDOF 3
ENDMDL
