@<TRIPOS>MOLECULE
/home/cewinharhar/GITHUB/reincatalyze/data/processed/docking_pred/2023-May-30-2130_sub9_nm5_bs15_s42_ex16_mel10_mts10000_k50_ec05_g099_lra3e-4_lrc3e-3/97a603521aa4ec025b6db977763cb198737ffc85_ligand_9.pdbqt
 14 15 0 0 0
SMALL
GASTEIGER

@<TRIPOS>ATOM
      1  C          6.3550    1.2680    0.9150 C.3     1  UNL1        0.0800
      2  C          5.6840    0.4020    1.9240 C.2     1  UNL1        0.1300
      3  C          6.3600   -0.7890    2.5040 C.3     1  UNL1        0.0870
      4  O          4.5510    0.6470    2.3060 O.2     1  UNL1       -0.3000
      5  C          5.8460    0.9800   -0.4840 C.3     1  UNL1        0.0430
      6  C          6.7960    0.1550   -1.2520 C.2     1  UNL1       -0.0440
      7  C          7.4970    0.6720   -2.3470 C.2     1  UNL1        0.0080
      8  C          7.0080   -1.1560   -0.8900 C.2     1  UNL1        0.0540
      9  C          8.3760   -0.1490   -3.0290 C.2     1  UNL1        0.0510
     10  C          7.8990   -1.9810   -1.5820 C.2     1  UNL1        0.1660
     11  C          8.5880   -1.4740   -2.6610 C.2     1  UNL1        0.1650
     12  O          8.2780   -3.2970   -1.4230 O.2     1  UNL1       -0.4540
     13  O          9.3850   -2.4990   -3.1460 O.2     1  UNL1       -0.4540
     14  C          9.2880   -3.6450   -2.3350 C.3     1  UNL1        0.4680
@<TRIPOS>BOND
     1    13    11    1
     2    13    14    1
     3     9    11    2
     4     9     7    1
     5    11    10    1
     6     7     6    2
     7    14    12    1
     8    10    12    1
     9    10     8    2
    10     6     8    1
    11     6     5    1
    12     5     1    1
    13     1     2    1
    14     2     4    2
    15     2     3    1
