@<TRIPOS>MOLECULE
/home/cewinharhar/GITHUB/reincatalyze/data/processed/docking_pred/2023-May-30-2130_sub9_nm5_bs15_s42_ex16_mel10_mts10000_k50_ec05_g099_lra3e-4_lrc3e-3/97a603521aa4ec025b6db977763cb198737ffc85_ligand_9.pdbqt
 14 15 0 0 0
SMALL
GASTEIGER

@<TRIPOS>ATOM
      1  C          5.5290    1.9130    1.2540 C.3     1  UNL1        0.0800
      2  C          5.0790    0.7060    2.0020 C.2     1  UNL1        0.1300
      3  C          5.9610   -0.4800    2.1740 C.3     1  UNL1        0.0870
      4  O          3.9660    0.6550    2.4990 O.2     1  UNL1       -0.3000
      5  C          5.4000    1.7120   -0.2430 C.3     1  UNL1        0.0430
      6  C          6.5710    1.0130   -0.8030 C.2     1  UNL1       -0.0440
      7  C          7.8760    1.4520   -0.5510 C.2     1  UNL1        0.0080
      8  C          6.3880   -0.0990   -1.5920 C.2     1  UNL1        0.0540
      9  C          8.9360    0.7560   -1.1030 C.2     1  UNL1        0.0510
     10  C          7.4630   -0.8000   -2.1470 C.2     1  UNL1        0.1660
     11  C          8.7470   -0.3690   -1.9010 C.2     1  UNL1        0.1650
     12  O          7.5420   -1.9160   -2.9520 O.2     1  UNL1       -0.4540
     13  O          9.5970   -1.2390   -2.5660 O.2     1  UNL1       -0.4540
     14  C          8.8790   -2.2870   -3.1710 C.3     1  UNL1        0.4680
@<TRIPOS>BOND
     1    14    12    1
     2    14    13    1
     3    12    10    1
     4    13    11    1
     5    10    11    2
     6    10     8    1
     7    11     9    1
     8     8     6    2
     9     9     7    2
    10     6     7    1
    11     6     5    1
    12     5     1    1
    13     1     2    1
    14     2     3    1
    15     2     4    2
