@<TRIPOS>MOLECULE
/home/cewinharhar/GITHUB/reincatalyze/data/processed/docking_pred/2023-May-30-2130_sub9_nm5_bs15_s42_ex16_mel10_mts10000_k50_ec05_g099_lra3e-4_lrc3e-3/97b80f67ae9ab19215981068b7c743dd8d1e9d0d_ligand_9.pdbqt
 14 15 0 0 0
SMALL
GASTEIGER

@<TRIPOS>ATOM
      1  C          5.3740   -0.0730    2.0410 C.3     1  UNL1        0.0800
      2  C          4.5450    1.1370    1.7780 C.2     1  UNL1        0.1300
      3  C          4.9100    2.1200    0.7230 C.3     1  UNL1        0.0870
      4  O          3.5350    1.3580    2.4280 O.2     1  UNL1       -0.3000
      5  C          6.8220    0.1590    1.6590 C.3     1  UNL1        0.0430
      6  C          7.2550   -0.7480    0.5820 C.2     1  UNL1       -0.0440
      7  C          7.1280   -0.3990   -0.7670 C.2     1  UNL1        0.0080
      8  C          7.8020   -1.9710    0.8990 C.2     1  UNL1        0.0540
      9  C          7.5530   -1.2910   -1.7350 C.2     1  UNL1        0.0510
     10  C          8.2310   -2.8690   -0.0830 C.2     1  UNL1        0.1660
     11  C          8.1050   -2.5260   -1.4110 C.2     1  UNL1        0.1650
     12  O          8.7970   -4.1250   -0.0250 O.2     1  UNL1       -0.4540
     13  O          8.6030   -3.5890   -2.1480 O.2     1  UNL1       -0.4540
     14  C          9.1350   -4.5850   -1.3080 C.3     1  UNL1        0.4680
@<TRIPOS>BOND
     1    13    11    1
     2    13    14    1
     3     9    11    2
     4     9     7    1
     5    11    10    1
     6    14    12    1
     7     7     6    2
     8    10    12    1
     9    10     8    2
    10     6     8    1
    11     6     5    1
    12     3     2    1
    13     5     1    1
    14     2     1    1
    15     2     4    2
