@<TRIPOS>MOLECULE
/home/cewinharhar/GITHUB/reincatalyze/data/processed/docking_pred/2023-May-30-2130_sub9_nm5_bs15_s42_ex16_mel10_mts10000_k50_ec05_g099_lra3e-4_lrc3e-3/a450f47ca4f24610d4ad642e19216dd37a68a7e2_ligand_9.pdbqt
 14 15 0 0 0
SMALL
GASTEIGER

@<TRIPOS>ATOM
      1  C          6.3440    1.2490    0.8760 C.3     1  UNL1        0.0800
      2  C          5.6770    0.4250    1.9220 C.2     1  UNL1        0.1300
      3  C          6.3140   -0.8000    2.4750 C.3     1  UNL1        0.0870
      4  O          4.5800    0.7340    2.3580 O.2     1  UNL1       -0.3000
      5  C          5.8280    0.9050   -0.5080 C.3     1  UNL1        0.0430
      6  C          6.7980    0.0970   -1.2680 C.2     1  UNL1       -0.0440
      7  C          7.5170    0.6340   -2.3420 C.2     1  UNL1        0.0080
      8  C          7.0120   -1.2170   -0.9210 C.2     1  UNL1        0.0540
      9  C          8.4150   -0.1710   -3.0190 C.2     1  UNL1        0.0510
     10  C          7.9220   -2.0270   -1.6070 C.2     1  UNL1        0.1660
     11  C          8.6280   -1.5000   -2.6650 C.2     1  UNL1        0.1650
     12  O          8.3070   -3.3430   -1.4580 O.2     1  UNL1       -0.4540
     13  O          9.4420   -2.5130   -3.1480 O.2     1  UNL1       -0.4540
     14  C          9.3370   -3.6710   -2.3550 C.3     1  UNL1        0.4680
@<TRIPOS>BOND
     1    13    11    1
     2    13    14    1
     3     9    11    2
     4     9     7    1
     5    11    10    1
     6    14    12    1
     7     7     6    2
     8    10    12    1
     9    10     8    2
    10     6     8    1
    11     6     5    1
    12     5     1    1
    13     1     2    1
    14     2     4    2
    15     2     3    1
