@<TRIPOS>MOLECULE
/home/cewinharhar/GITHUB/reincatalyze/data/processed/docking_pred/2023-May-30-2130_sub9_nm5_bs15_s42_ex16_mel10_mts10000_k50_ec05_g099_lra3e-4_lrc3e-3/a450f47ca4f24610d4ad642e19216dd37a68a7e2_ligand_9.pdbqt
 14 15 0 0 0
SMALL
GASTEIGER

@<TRIPOS>ATOM
      1  C          5.5440    1.9080    1.2800 C.3     1  UNL1        0.0800
      2  C          5.0980    0.6900    2.0120 C.2     1  UNL1        0.1300
      3  C          5.9890   -0.4890    2.1830 C.3     1  UNL1        0.0870
      4  O          3.9790    0.6240    2.4950 O.2     1  UNL1       -0.3000
      5  C          5.4120    1.7280   -0.2200 C.3     1  UNL1        0.0430
      6  C          6.5770    1.0270   -0.7900 C.2     1  UNL1       -0.0440
      7  C          7.8850    1.4640   -0.5500 C.2     1  UNL1        0.0080
      8  C          6.3850   -0.0850   -1.5780 C.2     1  UNL1        0.0540
      9  C          8.9390    0.7660   -1.1120 C.2     1  UNL1        0.0510
     10  C          7.4540   -0.7870   -2.1430 C.2     1  UNL1        0.1660
     11  C          8.7410   -0.3580   -1.9080 C.2     1  UNL1        0.1650
     12  O          7.5230   -1.9030   -2.9490 O.2     1  UNL1       -0.4540
     13  O          9.5830   -1.2290   -2.5810 O.2     1  UNL1       -0.4540
     14  C          8.8580   -2.2770   -3.1800 C.3     1  UNL1        0.4680
@<TRIPOS>BOND
     1    14    12    1
     2    14    13    1
     3    12    10    1
     4    13    11    1
     5    10    11    2
     6    10     8    1
     7    11     9    1
     8     8     6    2
     9     9     7    2
    10     6     7    1
    11     6     5    1
    12     5     1    1
    13     1     2    1
    14     2     3    1
    15     2     4    2
