@<TRIPOS>MOLECULE
/home/cewinharhar/GITHUB/reincatalyze/data/processed/docking_pred/2023-May-30-2130_sub9_nm5_bs15_s42_ex16_mel10_mts10000_k50_ec05_g099_lra3e-4_lrc3e-3/a450f47ca4f24610d4ad642e19216dd37a68a7e2_ligand_9.pdbqt
 14 15 0 0 0
SMALL
GASTEIGER

@<TRIPOS>ATOM
      1  C          5.7310    1.4850   -0.2380 C.3     1  UNL1        0.0800
      2  C          5.1010    1.2870    1.0970 C.2     1  UNL1        0.1300
      3  C          5.4640    0.1370    1.9680 C.3     1  UNL1        0.0870
      4  O          4.2640    2.0690    1.5170 O.2     1  UNL1       -0.3000
      5  C          7.2230    1.2210   -0.1880 C.3     1  UNL1        0.0430
      6  C          7.5730   -0.0580   -0.8320 C.2     1  UNL1       -0.0440
      7  C          7.5660   -0.2050   -2.2240 C.2     1  UNL1        0.0080
      8  C          7.9180   -1.1410   -0.0550 C.2     1  UNL1        0.0540
      9  C          7.9040   -1.4290   -2.7710 C.2     1  UNL1        0.0510
     10  C          8.2600   -2.3760   -0.6130 C.2     1  UNL1        0.1660
     11  C          8.2520   -2.5210   -1.9830 C.2     1  UNL1        0.1650
     12  O          8.6330   -3.5840   -0.0640 O.2     1  UNL1       -0.4540
     13  O          8.6260   -3.8290   -2.2490 O.2     1  UNL1       -0.4540
     14  C          8.9650   -4.5120   -1.0660 C.3     1  UNL1        0.4680
@<TRIPOS>BOND
     1     9     7    1
     2     9    11    2
     3    13    11    1
     4    13    14    1
     5     7     6    2
     6    11    10    1
     7    14    12    1
     8     6     5    1
     9     6     8    1
    10    10    12    1
    11    10     8    2
    12     1     5    1
    13     1     2    1
    14     2     4    2
    15     2     3    1
