@<TRIPOS>MOLECULE
/home/cewinharhar/GITHUB/reincatalyze/data/processed/docking_pred/2023-May-30-2130_sub9_nm5_bs15_s42_ex16_mel10_mts10000_k50_ec05_g099_lra3e-4_lrc3e-3/a450f47ca4f24610d4ad642e19216dd37a68a7e2_ligand_9.pdbqt
 14 15 0 0 0
SMALL
GASTEIGER

@<TRIPOS>ATOM
      1  C          5.5500    0.0300    1.9690 C.3     1  UNL1        0.0800
      2  C          4.6540    1.1750    1.6450 C.2     1  UNL1        0.1300
      3  C          4.9580    2.1140    0.5320 C.3     1  UNL1        0.0870
      4  O          3.6360    1.3760    2.2880 O.2     1  UNL1       -0.3000
      5  C          6.9640    0.2840    1.4860 C.3     1  UNL1        0.0430
      6  C          7.3660   -0.6790    0.4450 C.2     1  UNL1       -0.0440
      7  C          7.2530   -0.3770   -0.9170 C.2     1  UNL1        0.0080
      8  C          7.8690   -1.9070    0.8100 C.2     1  UNL1        0.0540
      9  C          7.6470   -1.3200   -1.8490 C.2     1  UNL1        0.0510
     10  C          8.2670   -2.8570   -0.1360 C.2     1  UNL1        0.1660
     11  C          8.1550   -2.5610   -1.4760 C.2     1  UNL1        0.1650
     12  O          8.7890   -4.1290   -0.0290 O.2     1  UNL1       -0.4540
     13  O          8.6160   -3.6670   -2.1720 O.2     1  UNL1       -0.4540
     14  C          9.1120   -4.6490   -1.2930 C.3     1  UNL1        0.4680
@<TRIPOS>BOND
     1    13    11    1
     2    13    14    1
     3     9    11    2
     4     9     7    1
     5    11    10    1
     6    14    12    1
     7     7     6    2
     8    10    12    1
     9    10     8    2
    10     6     8    1
    11     6     5    1
    12     3     2    1
    13     5     1    1
    14     2     1    1
    15     2     4    2
