@<TRIPOS>MOLECULE
/home/cewinharhar/GITHUB/reincatalyze/data/processed/docking_pred/2023-May-30-2130_sub9_nm5_bs15_s42_ex16_mel10_mts10000_k50_ec05_g099_lra3e-4_lrc3e-3/a450f47ca4f24610d4ad642e19216dd37a68a7e2_ligand_9.pdbqt
 14 15 0 0 0
SMALL
GASTEIGER

@<TRIPOS>ATOM
      1  C          8.3100    0.2120   -2.6270 C.3     1  UNL1        0.0800
      2  C          8.0010   -1.2420   -2.7210 C.2     1  UNL1        0.1300
      3  C          9.0570   -2.2470   -3.0150 C.3     1  UNL1        0.0870
      4  O          6.8630   -1.6520   -2.5590 O.2     1  UNL1       -0.3000
      5  C          8.8300    0.5770   -1.2500 C.3     1  UNL1        0.0430
      6  C          7.7880    0.4320   -0.2180 C.2     1  UNL1       -0.0440
      7  C          7.8840   -0.5340    0.7900 C.2     1  UNL1        0.0080
      8  C          6.6920    1.2650   -0.2330 C.2     1  UNL1        0.0540
      9  C          6.8760   -0.6220    1.7330 C.2     1  UNL1        0.0510
     10  C          5.6760    1.1720    0.7230 C.2     1  UNL1        0.1660
     11  C          5.7690    0.2200    1.7140 C.2     1  UNL1        0.1650
     12  O          4.5040    1.8700    0.9190 O.2     1  UNL1       -0.4540
     13  O          4.6410    0.3570    2.5070 O.2     1  UNL1       -0.4540
     14  C          3.8570    1.4500    2.0930 C.3     1  UNL1        0.4680
@<TRIPOS>BOND
     1     3     2    1
     2     2     1    1
     3     2     4    2
     4     1     5    1
     5     5     6    1
     6     8     6    2
     7     8    10    1
     8     6     7    1
     9    10    12    1
    10    10    11    2
    11     7     9    2
    12    12    14    1
    13    11     9    1
    14    11    13    1
    15    14    13    1
