@<TRIPOS>MOLECULE
/home/cewinharhar/GITHUB/reincatalyze/data/processed/docking_pred/2023-May-30-2130_sub9_nm5_bs15_s42_ex16_mel10_mts10000_k50_ec05_g099_lra3e-4_lrc3e-3/a5b16c92fd7591d551db5a31bdb9c28d24e6a5b8_ligand_9.pdbqt
 14 15 0 0 0
SMALL
GASTEIGER

@<TRIPOS>ATOM
      1  C          6.3200    1.2440    0.8740 C.3     1  UNL1        0.0800
      2  C          5.6590    0.4030    1.9100 C.2     1  UNL1        0.1300
      3  C          6.3240   -0.7990    2.4800 C.3     1  UNL1        0.0870
      4  O          4.5440    0.6780    2.3230 O.2     1  UNL1       -0.3000
      5  C          5.8110    0.9090   -0.5150 C.3     1  UNL1        0.0430
      6  C          6.7810    0.0960   -1.2700 C.2     1  UNL1       -0.0440
      7  C          7.4880    0.6210   -2.3580 C.2     1  UNL1        0.0080
      8  C          7.0050   -1.2120   -0.9050 C.2     1  UNL1        0.0540
      9  C          8.3860   -0.1900   -3.0290 C.2     1  UNL1        0.0510
     10  C          7.9140   -2.0270   -1.5860 C.2     1  UNL1        0.1660
     11  C          8.6100   -1.5120   -2.6570 C.2     1  UNL1        0.1650
     12  O          8.3080   -3.3380   -1.4210 O.2     1  UNL1       -0.4540
     13  O          9.4250   -2.5270   -3.1310 O.2     1  UNL1       -0.4540
     14  C          9.3330   -3.6740   -2.3200 C.3     1  UNL1        0.4680
@<TRIPOS>BOND
     1    13    11    1
     2    13    14    1
     3     9    11    2
     4     9     7    1
     5    11    10    1
     6     7     6    2
     7    14    12    1
     8    10    12    1
     9    10     8    2
    10     6     8    1
    11     6     5    1
    12     5     1    1
    13     1     2    1
    14     2     4    2
    15     2     3    1
