MODEL 1
REMARK VINA RESULT:      -7.7      0.000      0.000
REMARK SMILES CC(=O)CCc1ccc2c(c1)OCO2
REMARK SMILES IDX 4 1 2 2 1 3 3 4 5 5 6 6 7 7 11 8 8 9 10 10 9 11 12 12 14 13
REMARK SMILES IDX 13 14
REMARK H PARENT
REMARK Flexibility Score: inf
ROOT
ATOM      1  C   UNL     1       5.522   1.916   1.263  1.00  0.00     0.080 C 
ENDROOT
BRANCH   1   2
ATOM      2  C   UNL     1       5.072   0.704   2.003  1.00  0.00     0.130 C 
ATOM      3  C   UNL     1       5.954  -0.482   2.169  1.00  0.00     0.087 C 
ATOM      4  O   UNL     1       3.958   0.650   2.498  1.00  0.00    -0.300 OA
ENDBRANCH   1   2
BRANCH   1   5
ATOM      5  C   UNL     1       5.395   1.725  -0.235  1.00  0.00     0.043 C 
BRANCH   5   6
ATOM      6  C   UNL     1       6.562   1.023  -0.798  1.00  0.00    -0.044 A 
ATOM      7  C   UNL     1       7.869   1.459  -0.552  1.00  0.00     0.008 A 
ATOM      8  C   UNL     1       6.374  -0.091  -1.584  1.00  0.00     0.054 A 
ATOM      9  C   UNL     1       8.925   0.760  -1.107  1.00  0.00     0.051 A 
ATOM     10  C   UNL     1       7.445  -0.796  -2.141  1.00  0.00     0.166 A 
ATOM     11  C   UNL     1       8.731  -0.366  -1.901  1.00  0.00     0.165 A 
ATOM     12  O   UNL     1       7.518  -1.914  -2.944  1.00  0.00    -0.454 OA
ATOM     13  O   UNL     1       9.576  -1.239  -2.567  1.00  0.00    -0.454 OA
ATOM     14  C   UNL     1       8.854  -2.288  -3.167  1.00  0.00     0.468 C 
ENDBRANCH   5   6
ENDBRANCH   1   5
TORSDOF 3
ENDMDL
MODEL 2
REMARK VINA RESULT:      -7.5      1.897      2.337
REMARK SMILES CC(=O)CCc1ccc2c(c1)OCO2
REMARK SMILES IDX 4 1 2 2 1 3 3 4 5 5 6 6 7 7 11 8 8 9 10 10 9 11 12 12 14 13
REMARK SMILES IDX 13 14
REMARK H PARENT
REMARK Flexibility Score: inf
ROOT
ATOM      1  C   UNL     1       5.635   1.368  -0.261  1.00  0.00     0.080 C 
ENDROOT
BRANCH   1   2
ATOM      2  C   UNL     1       5.041   1.233   1.099  1.00  0.00     0.130 C 
ATOM      3  C   UNL     1       5.330   0.058   1.964  1.00  0.00     0.087 C 
ATOM      4  O   UNL     1       4.295   2.090   1.544  1.00  0.00    -0.300 OA
ENDBRANCH   1   2
BRANCH   1   5
ATOM      5  C   UNL     1       7.136   1.157  -0.229  1.00  0.00     0.043 C 
BRANCH   5   6
ATOM      6  C   UNL     1       7.520  -0.131  -0.833  1.00  0.00    -0.044 A 
ATOM      7  C   UNL     1       7.564  -0.306  -2.221  1.00  0.00     0.008 A 
ATOM      8  C   UNL     1       7.847  -1.194  -0.022  1.00  0.00     0.054 A 
ATOM      9  C   UNL     1       7.932  -1.538  -2.730  1.00  0.00     0.051 A 
ATOM     10  C   UNL     1       8.219  -2.437  -0.542  1.00  0.00     0.166 A 
ATOM     11  C   UNL     1       8.262  -2.610  -1.908  1.00  0.00     0.165 A 
ATOM     12  O   UNL     1       8.584  -3.631   0.044  1.00  0.00    -0.454 OA
ATOM     13  O   UNL     1       8.657  -3.920  -2.134  1.00  0.00    -0.454 OA
ATOM     14  C   UNL     1       8.959  -4.575  -0.925  1.00  0.00     0.468 C 
ENDBRANCH   5   6
ENDBRANCH   1   5
TORSDOF 3
ENDMDL
MODEL 3
REMARK VINA RESULT:      -7.3      2.057      2.624
REMARK SMILES CC(=O)CCc1ccc2c(c1)OCO2
REMARK SMILES IDX 4 1 2 2 1 3 3 4 5 5 6 6 7 7 11 8 8 9 10 10 9 11 12 12 14 13
REMARK SMILES IDX 13 14
REMARK H PARENT
REMARK Flexibility Score: inf
ROOT
ATOM      1  C   UNL     1       5.421  -0.047   2.011  1.00  0.00     0.080 C 
ENDROOT
BRANCH   1   2
ATOM      2  C   UNL     1       4.563   1.145   1.763  1.00  0.00     0.130 C 
ATOM      3  C   UNL     1       4.883   2.128   0.693  1.00  0.00     0.087 C 
ATOM      4  O   UNL     1       3.567   1.352   2.436  1.00  0.00    -0.300 OA
ENDBRANCH   1   2
BRANCH   1   5
ATOM      5  C   UNL     1       6.853   0.207   1.585  1.00  0.00     0.043 C 
BRANCH   5   6
ATOM      6  C   UNL     1       7.282  -0.725   0.527  1.00  0.00    -0.044 A 
ATOM      7  C   UNL     1       7.151  -0.404  -0.829  1.00  0.00     0.008 A 
ATOM      8  C   UNL     1       7.827  -1.941   0.869  1.00  0.00     0.054 A 
ATOM      9  C   UNL     1       7.572  -1.318  -1.778  1.00  0.00     0.051 A 
ATOM     10  C   UNL     1       8.251  -2.862  -0.095  1.00  0.00     0.166 A 
ATOM     11  C   UNL     1       8.122  -2.547  -1.429  1.00  0.00     0.165 A 
ATOM     12  O   UNL     1       8.815  -4.117  -0.011  1.00  0.00    -0.454 OA
ATOM     13  O   UNL     1       8.616  -3.627  -2.145  1.00  0.00    -0.454 OA
ATOM     14  C   UNL     1       9.149  -4.606  -1.285  1.00  0.00     0.468 C 
ENDBRANCH   5   6
ENDBRANCH   1   5
TORSDOF 3
ENDMDL
MODEL 4
REMARK VINA RESULT:      -7.1      1.247      1.448
REMARK SMILES CC(=O)CCc1ccc2c(c1)OCO2
REMARK SMILES IDX 4 1 2 2 1 3 3 4 5 5 6 6 7 7 11 8 8 9 10 10 9 11 12 12 14 13
REMARK SMILES IDX 13 14
REMARK H PARENT
REMARK Flexibility Score: inf
ROOT
ATOM      1  C   UNL     1       6.320   1.244   0.874  1.00  0.00     0.080 C 
ENDROOT
BRANCH   1   2
ATOM      2  C   UNL     1       5.659   0.403   1.910  1.00  0.00     0.130 C 
ATOM      3  C   UNL     1       6.324  -0.799   2.480  1.00  0.00     0.087 C 
ATOM      4  O   UNL     1       4.544   0.678   2.323  1.00  0.00    -0.300 OA
ENDBRANCH   1   2
BRANCH   1   5
ATOM      5  C   UNL     1       5.811   0.909  -0.515  1.00  0.00     0.043 C 
BRANCH   5   6
ATOM      6  C   UNL     1       6.781   0.096  -1.270  1.00  0.00    -0.044 A 
ATOM      7  C   UNL     1       7.488   0.621  -2.358  1.00  0.00     0.008 A 
ATOM      8  C   UNL     1       7.005  -1.212  -0.905  1.00  0.00     0.054 A 
ATOM      9  C   UNL     1       8.386  -0.190  -3.029  1.00  0.00     0.051 A 
ATOM     10  C   UNL     1       7.914  -2.027  -1.586  1.00  0.00     0.166 A 
ATOM     11  C   UNL     1       8.610  -1.512  -2.657  1.00  0.00     0.165 A 
ATOM     12  O   UNL     1       8.308  -3.338  -1.421  1.00  0.00    -0.454 OA
ATOM     13  O   UNL     1       9.425  -2.527  -3.131  1.00  0.00    -0.454 OA
ATOM     14  C   UNL     1       9.333  -3.674  -2.320  1.00  0.00     0.468 C 
ENDBRANCH   5   6
ENDBRANCH   1   5
TORSDOF 3
ENDMDL
MODEL 5
REMARK VINA RESULT:      -7.1      1.979      2.518
REMARK SMILES CC(=O)CCc1ccc2c(c1)OCO2
REMARK SMILES IDX 4 1 2 2 1 3 3 4 5 5 6 6 7 7 11 8 8 9 10 10 9 11 12 12 14 13
REMARK SMILES IDX 13 14
REMARK H PARENT
REMARK Flexibility Score: inf
ROOT
ATOM      1  C   UNL     1       6.861   0.842   1.374  1.00  0.00     0.080 C 
ENDROOT
BRANCH   1   2
ATOM      2  C   UNL     1       5.407   1.149   1.479  1.00  0.00     0.130 C 
ATOM      3  C   UNL     1       4.752   2.139   0.584  1.00  0.00     0.087 C 
ATOM      4  O   UNL     1       4.708   0.593   2.310  1.00  0.00    -0.300 OA
ENDBRANCH   1   2
BRANCH   1   5
ATOM      5  C   UNL     1       7.366   1.048  -0.040  1.00  0.00     0.043 C 
BRANCH   5   6
ATOM      6  C   UNL     1       7.695  -0.230  -0.695  1.00  0.00    -0.044 A 
ATOM      7  C   UNL     1       7.710  -0.357  -2.089  1.00  0.00     0.008 A 
ATOM      8  C   UNL     1       8.000  -1.331   0.072  1.00  0.00     0.054 A 
ATOM      9  C   UNL     1       8.027  -1.582  -2.647  1.00  0.00     0.051 A 
ATOM     10  C   UNL     1       8.320  -2.567  -0.497  1.00  0.00     0.166 A 
ATOM     11  C   UNL     1       8.334  -2.694  -1.868  1.00  0.00     0.165 A 
ATOM     12  O   UNL     1       8.653  -3.792   0.041  1.00  0.00    -0.454 OA
ATOM     13  O   UNL     1       8.680  -4.007  -2.146  1.00  0.00    -0.454 OA
ATOM     14  C   UNL     1       8.979  -4.714  -0.967  1.00  0.00     0.468 C 
ENDBRANCH   5   6
ENDBRANCH   1   5
TORSDOF 3
ENDMDL
