@<TRIPOS>MOLECULE
/home/cewinharhar/GITHUB/reincatalyze/data/processed/docking_pred/2023-May-30-2130_sub9_nm5_bs15_s42_ex16_mel10_mts10000_k50_ec05_g099_lra3e-4_lrc3e-3/a5b16c92fd7591d551db5a31bdb9c28d24e6a5b8_ligand_9.pdbqt
 14 15 0 0 0
SMALL
GASTEIGER

@<TRIPOS>ATOM
      1  C          5.4210   -0.0470    2.0110 C.3     1  UNL1        0.0800
      2  C          4.5630    1.1450    1.7630 C.2     1  UNL1        0.1300
      3  C          4.8830    2.1280    0.6930 C.3     1  UNL1        0.0870
      4  O          3.5670    1.3520    2.4360 O.2     1  UNL1       -0.3000
      5  C          6.8530    0.2070    1.5850 C.3     1  UNL1        0.0430
      6  C          7.2820   -0.7250    0.5270 C.2     1  UNL1       -0.0440
      7  C          7.1510   -0.4040   -0.8290 C.2     1  UNL1        0.0080
      8  C          7.8270   -1.9410    0.8690 C.2     1  UNL1        0.0540
      9  C          7.5720   -1.3180   -1.7780 C.2     1  UNL1        0.0510
     10  C          8.2510   -2.8620   -0.0950 C.2     1  UNL1        0.1660
     11  C          8.1220   -2.5470   -1.4290 C.2     1  UNL1        0.1650
     12  O          8.8150   -4.1170   -0.0110 O.2     1  UNL1       -0.4540
     13  O          8.6160   -3.6270   -2.1450 O.2     1  UNL1       -0.4540
     14  C          9.1490   -4.6060   -1.2850 C.3     1  UNL1        0.4680
@<TRIPOS>BOND
     1    13    11    1
     2    13    14    1
     3     9    11    2
     4     9     7    1
     5    11    10    1
     6    14    12    1
     7     7     6    2
     8    10    12    1
     9    10     8    2
    10     6     8    1
    11     6     5    1
    12     3     2    1
    13     5     1    1
    14     2     1    1
    15     2     4    2
