@<TRIPOS>MOLECULE
/home/cewinharhar/GITHUB/reincatalyze/data/processed/docking_pred/2023-May-30-2130_sub9_nm5_bs15_s42_ex16_mel10_mts10000_k50_ec05_g099_lra3e-4_lrc3e-3/a614218f6e6a1b7d791f470f20b1a009abdeaae3_ligand_9.pdbqt
 14 15 0 0 0
SMALL
GASTEIGER

@<TRIPOS>ATOM
      1  C          5.5500    1.9360    1.2690 C.3     1  UNL1        0.0800
      2  C          5.1220    0.7180    2.0120 C.2     1  UNL1        0.1300
      3  C          6.0340   -0.4420    2.2010 C.3     1  UNL1        0.0870
      4  O          4.0020    0.6370    2.4900 O.2     1  UNL1       -0.3000
      5  C          5.4180    1.7430   -0.2280 C.3     1  UNL1        0.0430
      6  C          6.5810    1.0350   -0.7930 C.2     1  UNL1       -0.0440
      7  C          7.8910    1.4620   -0.5440 C.2     1  UNL1        0.0080
      8  C          6.3870   -0.0760   -1.5820 C.2     1  UNL1        0.0540
      9  C          8.9430    0.7580   -1.1000 C.2     1  UNL1        0.0510
     10  C          7.4540   -0.7850   -2.1410 C.2     1  UNL1        0.1660
     11  C          8.7430   -0.3640   -1.8980 C.2     1  UNL1        0.1650
     12  O          7.5210   -1.9010   -2.9470 O.2     1  UNL1       -0.4540
     13  O          9.5830   -1.2410   -2.5670 O.2     1  UNL1       -0.4540
     14  C          8.8550   -2.2830   -3.1700 C.3     1  UNL1        0.4680
@<TRIPOS>BOND
     1    14    12    1
     2    14    13    1
     3    12    10    1
     4    13    11    1
     5    10    11    2
     6    10     8    1
     7    11     9    1
     8     8     6    2
     9     9     7    2
    10     6     7    1
    11     6     5    1
    12     5     1    1
    13     1     2    1
    14     2     3    1
    15     2     4    2
