@<TRIPOS>MOLECULE
/home/cewinharhar/GITHUB/reincatalyze/data/processed/docking_pred/2023-May-30-2130_sub9_nm5_bs15_s42_ex16_mel10_mts10000_k50_ec05_g099_lra3e-4_lrc3e-3/a7c8c9f10e55c2841f25afbe7e611a3f864293db_ligand_9.pdbqt
 14 15 0 0 0
SMALL
GASTEIGER

@<TRIPOS>ATOM
      1  C          8.3080    0.1890   -2.7120 C.3     1  UNL1        0.0800
      2  C          8.0360   -1.2740   -2.7760 C.2     1  UNL1        0.1300
      3  C          9.1210   -2.2600   -3.0290 C.3     1  UNL1        0.0870
      4  O          6.9060   -1.7090   -2.6220 O.2     1  UNL1       -0.3000
      5  C          8.8450    0.5900   -1.3530 C.3     1  UNL1        0.0430
      6  C          7.8260    0.4460   -0.2980 C.2     1  UNL1       -0.0440
      7  C          7.9560   -0.5020    0.7230 C.2     1  UNL1        0.0080
      8  C          6.7160    1.2600   -0.3070 C.2     1  UNL1        0.0540
      9  C          6.9670   -0.5900    1.6860 C.2     1  UNL1        0.0510
     10  C          5.7190    1.1670    0.6690 C.2     1  UNL1        0.1660
     11  C          5.8460    0.2340    1.6740 C.2     1  UNL1        0.1650
     12  O          4.5400    1.8500    0.8760 O.2     1  UNL1       -0.4540
     13  O          4.7310    0.3650    2.4860 O.2     1  UNL1       -0.4540
     14  C          3.9220    1.4380    2.0690 C.3     1  UNL1        0.4680
@<TRIPOS>BOND
     1     3     2    1
     2     2     1    1
     3     2     4    2
     4     1     5    1
     5     5     6    1
     6     8     6    2
     7     8    10    1
     8     6     7    1
     9    10    12    1
    10    10    11    2
    11     7     9    2
    12    12    14    1
    13    11     9    1
    14    11    13    1
    15    14    13    1
