@<TRIPOS>MOLECULE
/home/cewinharhar/GITHUB/reincatalyze/data/processed/docking_pred/2023-May-30-2130_sub9_nm5_bs15_s42_ex16_mel10_mts10000_k50_ec05_g099_lra3e-4_lrc3e-3/a7c8c9f10e55c2841f25afbe7e611a3f864293db_ligand_9.pdbqt
 14 15 0 0 0
SMALL
GASTEIGER

@<TRIPOS>ATOM
      1  C          5.6550    1.3180   -0.2440 C.3     1  UNL1        0.0800
      2  C          5.0730    1.2100    1.1220 C.2     1  UNL1        0.1300
      3  C          5.4080    0.0790    2.0270 C.3     1  UNL1        0.0870
      4  O          4.2970    2.0540    1.5410 O.2     1  UNL1       -0.3000
      5  C          7.1570    1.1120   -0.2200 C.3     1  UNL1        0.0430
      6  C          7.5420   -0.1770   -0.8210 C.2     1  UNL1       -0.0440
      7  C          7.5770   -0.3580   -2.2090 C.2     1  UNL1        0.0080
      8  C          7.8780   -1.2350   -0.0080 C.2     1  UNL1        0.0540
      9  C          7.9460   -1.5910   -2.7150 C.2     1  UNL1        0.0510
     10  C          8.2520   -2.4790   -0.5250 C.2     1  UNL1        0.1660
     11  C          8.2860   -2.6580   -1.8900 C.2     1  UNL1        0.1650
     12  O          8.6250   -3.6690    0.0640 O.2     1  UNL1       -0.4540
     13  O          8.6840   -3.9670   -2.1130 O.2     1  UNL1       -0.4540
     14  C          8.9970   -4.6160   -0.9040 C.3     1  UNL1        0.4680
@<TRIPOS>BOND
     1     9     7    1
     2     9    11    2
     3     7     6    2
     4    13    11    1
     5    13    14    1
     6    11    10    1
     7    14    12    1
     8     6     5    1
     9     6     8    1
    10    10     8    2
    11    10    12    1
    12     1     5    1
    13     1     2    1
    14     2     4    2
    15     2     3    1
