@<TRIPOS>MOLECULE
/home/cewinharhar/GITHUB/reincatalyze/data/processed/docking_pred/2023-May-30-2130_sub9_nm5_bs15_s42_ex16_mel10_mts10000_k50_ec05_g099_lra3e-4_lrc3e-3/a7c8c9f10e55c2841f25afbe7e611a3f864293db_ligand_9.pdbqt
 14 15 0 0 0
SMALL
GASTEIGER

@<TRIPOS>ATOM
      1  C          5.5430    1.9150    1.2740 C.3     1  UNL1        0.0800
      2  C          5.1210    0.6920    2.0120 C.2     1  UNL1        0.1300
      3  C          6.0310   -0.4720    2.1810 C.3     1  UNL1        0.0870
      4  O          4.0060    0.6090    2.5020 O.2     1  UNL1       -0.3000
      5  C          5.4130    1.7260   -0.2240 C.3     1  UNL1        0.0430
      6  C          6.5790    1.0230   -0.7900 C.2     1  UNL1       -0.0440
      7  C          7.8870    1.4500   -0.5350 C.2     1  UNL1        0.0080
      8  C          6.3880   -0.0820   -1.5870 C.2     1  UNL1        0.0540
      9  C          8.9420    0.7500   -1.0920 C.2     1  UNL1        0.0510
     10  C          7.4570   -0.7870   -2.1480 C.2     1  UNL1        0.1660
     11  C          8.7450   -0.3670   -1.8980 C.2     1  UNL1        0.1650
     12  O          7.5280   -1.8970   -2.9610 O.2     1  UNL1       -0.4540
     13  O          9.5880   -1.2380   -2.5700 O.2     1  UNL1       -0.4540
     14  C          8.8620   -2.2770   -3.1820 C.3     1  UNL1        0.4680
@<TRIPOS>BOND
     1    14    12    1
     2    14    13    1
     3    12    10    1
     4    13    11    1
     5    10    11    2
     6    10     8    1
     7    11     9    1
     8     8     6    2
     9     9     7    2
    10     6     7    1
    11     6     5    1
    12     5     1    1
    13     1     2    1
    14     2     3    1
    15     2     4    2
