MODEL 1
REMARK VINA RESULT:      -7.6      0.000      0.000
REMARK SMILES CC(=O)CCc1ccc2c(c1)OCO2
REMARK SMILES IDX 4 1 2 2 1 3 3 4 5 5 6 6 7 7 11 8 8 9 10 10 9 11 12 12 14 13
REMARK SMILES IDX 13 14
REMARK H PARENT
REMARK Flexibility Score: inf
ROOT
ATOM      1  C   UNL     1       5.543   1.915   1.274  1.00  0.00     0.080 C 
ENDROOT
BRANCH   1   2
ATOM      2  C   UNL     1       5.121   0.692   2.012  1.00  0.00     0.130 C 
ATOM      3  C   UNL     1       6.031  -0.472   2.181  1.00  0.00     0.087 C 
ATOM      4  O   UNL     1       4.006   0.609   2.502  1.00  0.00    -0.300 OA
ENDBRANCH   1   2
BRANCH   1   5
ATOM      5  C   UNL     1       5.413   1.726  -0.224  1.00  0.00     0.043 C 
BRANCH   5   6
ATOM      6  C   UNL     1       6.579   1.023  -0.790  1.00  0.00    -0.044 A 
ATOM      7  C   UNL     1       7.887   1.450  -0.535  1.00  0.00     0.008 A 
ATOM      8  C   UNL     1       6.388  -0.082  -1.587  1.00  0.00     0.054 A 
ATOM      9  C   UNL     1       8.942   0.750  -1.092  1.00  0.00     0.051 A 
ATOM     10  C   UNL     1       7.457  -0.787  -2.148  1.00  0.00     0.166 A 
ATOM     11  C   UNL     1       8.745  -0.367  -1.898  1.00  0.00     0.165 A 
ATOM     12  O   UNL     1       7.528  -1.897  -2.961  1.00  0.00    -0.454 OA
ATOM     13  O   UNL     1       9.588  -1.238  -2.570  1.00  0.00    -0.454 OA
ATOM     14  C   UNL     1       8.862  -2.277  -3.182  1.00  0.00     0.468 C 
ENDBRANCH   5   6
ENDBRANCH   1   5
TORSDOF 3
ENDMDL
MODEL 2
REMARK VINA RESULT:      -7.4      1.932      2.374
REMARK SMILES CC(=O)CCc1ccc2c(c1)OCO2
REMARK SMILES IDX 4 1 2 2 1 3 3 4 5 5 6 6 7 7 11 8 8 9 10 10 9 11 12 12 14 13
REMARK SMILES IDX 13 14
REMARK H PARENT
REMARK Flexibility Score: inf
ROOT
ATOM      1  C   UNL     1       5.655   1.318  -0.244  1.00  0.00     0.080 C 
ENDROOT
BRANCH   1   2
ATOM      2  C   UNL     1       5.073   1.210   1.122  1.00  0.00     0.130 C 
ATOM      3  C   UNL     1       5.408   0.079   2.027  1.00  0.00     0.087 C 
ATOM      4  O   UNL     1       4.297   2.054   1.541  1.00  0.00    -0.300 OA
ENDBRANCH   1   2
BRANCH   1   5
ATOM      5  C   UNL     1       7.157   1.112  -0.220  1.00  0.00     0.043 C 
BRANCH   5   6
ATOM      6  C   UNL     1       7.542  -0.177  -0.821  1.00  0.00    -0.044 A 
ATOM      7  C   UNL     1       7.577  -0.358  -2.209  1.00  0.00     0.008 A 
ATOM      8  C   UNL     1       7.878  -1.235  -0.008  1.00  0.00     0.054 A 
ATOM      9  C   UNL     1       7.946  -1.591  -2.715  1.00  0.00     0.051 A 
ATOM     10  C   UNL     1       8.252  -2.479  -0.525  1.00  0.00     0.166 A 
ATOM     11  C   UNL     1       8.286  -2.658  -1.890  1.00  0.00     0.165 A 
ATOM     12  O   UNL     1       8.625  -3.669   0.064  1.00  0.00    -0.454 OA
ATOM     13  O   UNL     1       8.684  -3.967  -2.113  1.00  0.00    -0.454 OA
ATOM     14  C   UNL     1       8.997  -4.616  -0.904  1.00  0.00     0.468 C 
ENDBRANCH   5   6
ENDBRANCH   1   5
TORSDOF 3
ENDMDL
MODEL 3
REMARK VINA RESULT:      -7.2      2.051      2.618
REMARK SMILES CC(=O)CCc1ccc2c(c1)OCO2
REMARK SMILES IDX 4 1 2 2 1 3 3 4 5 5 6 6 7 7 11 8 8 9 10 10 9 11 12 12 14 13
REMARK SMILES IDX 13 14
REMARK H PARENT
REMARK Flexibility Score: inf
ROOT
ATOM      1  C   UNL     1       5.441  -0.040   2.012  1.00  0.00     0.080 C 
ENDROOT
BRANCH   1   2
ATOM      2  C   UNL     1       4.570   1.142   1.762  1.00  0.00     0.130 C 
ATOM      3  C   UNL     1       4.897   2.146   0.715  1.00  0.00     0.087 C 
ATOM      4  O   UNL     1       3.555   1.322   2.416  1.00  0.00    -0.300 OA
ENDBRANCH   1   2
BRANCH   1   5
ATOM      5  C   UNL     1       6.866   0.223   1.568  1.00  0.00     0.043 C 
BRANCH   5   6
ATOM      6  C   UNL     1       7.290  -0.710   0.509  1.00  0.00    -0.044 A 
ATOM      7  C   UNL     1       7.159  -0.388  -0.847  1.00  0.00     0.008 A 
ATOM      8  C   UNL     1       7.831  -1.929   0.850  1.00  0.00     0.054 A 
ATOM      9  C   UNL     1       7.575  -1.303  -1.797  1.00  0.00     0.051 A 
ATOM     10  C   UNL     1       8.251  -2.850  -0.114  1.00  0.00     0.166 A 
ATOM     11  C   UNL     1       8.121  -2.535  -1.449  1.00  0.00     0.165 A 
ATOM     12  O   UNL     1       8.811  -4.107  -0.032  1.00  0.00    -0.454 OA
ATOM     13  O   UNL     1       8.610  -3.616  -2.165  1.00  0.00    -0.454 OA
ATOM     14  C   UNL     1       9.141  -4.597  -1.306  1.00  0.00     0.468 C 
ENDBRANCH   5   6
ENDBRANCH   1   5
TORSDOF 3
ENDMDL
MODEL 4
REMARK VINA RESULT:      -7.1      1.250      1.454
REMARK SMILES CC(=O)CCc1ccc2c(c1)OCO2
REMARK SMILES IDX 4 1 2 2 1 3 3 4 5 5 6 6 7 7 11 8 8 9 10 10 9 11 12 12 14 13
REMARK SMILES IDX 13 14
REMARK H PARENT
REMARK Flexibility Score: inf
ROOT
ATOM      1  C   UNL     1       6.310   1.222   0.875  1.00  0.00     0.080 C 
ENDROOT
BRANCH   1   2
ATOM      2  C   UNL     1       5.640   0.386   1.909  1.00  0.00     0.130 C 
ATOM      3  C   UNL     1       6.288  -0.829   2.471  1.00  0.00     0.087 C 
ATOM      4  O   UNL     1       4.531   0.677   2.328  1.00  0.00    -0.300 OA
ENDBRANCH   1   2
BRANCH   1   5
ATOM      5  C   UNL     1       5.803   0.890  -0.515  1.00  0.00     0.043 C 
BRANCH   5   6
ATOM      6  C   UNL     1       6.776   0.082  -1.272  1.00  0.00    -0.044 A 
ATOM      7  C   UNL     1       7.479   0.612  -2.360  1.00  0.00     0.008 A 
ATOM      8  C   UNL     1       7.007  -1.225  -0.909  1.00  0.00     0.054 A 
ATOM      9  C   UNL     1       8.380  -0.193  -3.033  1.00  0.00     0.051 A 
ATOM     10  C   UNL     1       7.919  -2.035  -1.592  1.00  0.00     0.166 A 
ATOM     11  C   UNL     1       8.611  -1.515  -2.663  1.00  0.00     0.165 A 
ATOM     12  O   UNL     1       8.319  -3.344  -1.429  1.00  0.00    -0.454 OA
ATOM     13  O   UNL     1       9.431  -2.526  -3.139  1.00  0.00    -0.454 OA
ATOM     14  C   UNL     1       9.345  -3.674  -2.330  1.00  0.00     0.468 C 
ENDBRANCH   5   6
ENDBRANCH   1   5
TORSDOF 3
ENDMDL
MODEL 5
REMARK VINA RESULT:      -6.8      1.183      5.155
REMARK SMILES CC(=O)CCc1ccc2c(c1)OCO2
REMARK SMILES IDX 4 1 2 2 1 3 3 4 5 5 6 6 7 7 11 8 8 9 10 10 9 11 12 12 14 13
REMARK SMILES IDX 13 14
REMARK H PARENT
REMARK Flexibility Score: inf
ROOT
ATOM      1  C   UNL     1       8.308   0.189  -2.712  1.00  0.00     0.080 C 
ENDROOT
BRANCH   1   2
ATOM      2  C   UNL     1       8.036  -1.274  -2.776  1.00  0.00     0.130 C 
ATOM      3  C   UNL     1       9.121  -2.260  -3.029  1.00  0.00     0.087 C 
ATOM      4  O   UNL     1       6.906  -1.709  -2.622  1.00  0.00    -0.300 OA
ENDBRANCH   1   2
BRANCH   1   5
ATOM      5  C   UNL     1       8.845   0.590  -1.353  1.00  0.00     0.043 C 
BRANCH   5   6
ATOM      6  C   UNL     1       7.826   0.446  -0.298  1.00  0.00    -0.044 A 
ATOM      7  C   UNL     1       7.956  -0.502   0.723  1.00  0.00     0.008 A 
ATOM      8  C   UNL     1       6.716   1.260  -0.307  1.00  0.00     0.054 A 
ATOM      9  C   UNL     1       6.967  -0.590   1.686  1.00  0.00     0.051 A 
ATOM     10  C   UNL     1       5.719   1.167   0.669  1.00  0.00     0.166 A 
ATOM     11  C   UNL     1       5.846   0.234   1.674  1.00  0.00     0.165 A 
ATOM     12  O   UNL     1       4.540   1.850   0.876  1.00  0.00    -0.454 OA
ATOM     13  O   UNL     1       4.731   0.365   2.486  1.00  0.00    -0.454 OA
ATOM     14  C   UNL     1       3.922   1.438   2.069  1.00  0.00     0.468 C 
ENDBRANCH   5   6
ENDBRANCH   1   5
TORSDOF 3
ENDMDL
