@<TRIPOS>MOLECULE
/home/cewinharhar/GITHUB/reincatalyze/data/processed/docking_pred/2023-May-30-2130_sub9_nm5_bs15_s42_ex16_mel10_mts10000_k50_ec05_g099_lra3e-4_lrc3e-3/a8cbf1bb962d04eb60783bb2dc55df042853f03a_ligand_9.pdbqt
 14 15 0 0 0
SMALL
GASTEIGER

@<TRIPOS>ATOM
      1  C          5.6300    1.4360   -0.2450 C.3     1  UNL1        0.0800
      2  C          5.0960    1.2590    1.1340 C.2     1  UNL1        0.1300
      3  C          5.5350    0.1340    2.0030 C.3     1  UNL1        0.0870
      4  O          4.2770    2.0380    1.5940 O.2     1  UNL1       -0.3000
      5  C          7.1360    1.2600   -0.2790 C.3     1  UNL1        0.0430
      6  C          7.5230   -0.0110   -0.9170 C.2     1  UNL1       -0.0440
      7  C          7.5930   -0.1410   -2.3090 C.2     1  UNL1        0.0080
      8  C          7.8290   -1.1010   -0.1350 C.2     1  UNL1        0.0540
      9  C          7.9640   -1.3580   -2.8510 C.2     1  UNL1        0.0510
     10  C          8.2030   -2.3290   -0.6880 C.2     1  UNL1        0.1660
     11  C          8.2710   -2.4590   -2.0570 C.2     1  UNL1        0.1650
     12  O          8.5490   -3.5430   -0.1330 O.2     1  UNL1       -0.4540
     13  O          8.6620   -3.7630   -2.3170 O.2     1  UNL1       -0.4540
     14  C          8.9370   -4.4590   -1.1250 C.3     1  UNL1        0.4680
@<TRIPOS>BOND
     1     9     7    1
     2     9    11    2
     3    13    11    1
     4    13    14    1
     5     7     6    2
     6    11    10    1
     7    14    12    1
     8     6     5    1
     9     6     8    1
    10    10     8    2
    11    10    12    1
    12     5     1    1
    13     1     2    1
    14     2     4    2
    15     2     3    1
