@<TRIPOS>MOLECULE
/home/cewinharhar/GITHUB/reincatalyze/data/processed/docking_pred/2023-May-30-2130_sub9_nm5_bs15_s42_ex16_mel10_mts10000_k50_ec05_g099_lra3e-4_lrc3e-3/a8cbf1bb962d04eb60783bb2dc55df042853f03a_ligand_9.pdbqt
 14 15 0 0 0
SMALL
GASTEIGER

@<TRIPOS>ATOM
      1  C          6.4080    1.1980    0.9360 C.3     1  UNL1        0.0800
      2  C          5.6700    0.3680    1.9280 C.2     1  UNL1        0.1300
      3  C          6.2650   -0.8640    2.5120 C.3     1  UNL1        0.0870
      4  O          4.5470    0.6780    2.2930 O.2     1  UNL1       -0.3000
      5  C          5.9070    0.9470   -0.4730 C.3     1  UNL1        0.0430
      6  C          6.8430    0.1090   -1.2440 C.2     1  UNL1       -0.0440
      7  C          7.5300    0.6090   -2.3560 C.2     1  UNL1        0.0080
      8  C          7.0550   -1.1990   -0.8690 C.2     1  UNL1        0.0540
      9  C          8.3960   -0.2240   -3.0400 C.2     1  UNL1        0.0510
     10  C          7.9320   -2.0370   -1.5640 C.2     1  UNL1        0.1660
     11  C          8.6070   -1.5450   -2.6590 C.2     1  UNL1        0.1650
     12  O          8.3080   -3.3520   -1.3930 O.2     1  UNL1       -0.4540
     13  O          9.3930   -2.5800   -3.1420 O.2     1  UNL1       -0.4540
     14  C          9.3030   -3.7160   -2.3160 C.3     1  UNL1        0.4680
@<TRIPOS>BOND
     1    13    11    1
     2    13    14    1
     3     9    11    2
     4     9     7    1
     5    11    10    1
     6     7     6    2
     7    14    12    1
     8    10    12    1
     9    10     8    2
    10     6     8    1
    11     6     5    1
    12     5     1    1
    13     1     2    1
    14     2     4    2
    15     2     3    1
