@<TRIPOS>MOLECULE
/home/cewinharhar/GITHUB/reincatalyze/data/processed/docking_pred/2023-May-30-2130_sub9_nm5_bs15_s42_ex16_mel10_mts10000_k50_ec05_g099_lra3e-4_lrc3e-3/a991e05863b38587be5f018959c733685726fb49_ligand_9.pdbqt
 14 15 0 0 0
SMALL
GASTEIGER

@<TRIPOS>ATOM
      1  C          5.3570   -0.1170    2.0160 C.3     1  UNL1        0.0800
      2  C          4.5560    1.1170    1.7810 C.2     1  UNL1        0.1300
      3  C          4.9190    2.0920    0.7180 C.3     1  UNL1        0.0870
      4  O          3.5730    1.3650    2.4600 O.2     1  UNL1       -0.3000
      5  C          6.8150    0.0960    1.6600 C.3     1  UNL1        0.0430
      6  C          7.2520   -0.8100    0.5830 C.2     1  UNL1       -0.0440
      7  C          7.1150   -0.4650   -0.7670 C.2     1  UNL1        0.0080
      8  C          7.8130   -2.0260    0.9000 C.2     1  UNL1        0.0540
      9  C          7.5450   -1.3550   -1.7340 C.2     1  UNL1        0.0510
     10  C          8.2460   -2.9230   -0.0810 C.2     1  UNL1        0.1660
     11  C          8.1100   -2.5840   -1.4090 C.2     1  UNL1        0.1650
     12  O          8.8250   -4.1720   -0.0230 O.2     1  UNL1       -0.4540
     13  O          8.6160   -3.6440   -2.1460 O.2     1  UNL1       -0.4540
     14  C          9.1620   -4.6330   -1.3060 C.3     1  UNL1        0.4680
@<TRIPOS>BOND
     1    13    11    1
     2    13    14    1
     3     9    11    2
     4     9     7    1
     5    11    10    1
     6    14    12    1
     7     7     6    2
     8    10    12    1
     9    10     8    2
    10     6     8    1
    11     6     5    1
    12     3     2    1
    13     5     1    1
    14     2     1    1
    15     2     4    2
