@<TRIPOS>MOLECULE
/home/cewinharhar/GITHUB/reincatalyze/data/processed/docking_pred/2023-May-30-2130_sub9_nm5_bs15_s42_ex16_mel10_mts10000_k50_ec05_g099_lra3e-4_lrc3e-3/ae2b7ca0e57384ee3cd7889808440c06f68d274f_ligand_9.pdbqt
 14 15 0 0 0
SMALL
GASTEIGER

@<TRIPOS>ATOM
      1  C          5.6310    0.2330    2.5300 C.3     1  UNL1        0.0800
      2  C          4.5110    1.0640    2.0040 C.2     1  UNL1        0.1300
      3  C          4.6420    1.8440    0.7450 C.3     1  UNL1        0.0870
      4  O          3.4470    1.1280    2.5980 O.2     1  UNL1       -0.3000
      5  C          5.7620   -1.0650    1.7570 C.3     1  UNL1        0.0430
      6  C          6.7830   -0.9700    0.6990 C.2     1  UNL1       -0.0440
      7  C          8.0200   -0.3550    0.9260 C.2     1  UNL1        0.0080
      8  C          6.5260   -1.4970   -0.5460 C.2     1  UNL1        0.0540
      9  C          8.9400   -0.2960   -0.1050 C.2     1  UNL1        0.0510
     10  C          7.4600   -1.4360   -1.5850 C.2     1  UNL1        0.1660
     11  C          8.6760   -0.8300   -1.3630 C.2     1  UNL1        0.1650
     12  O          7.4430   -1.8780   -2.8910 O.2     1  UNL1       -0.4540
     13  O          9.3890   -0.9140   -2.5480 O.2     1  UNL1       -0.4540
     14  C          8.6800   -1.6510   -3.5160 C.3     1  UNL1        0.4680
@<TRIPOS>BOND
     1    14    12    1
     2    14    13    1
     3    12    10    1
     4    13    11    1
     5    10    11    2
     6    10     8    1
     7    11     9    1
     8     8     6    2
     9     9     7    2
    10     6     7    1
    11     6     5    1
    12     3     2    1
    13     5     1    1
    14     2     1    1
    15     2     4    2
