@<TRIPOS>MOLECULE
/home/cewinharhar/GITHUB/reincatalyze/data/processed/docking_pred/2023-May-30-2130_sub9_nm5_bs15_s42_ex16_mel10_mts10000_k50_ec05_g099_lra3e-4_lrc3e-3/ae2b7ca0e57384ee3cd7889808440c06f68d274f_ligand_9.pdbqt
 14 15 0 0 0
SMALL
GASTEIGER

@<TRIPOS>ATOM
      1  C          5.3760   -0.2870    2.1300 C.3     1  UNL1        0.0800
      2  C          4.4650    0.8720    1.9170 C.2     1  UNL1        0.1300
      3  C          4.6920    1.8520    0.8200 C.3     1  UNL1        0.0870
      4  O          3.5000    1.0530    2.6410 O.2     1  UNL1       -0.3000
      5  C          6.7880    0.0320    1.6790 C.3     1  UNL1        0.0430
      6  C          7.2320   -0.8670    0.5990 C.2     1  UNL1       -0.0440
      7  C          7.0730   -0.5270   -0.7490 C.2     1  UNL1        0.0080
      8  C          7.8220   -2.0710    0.9120 C.2     1  UNL1        0.0540
      9  C          7.5100   -1.4100   -1.7200 C.2     1  UNL1        0.0510
     10  C          8.2630   -2.9590   -0.0730 C.2     1  UNL1        0.1660
     11  C          8.1050   -2.6260   -1.4000 C.2     1  UNL1        0.1650
     12  O          8.8700   -4.1960   -0.0190 O.2     1  UNL1       -0.4540
     13  O          8.6240   -3.6760   -2.1410 O.2     1  UNL1       -0.4540
     14  C          9.2010   -4.6510   -1.3060 C.3     1  UNL1        0.4680
@<TRIPOS>BOND
     1    13    11    1
     2    13    14    1
     3     9    11    2
     4     9     7    1
     5    11    10    1
     6    14    12    1
     7     7     6    2
     8    10    12    1
     9    10     8    2
    10     6     8    1
    11     6     5    1
    12     3     2    1
    13     5     1    1
    14     2     1    1
    15     2     4    2
