MODEL 1
REMARK VINA RESULT:      -6.7      0.000      0.000
REMARK SMILES CC(=O)CCc1ccc2c(c1)OCO2
REMARK SMILES IDX 4 1 2 2 1 3 3 4 5 5 6 6 7 7 11 8 8 9 10 10 9 11 12 12 14 13
REMARK SMILES IDX 13 14
REMARK H PARENT
REMARK Flexibility Score: inf
ROOT
ATOM      1  C   UNL     1       5.376  -0.287   2.130  1.00  0.00     0.080 C 
ENDROOT
BRANCH   1   2
ATOM      2  C   UNL     1       4.465   0.872   1.917  1.00  0.00     0.130 C 
ATOM      3  C   UNL     1       4.692   1.852   0.820  1.00  0.00     0.087 C 
ATOM      4  O   UNL     1       3.500   1.053   2.641  1.00  0.00    -0.300 OA
ENDBRANCH   1   2
BRANCH   1   5
ATOM      5  C   UNL     1       6.788   0.032   1.679  1.00  0.00     0.043 C 
BRANCH   5   6
ATOM      6  C   UNL     1       7.232  -0.867   0.599  1.00  0.00    -0.044 A 
ATOM      7  C   UNL     1       7.073  -0.527  -0.749  1.00  0.00     0.008 A 
ATOM      8  C   UNL     1       7.822  -2.071   0.912  1.00  0.00     0.054 A 
ATOM      9  C   UNL     1       7.510  -1.410  -1.720  1.00  0.00     0.051 A 
ATOM     10  C   UNL     1       8.263  -2.959  -0.073  1.00  0.00     0.166 A 
ATOM     11  C   UNL     1       8.105  -2.626  -1.400  1.00  0.00     0.165 A 
ATOM     12  O   UNL     1       8.870  -4.196  -0.019  1.00  0.00    -0.454 OA
ATOM     13  O   UNL     1       8.624  -3.676  -2.141  1.00  0.00    -0.454 OA
ATOM     14  C   UNL     1       9.201  -4.651  -1.306  1.00  0.00     0.468 C 
ENDBRANCH   5   6
ENDBRANCH   1   5
TORSDOF 3
ENDMDL
MODEL 2
REMARK VINA RESULT:      -6.0      1.042      1.967
REMARK SMILES CC(=O)CCc1ccc2c(c1)OCO2
REMARK SMILES IDX 4 1 2 2 1 3 3 4 5 5 6 6 7 7 11 8 8 9 10 10 9 11 12 12 14 13
REMARK SMILES IDX 13 14
REMARK H PARENT
REMARK Flexibility Score: inf
ROOT
ATOM      1  C   UNL     1       5.279  -0.178   2.309  1.00  0.00     0.080 C 
ENDROOT
BRANCH   1   2
ATOM      2  C   UNL     1       4.370   0.959   1.989  1.00  0.00     0.130 C 
ATOM      3  C   UNL     1       4.654   1.893   0.867  1.00  0.00     0.087 C 
ATOM      4  O   UNL     1       3.360   1.156   2.644  1.00  0.00    -0.300 OA
ENDBRANCH   1   2
BRANCH   1   5
ATOM      5  C   UNL     1       6.719   0.159   1.978  1.00  0.00     0.043 C 
BRANCH   5   6
ATOM      6  C   UNL     1       7.266  -0.735   0.942  1.00  0.00    -0.044 A 
ATOM      7  C   UNL     1       7.578  -2.071   1.217  1.00  0.00     0.008 A 
ATOM      8  C   UNL     1       7.476  -0.256  -0.331  1.00  0.00     0.054 A 
ATOM      9  C   UNL     1       8.087  -2.864   0.205  1.00  0.00     0.051 A 
ATOM     10  C   UNL     1       7.991  -1.062  -1.351  1.00  0.00     0.166 A 
ATOM     11  C   UNL     1       8.299  -2.376  -1.081  1.00  0.00     0.165 A 
ATOM     12  O   UNL     1       8.287  -0.824  -2.677  1.00  0.00    -0.454 OA
ATOM     13  O   UNL     1       8.782  -2.925  -2.258  1.00  0.00    -0.454 OA
ATOM     14  C   UNL     1       8.706  -2.002  -3.318  1.00  0.00     0.468 C 
ENDBRANCH   5   6
ENDBRANCH   1   5
TORSDOF 3
ENDMDL
MODEL 3
REMARK VINA RESULT:      -5.9      1.858      5.422
REMARK SMILES CC(=O)CCc1ccc2c(c1)OCO2
REMARK SMILES IDX 4 1 2 2 1 3 3 4 5 5 6 6 7 7 11 8 8 9 10 10 9 11 12 12 14 13
REMARK SMILES IDX 13 14
REMARK H PARENT
REMARK Flexibility Score: inf
ROOT
ATOM      1  C   UNL     1       8.035  -1.760  -2.330  1.00  0.00     0.080 C 
ENDROOT
BRANCH   1   2
ATOM      2  C   UNL     1       8.727  -0.444  -2.420  1.00  0.00     0.130 C 
ATOM      3  C   UNL     1       8.186   0.668  -3.248  1.00  0.00     0.087 C 
ATOM      4  O   UNL     1       9.767  -0.239  -1.814  1.00  0.00    -0.300 OA
ENDBRANCH   1   2
BRANCH   1   5
ATOM      5  C   UNL     1       8.174  -2.360  -0.945  1.00  0.00     0.043 C 
BRANCH   5   6
ATOM      6  C   UNL     1       7.337  -1.655   0.043  1.00  0.00    -0.044 A 
ATOM      7  C   UNL     1       7.272  -2.069   1.378  1.00  0.00     0.008 A 
ATOM      8  C   UNL     1       6.599  -0.560  -0.346  1.00  0.00     0.054 A 
ATOM      9  C   UNL     1       6.470  -1.368   2.260  1.00  0.00     0.051 A 
ATOM     10  C   UNL     1       5.790   0.145   0.549  1.00  0.00     0.166 A 
ATOM     11  C   UNL     1       5.724  -0.262   1.863  1.00  0.00     0.165 A 
ATOM     12  O   UNL     1       4.972   1.247   0.410  1.00  0.00    -0.454 OA
ATOM     13  O   UNL     1       4.860   0.607   2.510  1.00  0.00    -0.454 OA
ATOM     14  C   UNL     1       4.432   1.634   1.648  1.00  0.00     0.468 C 
ENDBRANCH   5   6
ENDBRANCH   1   5
TORSDOF 3
ENDMDL
MODEL 4
REMARK VINA RESULT:      -5.8      1.357      6.123
REMARK SMILES CC(=O)CCc1ccc2c(c1)OCO2
REMARK SMILES IDX 4 1 2 2 1 3 3 4 5 5 6 6 7 7 11 8 8 9 10 10 9 11 12 12 14 13
REMARK SMILES IDX 13 14
REMARK H PARENT
REMARK Flexibility Score: inf
ROOT
ATOM      1  C   UNL     1       8.670  -3.976  -0.432  1.00  0.00     0.080 C 
ENDROOT
BRANCH   1   2
ATOM      2  C   UNL     1       9.281  -4.836  -1.483  1.00  0.00     0.130 C 
ATOM      3  C   UNL     1       8.958  -6.284  -1.593  1.00  0.00     0.087 C 
ATOM      4  O   UNL     1      10.072  -4.374  -2.290  1.00  0.00    -0.300 OA
ENDBRANCH   1   2
BRANCH   1   5
ATOM      5  C   UNL     1       8.311  -2.609  -0.980  1.00  0.00     0.043 C 
BRANCH   5   6
ATOM      6  C   UNL     1       7.480  -1.842  -0.035  1.00  0.00    -0.044 A 
ATOM      7  C   UNL     1       7.420  -2.173   1.324  1.00  0.00     0.008 A 
ATOM      8  C   UNL     1       6.743  -0.771  -0.487  1.00  0.00     0.054 A 
ATOM      9  C   UNL     1       6.624  -1.417   2.164  1.00  0.00     0.051 A 
ATOM     10  C   UNL     1       5.940  -0.010   0.367  1.00  0.00     0.166 A 
ATOM     11  C   UNL     1       5.879  -0.335   1.703  1.00  0.00     0.165 A 
ATOM     12  O   UNL     1       5.124   1.083   0.163  1.00  0.00    -0.454 OA
ATOM     13  O   UNL     1       5.020   0.575   2.299  1.00  0.00    -0.454 OA
ATOM     14  C   UNL     1       4.590   1.547   1.377  1.00  0.00     0.468 C 
ENDBRANCH   5   6
ENDBRANCH   1   5
TORSDOF 3
ENDMDL
MODEL 5
REMARK VINA RESULT:      -5.8      1.848      2.135
REMARK SMILES CC(=O)CCc1ccc2c(c1)OCO2
REMARK SMILES IDX 4 1 2 2 1 3 3 4 5 5 6 6 7 7 11 8 8 9 10 10 9 11 12 12 14 13
REMARK SMILES IDX 13 14
REMARK H PARENT
REMARK Flexibility Score: inf
ROOT
ATOM      1  C   UNL     1       5.631   0.233   2.530  1.00  0.00     0.080 C 
ENDROOT
BRANCH   1   2
ATOM      2  C   UNL     1       4.511   1.064   2.004  1.00  0.00     0.130 C 
ATOM      3  C   UNL     1       4.642   1.844   0.745  1.00  0.00     0.087 C 
ATOM      4  O   UNL     1       3.447   1.128   2.598  1.00  0.00    -0.300 OA
ENDBRANCH   1   2
BRANCH   1   5
ATOM      5  C   UNL     1       5.762  -1.065   1.757  1.00  0.00     0.043 C 
BRANCH   5   6
ATOM      6  C   UNL     1       6.783  -0.970   0.699  1.00  0.00    -0.044 A 
ATOM      7  C   UNL     1       8.020  -0.355   0.926  1.00  0.00     0.008 A 
ATOM      8  C   UNL     1       6.526  -1.497  -0.546  1.00  0.00     0.054 A 
ATOM      9  C   UNL     1       8.940  -0.296  -0.105  1.00  0.00     0.051 A 
ATOM     10  C   UNL     1       7.460  -1.436  -1.585  1.00  0.00     0.166 A 
ATOM     11  C   UNL     1       8.676  -0.830  -1.363  1.00  0.00     0.165 A 
ATOM     12  O   UNL     1       7.443  -1.878  -2.891  1.00  0.00    -0.454 OA
ATOM     13  O   UNL     1       9.389  -0.914  -2.548  1.00  0.00    -0.454 OA
ATOM     14  C   UNL     1       8.680  -1.651  -3.516  1.00  0.00     0.468 C 
ENDBRANCH   5   6
ENDBRANCH   1   5
TORSDOF 3
ENDMDL
