@<TRIPOS>MOLECULE
/home/cewinharhar/GITHUB/reincatalyze/data/processed/docking_pred/2023-May-30-2130_sub9_nm5_bs15_s42_ex16_mel10_mts10000_k50_ec05_g099_lra3e-4_lrc3e-3/ae2b7ca0e57384ee3cd7889808440c06f68d274f_ligand_9.pdbqt
 14 15 0 0 0
SMALL
GASTEIGER

@<TRIPOS>ATOM
      1  C          5.2790   -0.1780    2.3090 C.3     1  UNL1        0.0800
      2  C          4.3700    0.9590    1.9890 C.2     1  UNL1        0.1300
      3  C          4.6540    1.8930    0.8670 C.3     1  UNL1        0.0870
      4  O          3.3600    1.1560    2.6440 O.2     1  UNL1       -0.3000
      5  C          6.7190    0.1590    1.9780 C.3     1  UNL1        0.0430
      6  C          7.2660   -0.7350    0.9420 C.2     1  UNL1       -0.0440
      7  C          7.5780   -2.0710    1.2170 C.2     1  UNL1        0.0080
      8  C          7.4760   -0.2560   -0.3310 C.2     1  UNL1        0.0540
      9  C          8.0870   -2.8640    0.2050 C.2     1  UNL1        0.0510
     10  C          7.9910   -1.0620   -1.3510 C.2     1  UNL1        0.1660
     11  C          8.2990   -2.3760   -1.0810 C.2     1  UNL1        0.1650
     12  O          8.2870   -0.8240   -2.6770 O.2     1  UNL1       -0.4540
     13  O          8.7820   -2.9250   -2.2580 O.2     1  UNL1       -0.4540
     14  C          8.7060   -2.0020   -3.3180 C.3     1  UNL1        0.4680
@<TRIPOS>BOND
     1    14    12    1
     2    14    13    1
     3    12    10    1
     4    13    11    1
     5    10    11    2
     6    10     8    1
     7    11     9    1
     8     8     6    2
     9     9     7    2
    10     3     2    1
    11     6     7    1
    12     6     5    1
    13     5     1    1
    14     2     1    1
    15     2     4    2
