@<TRIPOS>MOLECULE
/home/cewinharhar/GITHUB/reincatalyze/data/processed/docking_pred/2023-May-30-2130_sub9_nm5_bs15_s42_ex16_mel10_mts10000_k50_ec05_g099_lra3e-4_lrc3e-3/ae2b7ca0e57384ee3cd7889808440c06f68d274f_ligand_9.pdbqt
 14 15 0 0 0
SMALL
GASTEIGER

@<TRIPOS>ATOM
      1  C          8.6700   -3.9760   -0.4320 C.3     1  UNL1        0.0800
      2  C          9.2810   -4.8360   -1.4830 C.2     1  UNL1        0.1300
      3  C          8.9580   -6.2840   -1.5930 C.3     1  UNL1        0.0870
      4  O         10.0720   -4.3740   -2.2900 O.2     1  UNL1       -0.3000
      5  C          8.3110   -2.6090   -0.9800 C.3     1  UNL1        0.0430
      6  C          7.4800   -1.8420   -0.0350 C.2     1  UNL1       -0.0440
      7  C          7.4200   -2.1730    1.3240 C.2     1  UNL1        0.0080
      8  C          6.7430   -0.7710   -0.4870 C.2     1  UNL1        0.0540
      9  C          6.6240   -1.4170    2.1640 C.2     1  UNL1        0.0510
     10  C          5.9400   -0.0100    0.3670 C.2     1  UNL1        0.1660
     11  C          5.8790   -0.3350    1.7030 C.2     1  UNL1        0.1650
     12  O          5.1240    1.0830    0.1630 O.2     1  UNL1       -0.4540
     13  O          5.0200    0.5750    2.2990 O.2     1  UNL1       -0.4540
     14  C          4.5900    1.5470    1.3770 C.3     1  UNL1        0.4680
@<TRIPOS>BOND
     1     4     2    2
     2     3     2    1
     3     2     1    1
     4     5     1    1
     5     5     6    1
     6     8     6    2
     7     8    10    1
     8     6     7    1
     9    12    10    1
    10    12    14    1
    11    10    11    2
    12     7     9    2
    13    14    13    1
    14    11     9    1
    15    11    13    1
