@<TRIPOS>MOLECULE
/home/cewinharhar/GITHUB/reincatalyze/data/processed/docking_pred/2023-May-30-2130_sub9_nm5_bs15_s42_ex16_mel10_mts10000_k50_ec05_g099_lra3e-4_lrc3e-3/ae45d061dddc84380b8ad6f9293329cc64ca5b9d_ligand_9.pdbqt
 14 15 0 0 0
SMALL
GASTEIGER

@<TRIPOS>ATOM
      1  C          6.3360    1.2590    0.8710 C.3     1  UNL1        0.0800
      2  C          5.6580    0.4370    1.9130 C.2     1  UNL1        0.1300
      3  C          6.2890   -0.7880    2.4730 C.3     1  UNL1        0.0870
      4  O          4.5580    0.7480    2.3380 O.2     1  UNL1       -0.3000
      5  C          5.8220    0.9230   -0.5150 C.3     1  UNL1        0.0430
      6  C          6.7890    0.1100   -1.2740 C.2     1  UNL1       -0.0440
      7  C          7.5020    0.6390   -2.3560 C.2     1  UNL1        0.0080
      8  C          7.0050   -1.2020   -0.9180 C.2     1  UNL1        0.0540
      9  C          8.3970   -0.1710   -3.0300 C.2     1  UNL1        0.0510
     10  C          7.9110   -2.0170   -1.6030 C.2     1  UNL1        0.1660
     11  C          8.6130   -1.4970   -2.6680 C.2     1  UNL1        0.1650
     12  O          8.2970   -3.3310   -1.4460 O.2     1  UNL1       -0.4540
     13  O          9.4240   -2.5140   -3.1470 O.2     1  UNL1       -0.4540
     14  C          9.3220   -3.6660   -2.3460 C.3     1  UNL1        0.4680
@<TRIPOS>BOND
     1    13    11    1
     2    13    14    1
     3     9    11    2
     4     9     7    1
     5    11    10    1
     6     7     6    2
     7    14    12    1
     8    10    12    1
     9    10     8    2
    10     6     8    1
    11     6     5    1
    12     5     1    1
    13     1     2    1
    14     2     4    2
    15     2     3    1
