@<TRIPOS>MOLECULE
/home/cewinharhar/GITHUB/reincatalyze/data/processed/docking_pred/2023-May-30-2130_sub9_nm5_bs15_s42_ex16_mel10_mts10000_k50_ec05_g099_lra3e-4_lrc3e-3/ae45d061dddc84380b8ad6f9293329cc64ca5b9d_ligand_9.pdbqt
 14 15 0 0 0
SMALL
GASTEIGER

@<TRIPOS>ATOM
      1  C          5.5480    1.8930    1.2940 C.3     1  UNL1        0.0800
      2  C          5.1080    0.6700    2.0210 C.2     1  UNL1        0.1300
      3  C          6.0070   -0.5030    2.1910 C.3     1  UNL1        0.0870
      4  O          3.9880    0.5940    2.5010 O.2     1  UNL1       -0.3000
      5  C          5.4170    1.7190   -0.2060 C.3     1  UNL1        0.0430
      6  C          6.5790    1.0150   -0.7770 C.2     1  UNL1       -0.0440
      7  C          7.8890    1.4420   -0.5300 C.2     1  UNL1        0.0080
      8  C          6.3840   -0.0910   -1.5720 C.2     1  UNL1        0.0540
      9  C          8.9410    0.7410   -1.0920 C.2     1  UNL1        0.0510
     10  C          7.4500   -0.7960   -2.1380 C.2     1  UNL1        0.1660
     11  C          8.7390   -0.3760   -1.8960 C.2     1  UNL1        0.1650
     12  O          7.5150   -1.9080   -2.9510 O.2     1  UNL1       -0.4540
     13  O          9.5780   -1.2490   -2.5720 O.2     1  UNL1       -0.4540
     14  C          8.8480   -2.2880   -3.1790 C.3     1  UNL1        0.4680
@<TRIPOS>BOND
     1    14    12    1
     2    14    13    1
     3    12    10    1
     4    13    11    1
     5    10    11    2
     6    10     8    1
     7    11     9    1
     8     8     6    2
     9     9     7    2
    10     6     7    1
    11     6     5    1
    12     5     1    1
    13     1     2    1
    14     2     3    1
    15     2     4    2
