@<TRIPOS>MOLECULE
/home/cewinharhar/GITHUB/reincatalyze/data/processed/docking_pred/2023-May-30-2130_sub9_nm5_bs15_s42_ex16_mel10_mts10000_k50_ec05_g099_lra3e-4_lrc3e-3/ae45d061dddc84380b8ad6f9293329cc64ca5b9d_ligand_9.pdbqt
 14 15 0 0 0
SMALL
GASTEIGER

@<TRIPOS>ATOM
      1  C          5.7760    1.3640   -0.2560 C.3     1  UNL1        0.0800
      2  C          5.1190    1.2620    1.0780 C.2     1  UNL1        0.1300
      3  C          5.3260    0.0830    1.9610 C.3     1  UNL1        0.0870
      4  O          4.3870    2.1490    1.4860 O.2     1  UNL1       -0.3000
      5  C          7.2620    1.0800   -0.1610 C.3     1  UNL1        0.0430
      6  C          7.6130   -0.2050   -0.7920 C.2     1  UNL1       -0.0440
      7  C          7.6200   -0.3610   -2.1830 C.2     1  UNL1        0.0080
      8  C          7.9460   -1.2830   -0.0040 C.2     1  UNL1        0.0540
      9  C          7.9590   -1.5910   -2.7180 C.2     1  UNL1        0.0510
     10  C          8.2880   -2.5240   -0.5500 C.2     1  UNL1        0.1660
     11  C          8.2950   -2.6790   -1.9180 C.2     1  UNL1        0.1650
     12  O          8.6510   -3.7300    0.0110 O.2     1  UNL1       -0.4540
     13  O          8.6660   -3.9900   -2.1720 O.2     1  UNL1       -0.4540
     14  C          8.9890   -4.6660   -0.9800 C.3     1  UNL1        0.4680
@<TRIPOS>BOND
     1     9     7    1
     2     9    11    2
     3     7     6    2
     4    13    11    1
     5    13    14    1
     6    11    10    1
     7    14    12    1
     8     6     5    1
     9     6     8    1
    10    10     8    2
    11    10    12    1
    12     1     5    1
    13     1     2    1
    14     2     4    2
    15     2     3    1
