@<TRIPOS>MOLECULE
/home/cewinharhar/GITHUB/reincatalyze/data/processed/docking_pred/2023-May-30-2130_sub9_nm5_bs15_s42_ex16_mel10_mts10000_k50_ec05_g099_lra3e-4_lrc3e-3/ae62664a3c9eef67376bdc077c2faa7ac5a69a78_ligand_9.pdbqt
 14 15 0 0 0
SMALL
GASTEIGER

@<TRIPOS>ATOM
      1  C          5.6110    0.2450    2.5250 C.3     1  UNL1        0.0800
      2  C          4.4870    1.0690    2.0000 C.2     1  UNL1        0.1300
      3  C          4.6080    1.8410    0.7350 C.3     1  UNL1        0.0870
      4  O          3.4260    1.1350    2.6000 O.2     1  UNL1       -0.3000
      5  C          5.7480   -1.0530    1.7540 C.3     1  UNL1        0.0430
      6  C          6.7710   -0.9570    0.6980 C.2     1  UNL1       -0.0440
      7  C          8.0130   -0.3560    0.9330 C.2     1  UNL1        0.0080
      8  C          6.5120   -1.4710   -0.5520 C.2     1  UNL1        0.0540
      9  C          8.9350   -0.2950   -0.0960 C.2     1  UNL1        0.0510
     10  C          7.4480   -1.4080   -1.5890 C.2     1  UNL1        0.1660
     11  C          8.6690   -0.8150   -1.3590 C.2     1  UNL1        0.1650
     12  O          7.4290   -1.8370   -2.8990 O.2     1  UNL1       -0.4540
     13  O          9.3830   -0.8940   -2.5440 O.2     1  UNL1       -0.4540
     14  C          8.6690   -1.6150   -3.5200 C.3     1  UNL1        0.4680
@<TRIPOS>BOND
     1    14    12    1
     2    14    13    1
     3    12    10    1
     4    13    11    1
     5    10    11    2
     6    10     8    1
     7    11     9    1
     8     8     6    2
     9     9     7    2
    10     6     7    1
    11     6     5    1
    12     3     2    1
    13     5     1    1
    14     2     1    1
    15     2     4    2
