@<TRIPOS>MOLECULE
/home/cewinharhar/GITHUB/reincatalyze/data/processed/docking_pred/2023-May-30-2130_sub9_nm5_bs15_s42_ex16_mel10_mts10000_k50_ec05_g099_lra3e-4_lrc3e-3/ae62664a3c9eef67376bdc077c2faa7ac5a69a78_ligand_9.pdbqt
 14 15 0 0 0
SMALL
GASTEIGER

@<TRIPOS>ATOM
      1  C          8.7610   -3.9120   -0.3660 C.3     1  UNL1        0.0800
      2  C          9.2800   -4.8080   -1.4370 C.2     1  UNL1        0.1300
      3  C          8.8980   -6.2430   -1.5080 C.3     1  UNL1        0.0870
      4  O         10.0410   -4.3850   -2.2930 O.2     1  UNL1       -0.3000
      5  C          8.3200   -2.5770   -0.9310 C.3     1  UNL1        0.0430
      6  C          7.4790   -1.8310    0.0220 C.2     1  UNL1       -0.0440
      7  C          7.4040   -2.1920    1.3720 C.2     1  UNL1        0.0080
      8  C          6.7470   -0.7510   -0.4150 C.2     1  UNL1        0.0540
      9  C          6.5990   -1.4550    2.2210 C.2     1  UNL1        0.0510
     10  C          5.9340   -0.0080    0.4470 C.2     1  UNL1        0.1660
     11  C          5.8590   -0.3630    1.7760 C.2     1  UNL1        0.1650
     12  O          5.1210    1.0900    0.2590 O.2     1  UNL1       -0.4540
     13  O          4.9940    0.5340    2.3820 O.2     1  UNL1       -0.4540
     14  C          4.5730    1.5260    1.4770 C.3     1  UNL1        0.4680
@<TRIPOS>BOND
     1     4     2    2
     2     3     2    1
     3     2     1    1
     4     5     1    1
     5     5     6    1
     6     8     6    2
     7     8    10    1
     8     6     7    1
     9    12    10    1
    10    12    14    1
    11    10    11    2
    12     7     9    2
    13    14    13    1
    14    11     9    1
    15    11    13    1
