@<TRIPOS>MOLECULE
/home/cewinharhar/GITHUB/reincatalyze/data/processed/docking_pred/2023-May-30-2130_sub9_nm5_bs15_s42_ex16_mel10_mts10000_k50_ec05_g099_lra3e-4_lrc3e-3/ae62664a3c9eef67376bdc077c2faa7ac5a69a78_ligand_9.pdbqt
 14 15 0 0 0
SMALL
GASTEIGER

@<TRIPOS>ATOM
      1  C          8.0350   -1.7600   -2.3300 C.3     1  UNL1        0.0800
      2  C          8.7270   -0.4440   -2.4200 C.2     1  UNL1        0.1300
      3  C          8.1860    0.6680   -3.2480 C.3     1  UNL1        0.0870
      4  O          9.7670   -0.2390   -1.8140 O.2     1  UNL1       -0.3000
      5  C          8.1740   -2.3600   -0.9450 C.3     1  UNL1        0.0430
      6  C          7.3370   -1.6550    0.0430 C.2     1  UNL1       -0.0440
      7  C          7.2720   -2.0690    1.3780 C.2     1  UNL1        0.0080
      8  C          6.5990   -0.5600   -0.3460 C.2     1  UNL1        0.0540
      9  C          6.4700   -1.3680    2.2600 C.2     1  UNL1        0.0510
     10  C          5.7900    0.1450    0.5490 C.2     1  UNL1        0.1660
     11  C          5.7240   -0.2620    1.8630 C.2     1  UNL1        0.1650
     12  O          4.9720    1.2470    0.4100 O.2     1  UNL1       -0.4540
     13  O          4.8600    0.6070    2.5100 O.2     1  UNL1       -0.4540
     14  C          4.4320    1.6340    1.6480 C.3     1  UNL1        0.4680
@<TRIPOS>BOND
     1     3     2    1
     2     2     1    1
     3     2     4    2
     4     1     5    1
     5     5     6    1
     6     8     6    2
     7     8    10    1
     8     6     7    1
     9    12    10    1
    10    12    14    1
    11    10    11    2
    12     7     9    2
    13    14    13    1
    14    11     9    1
    15    11    13    1
