MODEL 1
REMARK VINA RESULT:      -6.7      0.000      0.000
REMARK SMILES CC(=O)CCc1ccc2c(c1)OCO2
REMARK SMILES IDX 4 1 2 2 1 3 3 4 5 5 6 6 7 7 11 8 8 9 10 10 9 11 12 12 14 13
REMARK SMILES IDX 13 14
REMARK H PARENT
REMARK Flexibility Score: inf
ROOT
ATOM      1  C   UNL     1       5.395  -0.271   2.143  1.00  0.00     0.080 C 
ENDROOT
BRANCH   1   2
ATOM      2  C   UNL     1       4.468   0.875   1.926  1.00  0.00     0.130 C 
ATOM      3  C   UNL     1       4.681   1.854   0.827  1.00  0.00     0.087 C 
ATOM      4  O   UNL     1       3.501   1.044   2.651  1.00  0.00    -0.300 OA
ENDBRANCH   1   2
BRANCH   1   5
ATOM      5  C   UNL     1       6.798   0.059   1.674  1.00  0.00     0.043 C 
BRANCH   5   6
ATOM      6  C   UNL     1       7.240  -0.844   0.596  1.00  0.00    -0.044 A 
ATOM      7  C   UNL     1       7.084  -0.507  -0.753  1.00  0.00     0.008 A 
ATOM      8  C   UNL     1       7.824  -2.049   0.913  1.00  0.00     0.054 A 
ATOM      9  C   UNL     1       7.519  -1.394  -1.721  1.00  0.00     0.051 A 
ATOM     10  C   UNL     1       8.263  -2.942  -0.069  1.00  0.00     0.166 A 
ATOM     11  C   UNL     1       8.109  -2.612  -1.397  1.00  0.00     0.165 A 
ATOM     12  O   UNL     1       8.864  -4.182  -0.011  1.00  0.00    -0.454 OA
ATOM     13  O   UNL     1       8.625  -3.666  -2.135  1.00  0.00    -0.454 OA
ATOM     14  C   UNL     1       9.196  -4.641  -1.296  1.00  0.00     0.468 C 
ENDBRANCH   5   6
ENDBRANCH   1   5
TORSDOF 3
ENDMDL
MODEL 2
REMARK VINA RESULT:      -6.0      1.037      1.965
REMARK SMILES CC(=O)CCc1ccc2c(c1)OCO2
REMARK SMILES IDX 4 1 2 2 1 3 3 4 5 5 6 6 7 7 11 8 8 9 10 10 9 11 12 12 14 13
REMARK SMILES IDX 13 14
REMARK H PARENT
REMARK Flexibility Score: inf
ROOT
ATOM      1  C   UNL     1       5.279  -0.178   2.309  1.00  0.00     0.080 C 
ENDROOT
BRANCH   1   2
ATOM      2  C   UNL     1       4.370   0.959   1.989  1.00  0.00     0.130 C 
ATOM      3  C   UNL     1       4.654   1.893   0.867  1.00  0.00     0.087 C 
ATOM      4  O   UNL     1       3.360   1.156   2.644  1.00  0.00    -0.300 OA
ENDBRANCH   1   2
BRANCH   1   5
ATOM      5  C   UNL     1       6.719   0.159   1.978  1.00  0.00     0.043 C 
BRANCH   5   6
ATOM      6  C   UNL     1       7.266  -0.735   0.942  1.00  0.00    -0.044 A 
ATOM      7  C   UNL     1       7.578  -2.071   1.217  1.00  0.00     0.008 A 
ATOM      8  C   UNL     1       7.476  -0.256  -0.331  1.00  0.00     0.054 A 
ATOM      9  C   UNL     1       8.087  -2.864   0.205  1.00  0.00     0.051 A 
ATOM     10  C   UNL     1       7.991  -1.062  -1.351  1.00  0.00     0.166 A 
ATOM     11  C   UNL     1       8.299  -2.376  -1.081  1.00  0.00     0.165 A 
ATOM     12  O   UNL     1       8.287  -0.824  -2.677  1.00  0.00    -0.454 OA
ATOM     13  O   UNL     1       8.782  -2.925  -2.258  1.00  0.00    -0.454 OA
ATOM     14  C   UNL     1       8.706  -2.002  -3.318  1.00  0.00     0.468 C 
ENDBRANCH   5   6
ENDBRANCH   1   5
TORSDOF 3
ENDMDL
MODEL 3
REMARK VINA RESULT:      -5.9      1.342      6.116
REMARK SMILES CC(=O)CCc1ccc2c(c1)OCO2
REMARK SMILES IDX 4 1 2 2 1 3 3 4 5 5 6 6 7 7 11 8 8 9 10 10 9 11 12 12 14 13
REMARK SMILES IDX 13 14
REMARK H PARENT
REMARK Flexibility Score: inf
ROOT
ATOM      1  C   UNL     1       8.761  -3.912  -0.366  1.00  0.00     0.080 C 
ENDROOT
BRANCH   1   2
ATOM      2  C   UNL     1       9.280  -4.808  -1.437  1.00  0.00     0.130 C 
ATOM      3  C   UNL     1       8.898  -6.243  -1.508  1.00  0.00     0.087 C 
ATOM      4  O   UNL     1      10.041  -4.385  -2.293  1.00  0.00    -0.300 OA
ENDBRANCH   1   2
BRANCH   1   5
ATOM      5  C   UNL     1       8.320  -2.577  -0.931  1.00  0.00     0.043 C 
BRANCH   5   6
ATOM      6  C   UNL     1       7.479  -1.831   0.022  1.00  0.00    -0.044 A 
ATOM      7  C   UNL     1       7.404  -2.192   1.372  1.00  0.00     0.008 A 
ATOM      8  C   UNL     1       6.747  -0.751  -0.415  1.00  0.00     0.054 A 
ATOM      9  C   UNL     1       6.599  -1.455   2.221  1.00  0.00     0.051 A 
ATOM     10  C   UNL     1       5.934  -0.008   0.447  1.00  0.00     0.166 A 
ATOM     11  C   UNL     1       5.859  -0.363   1.776  1.00  0.00     0.165 A 
ATOM     12  O   UNL     1       5.121   1.090   0.259  1.00  0.00    -0.454 OA
ATOM     13  O   UNL     1       4.994   0.534   2.382  1.00  0.00    -0.454 OA
ATOM     14  C   UNL     1       4.573   1.526   1.477  1.00  0.00     0.468 C 
ENDBRANCH   5   6
ENDBRANCH   1   5
TORSDOF 3
ENDMDL
MODEL 4
REMARK VINA RESULT:      -5.9      1.855      5.421
REMARK SMILES CC(=O)CCc1ccc2c(c1)OCO2
REMARK SMILES IDX 4 1 2 2 1 3 3 4 5 5 6 6 7 7 11 8 8 9 10 10 9 11 12 12 14 13
REMARK SMILES IDX 13 14
REMARK H PARENT
REMARK Flexibility Score: inf
ROOT
ATOM      1  C   UNL     1       8.035  -1.760  -2.330  1.00  0.00     0.080 C 
ENDROOT
BRANCH   1   2
ATOM      2  C   UNL     1       8.727  -0.444  -2.420  1.00  0.00     0.130 C 
ATOM      3  C   UNL     1       8.186   0.668  -3.248  1.00  0.00     0.087 C 
ATOM      4  O   UNL     1       9.767  -0.239  -1.814  1.00  0.00    -0.300 OA
ENDBRANCH   1   2
BRANCH   1   5
ATOM      5  C   UNL     1       8.174  -2.360  -0.945  1.00  0.00     0.043 C 
BRANCH   5   6
ATOM      6  C   UNL     1       7.337  -1.655   0.043  1.00  0.00    -0.044 A 
ATOM      7  C   UNL     1       7.272  -2.069   1.378  1.00  0.00     0.008 A 
ATOM      8  C   UNL     1       6.599  -0.560  -0.346  1.00  0.00     0.054 A 
ATOM      9  C   UNL     1       6.470  -1.368   2.260  1.00  0.00     0.051 A 
ATOM     10  C   UNL     1       5.790   0.145   0.549  1.00  0.00     0.166 A 
ATOM     11  C   UNL     1       5.724  -0.262   1.863  1.00  0.00     0.165 A 
ATOM     12  O   UNL     1       4.972   1.247   0.410  1.00  0.00    -0.454 OA
ATOM     13  O   UNL     1       4.860   0.607   2.510  1.00  0.00    -0.454 OA
ATOM     14  C   UNL     1       4.432   1.634   1.648  1.00  0.00     0.468 C 
ENDBRANCH   5   6
ENDBRANCH   1   5
TORSDOF 3
ENDMDL
MODEL 5
REMARK VINA RESULT:      -5.8      1.862      2.146
REMARK SMILES CC(=O)CCc1ccc2c(c1)OCO2
REMARK SMILES IDX 4 1 2 2 1 3 3 4 5 5 6 6 7 7 11 8 8 9 10 10 9 11 12 12 14 13
REMARK SMILES IDX 13 14
REMARK H PARENT
REMARK Flexibility Score: inf
ROOT
ATOM      1  C   UNL     1       5.611   0.245   2.525  1.00  0.00     0.080 C 
ENDROOT
BRANCH   1   2
ATOM      2  C   UNL     1       4.487   1.069   2.000  1.00  0.00     0.130 C 
ATOM      3  C   UNL     1       4.608   1.841   0.735  1.00  0.00     0.087 C 
ATOM      4  O   UNL     1       3.426   1.135   2.600  1.00  0.00    -0.300 OA
ENDBRANCH   1   2
BRANCH   1   5
ATOM      5  C   UNL     1       5.748  -1.053   1.754  1.00  0.00     0.043 C 
BRANCH   5   6
ATOM      6  C   UNL     1       6.771  -0.957   0.698  1.00  0.00    -0.044 A 
ATOM      7  C   UNL     1       8.013  -0.356   0.933  1.00  0.00     0.008 A 
ATOM      8  C   UNL     1       6.512  -1.471  -0.552  1.00  0.00     0.054 A 
ATOM      9  C   UNL     1       8.935  -0.295  -0.096  1.00  0.00     0.051 A 
ATOM     10  C   UNL     1       7.448  -1.408  -1.589  1.00  0.00     0.166 A 
ATOM     11  C   UNL     1       8.669  -0.815  -1.359  1.00  0.00     0.165 A 
ATOM     12  O   UNL     1       7.429  -1.837  -2.899  1.00  0.00    -0.454 OA
ATOM     13  O   UNL     1       9.383  -0.894  -2.544  1.00  0.00    -0.454 OA
ATOM     14  C   UNL     1       8.669  -1.615  -3.520  1.00  0.00     0.468 C 
ENDBRANCH   5   6
ENDBRANCH   1   5
TORSDOF 3
ENDMDL
