@<TRIPOS>MOLECULE
/home/cewinharhar/GITHUB/reincatalyze/data/processed/docking_pred/2023-May-30-2130_sub9_nm5_bs15_s42_ex16_mel10_mts10000_k50_ec05_g099_lra3e-4_lrc3e-3/ae62664a3c9eef67376bdc077c2faa7ac5a69a78_ligand_9.pdbqt
 14 15 0 0 0
SMALL
GASTEIGER

@<TRIPOS>ATOM
      1  C          5.3950   -0.2710    2.1430 C.3     1  UNL1        0.0800
      2  C          4.4680    0.8750    1.9260 C.2     1  UNL1        0.1300
      3  C          4.6810    1.8540    0.8270 C.3     1  UNL1        0.0870
      4  O          3.5010    1.0440    2.6510 O.2     1  UNL1       -0.3000
      5  C          6.7980    0.0590    1.6740 C.3     1  UNL1        0.0430
      6  C          7.2400   -0.8440    0.5960 C.2     1  UNL1       -0.0440
      7  C          7.0840   -0.5070   -0.7530 C.2     1  UNL1        0.0080
      8  C          7.8240   -2.0490    0.9130 C.2     1  UNL1        0.0540
      9  C          7.5190   -1.3940   -1.7210 C.2     1  UNL1        0.0510
     10  C          8.2630   -2.9420   -0.0690 C.2     1  UNL1        0.1660
     11  C          8.1090   -2.6120   -1.3970 C.2     1  UNL1        0.1650
     12  O          8.8640   -4.1820   -0.0110 O.2     1  UNL1       -0.4540
     13  O          8.6250   -3.6660   -2.1350 O.2     1  UNL1       -0.4540
     14  C          9.1960   -4.6410   -1.2960 C.3     1  UNL1        0.4680
@<TRIPOS>BOND
     1    13    11    1
     2    13    14    1
     3     9    11    2
     4     9     7    1
     5    11    10    1
     6    14    12    1
     7     7     6    2
     8    10    12    1
     9    10     8    2
    10     6     8    1
    11     6     5    1
    12     3     2    1
    13     5     1    1
    14     2     1    1
    15     2     4    2
