@<TRIPOS>MOLECULE
/home/cewinharhar/GITHUB/reincatalyze/data/processed/docking_pred/2023-May-30-2130_sub9_nm5_bs15_s42_ex16_mel10_mts10000_k50_ec05_g099_lra3e-4_lrc3e-3/af895cae38f50b8ad608cacdd29f7ae1ddca485c_ligand_9.pdbqt
 14 15 0 0 0
SMALL
GASTEIGER

@<TRIPOS>ATOM
      1  C          5.4110   -0.0600    2.0140 C.3     1  UNL1        0.0800
      2  C          4.5710    1.1440    1.7660 C.2     1  UNL1        0.1300
      3  C          4.9130    2.1300    0.7070 C.3     1  UNL1        0.0870
      4  O          3.5700    1.3570    2.4320 O.2     1  UNL1       -0.3000
      5  C          6.8520    0.1810    1.6100 C.3     1  UNL1        0.0430
      6  C          7.2830   -0.7420    0.5450 C.2     1  UNL1       -0.0440
      7  C          7.1630   -0.4070   -0.8090 C.2     1  UNL1        0.0080
      8  C          7.8210   -1.9640    0.8780 C.2     1  UNL1        0.0540
      9  C          7.5850   -1.3130   -1.7640 C.2     1  UNL1        0.0510
     10  C          8.2470   -2.8770   -0.0920 C.2     1  UNL1        0.1660
     11  C          8.1270   -2.5480   -1.4240 C.2     1  UNL1        0.1650
     12  O          8.8040   -4.1350   -0.0180 O.2     1  UNL1       -0.4540
     13  O          8.6210   -3.6230   -2.1470 O.2     1  UNL1       -0.4540
     14  C          9.1440   -4.6130   -1.2940 C.3     1  UNL1        0.4680
@<TRIPOS>BOND
     1    13    11    1
     2    13    14    1
     3     9    11    2
     4     9     7    1
     5    11    10    1
     6    14    12    1
     7     7     6    2
     8    10    12    1
     9    10     8    2
    10     6     8    1
    11     6     5    1
    12     3     2    1
    13     5     1    1
    14     2     1    1
    15     2     4    2
