@<TRIPOS>MOLECULE
/home/cewinharhar/GITHUB/reincatalyze/data/processed/docking_pred/2023-May-30-2130_sub9_nm5_bs15_s42_ex16_mel10_mts10000_k50_ec05_g099_lra3e-4_lrc3e-3/af895cae38f50b8ad608cacdd29f7ae1ddca485c_ligand_9.pdbqt
 14 15 0 0 0
SMALL
GASTEIGER

@<TRIPOS>ATOM
      1  C          6.4090    1.2170    0.9350 C.3     1  UNL1        0.0800
      2  C          5.6880    0.3690    1.9250 C.2     1  UNL1        0.1300
      3  C          6.3060   -0.8550    2.5020 C.3     1  UNL1        0.0870
      4  O          4.5600    0.6570    2.2920 O.2     1  UNL1       -0.3000
      5  C          5.9060    0.9680   -0.4730 C.3     1  UNL1        0.0430
      6  C          6.8360    0.1240   -1.2440 C.2     1  UNL1       -0.0440
      7  C          7.5180    0.6170   -2.3630 C.2     1  UNL1        0.0080
      8  C          7.0480   -1.1810   -0.8640 C.2     1  UNL1        0.0540
      9  C          8.3790   -0.2210   -3.0470 C.2     1  UNL1        0.0510
     10  C          7.9200   -2.0250   -1.5590 C.2     1  UNL1        0.1660
     11  C          8.5910   -1.5400   -2.6600 C.2     1  UNL1        0.1650
     12  O          8.2950   -3.3400   -1.3830 O.2     1  UNL1       -0.4540
     13  O          9.3720   -2.5790   -3.1410 O.2     1  UNL1       -0.4540
     14  C          9.2850   -3.7100   -2.3080 C.3     1  UNL1        0.4680
@<TRIPOS>BOND
     1    13    11    1
     2    13    14    1
     3     9    11    2
     4     9     7    1
     5    11    10    1
     6     7     6    2
     7    14    12    1
     8    10    12    1
     9    10     8    2
    10     6     8    1
    11     6     5    1
    12     5     1    1
    13     1     2    1
    14     2     4    2
    15     2     3    1
