MODEL 1
REMARK VINA RESULT:      -7.7      0.000      0.000
REMARK SMILES CC(=O)CCc1ccc2c(c1)OCO2
REMARK SMILES IDX 4 1 2 2 1 3 3 4 5 5 6 6 7 7 11 8 8 9 10 10 9 11 12 12 14 13
REMARK SMILES IDX 13 14
REMARK H PARENT
REMARK Flexibility Score: inf
ROOT
ATOM      1  C   UNL     1       5.518   1.920   1.268  1.00  0.00     0.080 C 
ENDROOT
BRANCH   1   2
ATOM      2  C   UNL     1       5.070   0.703   2.002  1.00  0.00     0.130 C 
ATOM      3  C   UNL     1       5.954  -0.482   2.161  1.00  0.00     0.087 C 
ATOM      4  O   UNL     1       3.956   0.644   2.496  1.00  0.00    -0.300 OA
ENDBRANCH   1   2
BRANCH   1   5
ATOM      5  C   UNL     1       5.395   1.736  -0.231  1.00  0.00     0.043 C 
BRANCH   5   6
ATOM      6  C   UNL     1       6.562   1.034  -0.793  1.00  0.00    -0.044 A 
ATOM      7  C   UNL     1       7.869   1.469  -0.546  1.00  0.00     0.008 A 
ATOM      8  C   UNL     1       6.374  -0.080  -1.580  1.00  0.00     0.054 A 
ATOM      9  C   UNL     1       8.926   0.770  -1.100  1.00  0.00     0.051 A 
ATOM     10  C   UNL     1       7.446  -0.784  -2.137  1.00  0.00     0.166 A 
ATOM     11  C   UNL     1       8.732  -0.355  -1.895  1.00  0.00     0.165 A 
ATOM     12  O   UNL     1       7.520  -1.902  -2.941  1.00  0.00    -0.454 OA
ATOM     13  O   UNL     1       9.578  -1.228  -2.562  1.00  0.00    -0.454 OA
ATOM     14  C   UNL     1       8.856  -2.276  -3.162  1.00  0.00     0.468 C 
ENDBRANCH   5   6
ENDBRANCH   1   5
TORSDOF 3
ENDMDL
MODEL 2
REMARK VINA RESULT:      -7.5      1.943      2.419
REMARK SMILES CC(=O)CCc1ccc2c(c1)OCO2
REMARK SMILES IDX 4 1 2 2 1 3 3 4 5 5 6 6 7 7 11 8 8 9 10 10 9 11 12 12 14 13
REMARK SMILES IDX 13 14
REMARK H PARENT
REMARK Flexibility Score: inf
ROOT
ATOM      1  C   UNL     1       5.746   1.307  -0.301  1.00  0.00     0.080 C 
ENDROOT
BRANCH   1   2
ATOM      2  C   UNL     1       5.125   1.246   1.051  1.00  0.00     0.130 C 
ATOM      3  C   UNL     1       5.348   0.092   1.962  1.00  0.00     0.087 C 
ATOM      4  O   UNL     1       4.409   2.150   1.453  1.00  0.00    -0.300 OA
ENDBRANCH   1   2
BRANCH   1   5
ATOM      5  C   UNL     1       7.239   1.054  -0.233  1.00  0.00     0.043 C 
BRANCH   5   6
ATOM      6  C   UNL     1       7.604  -0.236  -0.845  1.00  0.00    -0.044 A 
ATOM      7  C   UNL     1       7.634  -0.405  -2.234  1.00  0.00     0.008 A 
ATOM      8  C   UNL     1       7.927  -1.306  -0.042  1.00  0.00     0.054 A 
ATOM      9  C   UNL     1       7.985  -1.639  -2.752  1.00  0.00     0.051 A 
ATOM     10  C   UNL     1       8.282  -2.550  -0.570  1.00  0.00     0.166 A 
ATOM     11  C   UNL     1       8.310  -2.718  -1.937  1.00  0.00     0.165 A 
ATOM     12  O   UNL     1       8.638  -3.750   0.008  1.00  0.00    -0.454 OA
ATOM     13  O   UNL     1       8.689  -4.031  -2.172  1.00  0.00    -0.454 OA
ATOM     14  C   UNL     1       8.995  -4.694  -0.969  1.00  0.00     0.468 C 
ENDBRANCH   5   6
ENDBRANCH   1   5
TORSDOF 3
ENDMDL
MODEL 3
REMARK VINA RESULT:      -7.3      2.058      2.638
REMARK SMILES CC(=O)CCc1ccc2c(c1)OCO2
REMARK SMILES IDX 4 1 2 2 1 3 3 4 5 5 6 6 7 7 11 8 8 9 10 10 9 11 12 12 14 13
REMARK SMILES IDX 13 14
REMARK H PARENT
REMARK Flexibility Score: inf
ROOT
ATOM      1  C   UNL     1       5.405  -0.081   2.012  1.00  0.00     0.080 C 
ENDROOT
BRANCH   1   2
ATOM      2  C   UNL     1       4.580   1.136   1.775  1.00  0.00     0.130 C 
ATOM      3  C   UNL     1       4.930   2.123   0.718  1.00  0.00     0.087 C 
ATOM      4  O   UNL     1       3.585   1.360   2.446  1.00  0.00    -0.300 OA
ENDBRANCH   1   2
BRANCH   1   5
ATOM      5  C   UNL     1       6.852   0.151   1.625  1.00  0.00     0.043 C 
BRANCH   5   6
ATOM      6  C   UNL     1       7.284  -0.764   0.554  1.00  0.00    -0.044 A 
ATOM      7  C   UNL     1       7.163  -0.420  -0.797  1.00  0.00     0.008 A 
ATOM      8  C   UNL     1       7.824  -1.988   0.879  1.00  0.00     0.054 A 
ATOM      9  C   UNL     1       7.587  -1.319  -1.759  1.00  0.00     0.051 A 
ATOM     10  C   UNL     1       8.251  -2.893  -0.098  1.00  0.00     0.166 A 
ATOM     11  C   UNL     1       8.131  -2.556  -1.428  1.00  0.00     0.165 A 
ATOM     12  O   UNL     1       8.811  -4.151  -0.032  1.00  0.00    -0.454 OA
ATOM     13  O   UNL     1       8.626  -3.624  -2.158  1.00  0.00    -0.454 OA
ATOM     14  C   UNL     1       9.151  -4.619  -1.312  1.00  0.00     0.468 C 
ENDBRANCH   5   6
ENDBRANCH   1   5
TORSDOF 3
ENDMDL
MODEL 4
REMARK VINA RESULT:      -7.1      1.258      1.475
REMARK SMILES CC(=O)CCc1ccc2c(c1)OCO2
REMARK SMILES IDX 4 1 2 2 1 3 3 4 5 5 6 6 7 7 11 8 8 9 10 10 9 11 12 12 14 13
REMARK SMILES IDX 13 14
REMARK H PARENT
REMARK Flexibility Score: inf
ROOT
ATOM      1  C   UNL     1       6.410   1.203   0.936  1.00  0.00     0.080 C 
ENDROOT
BRANCH   1   2
ATOM      2  C   UNL     1       5.683   0.361   1.927  1.00  0.00     0.130 C 
ATOM      3  C   UNL     1       6.288  -0.872   2.498  1.00  0.00     0.087 C 
ATOM      4  O   UNL     1       4.561   0.663   2.302  1.00  0.00    -0.300 OA
ENDBRANCH   1   2
BRANCH   1   5
ATOM      5  C   UNL     1       5.905   0.956  -0.471  1.00  0.00     0.043 C 
BRANCH   5   6
ATOM      6  C   UNL     1       6.836   0.117  -1.247  1.00  0.00    -0.044 A 
ATOM      7  C   UNL     1       7.516   0.617  -2.364  1.00  0.00     0.008 A 
ATOM      8  C   UNL     1       7.052  -1.189  -0.872  1.00  0.00     0.054 A 
ATOM      9  C   UNL     1       8.379  -0.216  -3.053  1.00  0.00     0.051 A 
ATOM     10  C   UNL     1       7.926  -2.027  -1.571  1.00  0.00     0.166 A 
ATOM     11  C   UNL     1       8.594  -1.536  -2.671  1.00  0.00     0.165 A 
ATOM     12  O   UNL     1       8.305  -3.342  -1.401  1.00  0.00    -0.454 OA
ATOM     13  O   UNL     1       9.379  -2.570  -3.157  1.00  0.00    -0.454 OA
ATOM     14  C   UNL     1       9.294  -3.706  -2.329  1.00  0.00     0.468 C 
ENDBRANCH   5   6
ENDBRANCH   1   5
TORSDOF 3
ENDMDL
MODEL 5
REMARK VINA RESULT:      -7.0      1.954      2.540
REMARK SMILES CC(=O)CCc1ccc2c(c1)OCO2
REMARK SMILES IDX 4 1 2 2 1 3 3 4 5 5 6 6 7 7 11 8 8 9 10 10 9 11 12 12 14 13
REMARK SMILES IDX 13 14
REMARK H PARENT
REMARK Flexibility Score: inf
ROOT
ATOM      1  C   UNL     1       6.968   0.941   1.237  1.00  0.00     0.080 C 
ENDROOT
BRANCH   1   2
ATOM      2  C   UNL     1       5.515   1.210   1.423  1.00  0.00     0.130 C 
ATOM      3  C   UNL     1       4.775   2.150   0.539  1.00  0.00     0.087 C 
ATOM      4  O   UNL     1       4.885   0.663   2.314  1.00  0.00    -0.300 OA
ENDBRANCH   1   2
BRANCH   1   5
ATOM      5  C   UNL     1       7.373   1.088  -0.216  1.00  0.00     0.043 C 
BRANCH   5   6
ATOM      6  C   UNL     1       7.679  -0.215  -0.833  1.00  0.00    -0.044 A 
ATOM      7  C   UNL     1       7.657  -0.392  -2.221  1.00  0.00     0.008 A 
ATOM      8  C   UNL     1       7.997  -1.290  -0.034  1.00  0.00     0.054 A 
ATOM      9  C   UNL     1       7.953  -1.638  -2.744  1.00  0.00     0.051 A 
ATOM     10  C   UNL     1       8.296  -2.547  -0.568  1.00  0.00     0.166 A 
ATOM     11  C   UNL     1       8.274  -2.723  -1.933  1.00  0.00     0.165 A 
ATOM     12  O   UNL     1       8.636  -3.754   0.006  1.00  0.00    -0.454 OA
ATOM     13  O   UNL     1       8.605  -4.047  -2.173  1.00  0.00    -0.454 OA
ATOM     14  C   UNL     1       8.931  -4.714  -0.977  1.00  0.00     0.468 C 
ENDBRANCH   5   6
ENDBRANCH   1   5
TORSDOF 3
ENDMDL
