@<TRIPOS>MOLECULE
/home/cewinharhar/GITHUB/reincatalyze/data/processed/docking_pred/2023-May-30-2130_sub9_nm5_bs15_s42_ex16_mel10_mts10000_k50_ec05_g099_lra3e-4_lrc3e-3/af9628f04dddfdfce7c60ac864c84e5664a7a69f_ligand_9.pdbqt
 14 15 0 0 0
SMALL
GASTEIGER

@<TRIPOS>ATOM
      1  C          6.4100    1.2030    0.9360 C.3     1  UNL1        0.0800
      2  C          5.6830    0.3610    1.9270 C.2     1  UNL1        0.1300
      3  C          6.2880   -0.8720    2.4980 C.3     1  UNL1        0.0870
      4  O          4.5610    0.6630    2.3020 O.2     1  UNL1       -0.3000
      5  C          5.9050    0.9560   -0.4710 C.3     1  UNL1        0.0430
      6  C          6.8360    0.1170   -1.2470 C.2     1  UNL1       -0.0440
      7  C          7.5160    0.6170   -2.3640 C.2     1  UNL1        0.0080
      8  C          7.0520   -1.1890   -0.8720 C.2     1  UNL1        0.0540
      9  C          8.3790   -0.2160   -3.0530 C.2     1  UNL1        0.0510
     10  C          7.9260   -2.0270   -1.5710 C.2     1  UNL1        0.1660
     11  C          8.5940   -1.5360   -2.6710 C.2     1  UNL1        0.1650
     12  O          8.3050   -3.3420   -1.4010 O.2     1  UNL1       -0.4540
     13  O          9.3790   -2.5700   -3.1570 O.2     1  UNL1       -0.4540
     14  C          9.2940   -3.7060   -2.3290 C.3     1  UNL1        0.4680
@<TRIPOS>BOND
     1    13    11    1
     2    13    14    1
     3     9    11    2
     4     9     7    1
     5    11    10    1
     6     7     6    2
     7    14    12    1
     8    10    12    1
     9    10     8    2
    10     6     8    1
    11     6     5    1
    12     5     1    1
    13     1     2    1
    14     2     4    2
    15     2     3    1
