@<TRIPOS>MOLECULE
/home/cewinharhar/GITHUB/reincatalyze/data/processed/docking_pred/2023-May-30-2130_sub9_nm5_bs15_s42_ex16_mel10_mts10000_k50_ec05_g099_lra3e-4_lrc3e-3/af9628f04dddfdfce7c60ac864c84e5664a7a69f_ligand_9.pdbqt
 14 15 0 0 0
SMALL
GASTEIGER

@<TRIPOS>ATOM
      1  C          5.7460    1.3070   -0.3010 C.3     1  UNL1        0.0800
      2  C          5.1250    1.2460    1.0510 C.2     1  UNL1        0.1300
      3  C          5.3480    0.0920    1.9620 C.3     1  UNL1        0.0870
      4  O          4.4090    2.1500    1.4530 O.2     1  UNL1       -0.3000
      5  C          7.2390    1.0540   -0.2330 C.3     1  UNL1        0.0430
      6  C          7.6040   -0.2360   -0.8450 C.2     1  UNL1       -0.0440
      7  C          7.6340   -0.4050   -2.2340 C.2     1  UNL1        0.0080
      8  C          7.9270   -1.3060   -0.0420 C.2     1  UNL1        0.0540
      9  C          7.9850   -1.6390   -2.7520 C.2     1  UNL1        0.0510
     10  C          8.2820   -2.5500   -0.5700 C.2     1  UNL1        0.1660
     11  C          8.3100   -2.7180   -1.9370 C.2     1  UNL1        0.1650
     12  O          8.6380   -3.7500    0.0080 O.2     1  UNL1       -0.4540
     13  O          8.6890   -4.0310   -2.1720 O.2     1  UNL1       -0.4540
     14  C          8.9950   -4.6940   -0.9690 C.3     1  UNL1        0.4680
@<TRIPOS>BOND
     1     9     7    1
     2     9    11    2
     3     7     6    2
     4    13    11    1
     5    13    14    1
     6    11    10    1
     7    14    12    1
     8     6     5    1
     9     6     8    1
    10    10     8    2
    11    10    12    1
    12     1     5    1
    13     1     2    1
    14     2     4    2
    15     2     3    1
