@<TRIPOS>MOLECULE
/home/cewinharhar/GITHUB/reincatalyze/data/processed/docking_pred/2023-May-30-2130_sub9_nm5_bs15_s42_ex16_mel10_mts10000_k50_ec05_g099_lra3e-4_lrc3e-3/af9628f04dddfdfce7c60ac864c84e5664a7a69f_ligand_9.pdbqt
 14 15 0 0 0
SMALL
GASTEIGER

@<TRIPOS>ATOM
      1  C          5.4050   -0.0810    2.0120 C.3     1  UNL1        0.0800
      2  C          4.5800    1.1360    1.7750 C.2     1  UNL1        0.1300
      3  C          4.9300    2.1230    0.7180 C.3     1  UNL1        0.0870
      4  O          3.5850    1.3600    2.4460 O.2     1  UNL1       -0.3000
      5  C          6.8520    0.1510    1.6250 C.3     1  UNL1        0.0430
      6  C          7.2840   -0.7640    0.5540 C.2     1  UNL1       -0.0440
      7  C          7.1630   -0.4200   -0.7970 C.2     1  UNL1        0.0080
      8  C          7.8240   -1.9880    0.8790 C.2     1  UNL1        0.0540
      9  C          7.5870   -1.3190   -1.7590 C.2     1  UNL1        0.0510
     10  C          8.2510   -2.8930   -0.0980 C.2     1  UNL1        0.1660
     11  C          8.1310   -2.5560   -1.4280 C.2     1  UNL1        0.1650
     12  O          8.8110   -4.1510   -0.0320 O.2     1  UNL1       -0.4540
     13  O          8.6260   -3.6240   -2.1580 O.2     1  UNL1       -0.4540
     14  C          9.1510   -4.6190   -1.3120 C.3     1  UNL1        0.4680
@<TRIPOS>BOND
     1    13    11    1
     2    13    14    1
     3     9    11    2
     4     9     7    1
     5    11    10    1
     6    14    12    1
     7     7     6    2
     8    10    12    1
     9    10     8    2
    10     6     8    1
    11     6     5    1
    12     3     2    1
    13     5     1    1
    14     2     1    1
    15     2     4    2
