@<TRIPOS>MOLECULE
/home/cewinharhar/GITHUB/reincatalyze/data/processed/docking_pred/2023-May-30-2130_sub9_nm5_bs15_s42_ex16_mel10_mts10000_k50_ec05_g099_lra3e-4_lrc3e-3/b0dbf451e4e891e0fb60bf6ca530f921e690d9da_ligand_9.pdbqt
 14 15 0 0 0
SMALL
GASTEIGER

@<TRIPOS>ATOM
      1  C          5.7520    1.4110   -0.2600 C.3     1  UNL1        0.0800
      2  C          5.0950    1.2970    1.0720 C.2     1  UNL1        0.1300
      3  C          5.3680    0.1510    1.9810 C.3     1  UNL1        0.0870
      4  O          4.3080    2.1460    1.4580 O.2     1  UNL1       -0.3000
      5  C          7.2400    1.1390   -0.1650 C.3     1  UNL1        0.0430
      6  C          7.6010   -0.1470   -0.7870 C.2     1  UNL1       -0.0440
      7  C          7.6450   -0.3030   -2.1770 C.2     1  UNL1        0.0080
      8  C          7.9070   -1.2280    0.0090 C.2     1  UNL1        0.0540
      9  C          7.9920   -1.5340   -2.7040 C.2     1  UNL1        0.0510
     10  C          8.2570   -2.4700   -0.5280 C.2     1  UNL1        0.1660
     11  C          8.2990   -2.6240   -1.8960 C.2     1  UNL1        0.1650
     12  O          8.5970   -3.6780    0.0420 O.2     1  UNL1       -0.4540
     13  O          8.6700   -3.9380   -2.1400 O.2     1  UNL1       -0.4540
     14  C          8.9570   -4.6160   -0.9400 C.3     1  UNL1        0.4680
@<TRIPOS>BOND
     1     9     7    1
     2     9    11    2
     3     7     6    2
     4    13    11    1
     5    13    14    1
     6    11    10    1
     7    14    12    1
     8     6     5    1
     9     6     8    1
    10    10     8    2
    11    10    12    1
    12     1     5    1
    13     1     2    1
    14     2     4    2
    15     2     3    1
