MODEL 1
REMARK VINA RESULT:      -7.6      0.000      0.000
REMARK SMILES CC(=O)CCc1ccc2c(c1)OCO2
REMARK SMILES IDX 4 1 2 2 1 3 3 4 5 5 6 6 7 7 11 8 8 9 10 10 9 11 12 12 14 13
REMARK SMILES IDX 13 14
REMARK H PARENT
REMARK Flexibility Score: inf
ROOT
ATOM      1  C   UNL     1       5.562   1.906   1.292  1.00  0.00     0.080 C 
ENDROOT
BRANCH   1   2
ATOM      2  C   UNL     1       5.113   0.689   2.024  1.00  0.00     0.130 C 
ATOM      3  C   UNL     1       6.002  -0.491   2.197  1.00  0.00     0.087 C 
ATOM      4  O   UNL     1       3.994   0.625   2.506  1.00  0.00    -0.300 OA
ENDBRANCH   1   2
BRANCH   1   5
ATOM      5  C   UNL     1       5.426   1.728  -0.207  1.00  0.00     0.043 C 
BRANCH   5   6
ATOM      6  C   UNL     1       6.587   1.026  -0.782  1.00  0.00    -0.044 A 
ATOM      7  C   UNL     1       7.897   1.460  -0.546  1.00  0.00     0.008 A 
ATOM      8  C   UNL     1       6.391  -0.086  -1.569  1.00  0.00     0.054 A 
ATOM      9  C   UNL     1       8.948   0.761  -1.112  1.00  0.00     0.051 A 
ATOM     10  C   UNL     1       7.457  -0.790  -2.138  1.00  0.00     0.166 A 
ATOM     11  C   UNL     1       8.745  -0.363  -1.907  1.00  0.00     0.165 A 
ATOM     12  O   UNL     1       7.522  -1.906  -2.944  1.00  0.00    -0.454 OA
ATOM     13  O   UNL     1       9.584  -1.236  -2.583  1.00  0.00    -0.454 OA
ATOM     14  C   UNL     1       8.855  -2.282  -3.179  1.00  0.00     0.468 C 
ENDBRANCH   5   6
ENDBRANCH   1   5
TORSDOF 3
ENDMDL
MODEL 2
REMARK VINA RESULT:      -7.4      1.924      2.366
REMARK SMILES CC(=O)CCc1ccc2c(c1)OCO2
REMARK SMILES IDX 4 1 2 2 1 3 3 4 5 5 6 6 7 7 11 8 8 9 10 10 9 11 12 12 14 13
REMARK SMILES IDX 13 14
REMARK H PARENT
REMARK Flexibility Score: inf
ROOT
ATOM      1  C   UNL     1       5.752   1.411  -0.260  1.00  0.00     0.080 C 
ENDROOT
BRANCH   1   2
ATOM      2  C   UNL     1       5.095   1.297   1.072  1.00  0.00     0.130 C 
ATOM      3  C   UNL     1       5.368   0.151   1.981  1.00  0.00     0.087 C 
ATOM      4  O   UNL     1       4.308   2.146   1.458  1.00  0.00    -0.300 OA
ENDBRANCH   1   2
BRANCH   1   5
ATOM      5  C   UNL     1       7.240   1.139  -0.165  1.00  0.00     0.043 C 
BRANCH   5   6
ATOM      6  C   UNL     1       7.601  -0.147  -0.787  1.00  0.00    -0.044 A 
ATOM      7  C   UNL     1       7.645  -0.303  -2.177  1.00  0.00     0.008 A 
ATOM      8  C   UNL     1       7.907  -1.228   0.009  1.00  0.00     0.054 A 
ATOM      9  C   UNL     1       7.992  -1.534  -2.704  1.00  0.00     0.051 A 
ATOM     10  C   UNL     1       8.257  -2.470  -0.528  1.00  0.00     0.166 A 
ATOM     11  C   UNL     1       8.299  -2.624  -1.896  1.00  0.00     0.165 A 
ATOM     12  O   UNL     1       8.597  -3.678   0.042  1.00  0.00    -0.454 OA
ATOM     13  O   UNL     1       8.670  -3.938  -2.140  1.00  0.00    -0.454 OA
ATOM     14  C   UNL     1       8.957  -4.616  -0.940  1.00  0.00     0.468 C 
ENDBRANCH   5   6
ENDBRANCH   1   5
TORSDOF 3
ENDMDL
MODEL 3
REMARK VINA RESULT:      -7.2      2.051      2.617
REMARK SMILES CC(=O)CCc1ccc2c(c1)OCO2
REMARK SMILES IDX 4 1 2 2 1 3 3 4 5 5 6 6 7 7 11 8 8 9 10 10 9 11 12 12 14 13
REMARK SMILES IDX 13 14
REMARK H PARENT
REMARK Flexibility Score: inf
ROOT
ATOM      1  C   UNL     1       5.423  -0.045   2.027  1.00  0.00     0.080 C 
ENDROOT
BRANCH   1   2
ATOM      2  C   UNL     1       4.563   1.143   1.768  1.00  0.00     0.130 C 
ATOM      3  C   UNL     1       4.895   2.131   0.707  1.00  0.00     0.087 C 
ATOM      4  O   UNL     1       3.554   1.342   2.426  1.00  0.00    -0.300 OA
ENDBRANCH   1   2
BRANCH   1   5
ATOM      5  C   UNL     1       6.856   0.210   1.603  1.00  0.00     0.043 C 
BRANCH   5   6
ATOM      6  C   UNL     1       7.283  -0.716   0.539  1.00  0.00    -0.044 A 
ATOM      7  C   UNL     1       7.164  -0.382  -0.815  1.00  0.00     0.008 A 
ATOM      8  C   UNL     1       7.816  -1.940   0.873  1.00  0.00     0.054 A 
ATOM      9  C   UNL     1       7.583  -1.290  -1.770  1.00  0.00     0.051 A 
ATOM     10  C   UNL     1       8.239  -2.855  -0.096  1.00  0.00     0.166 A 
ATOM     11  C   UNL     1       8.120  -2.527  -1.429  1.00  0.00     0.165 A 
ATOM     12  O   UNL     1       8.792  -4.116  -0.021  1.00  0.00    -0.454 OA
ATOM     13  O   UNL     1       8.610  -3.604  -2.151  1.00  0.00    -0.454 OA
ATOM     14  C   UNL     1       9.129  -4.596  -1.297  1.00  0.00     0.468 C 
ENDBRANCH   5   6
ENDBRANCH   1   5
TORSDOF 3
ENDMDL
MODEL 4
REMARK VINA RESULT:      -7.1      1.236      1.435
REMARK SMILES CC(=O)CCc1ccc2c(c1)OCO2
REMARK SMILES IDX 4 1 2 2 1 3 3 4 5 5 6 6 7 7 11 8 8 9 10 10 9 11 12 12 14 13
REMARK SMILES IDX 13 14
REMARK H PARENT
REMARK Flexibility Score: inf
ROOT
ATOM      1  C   UNL     1       6.372   1.214   0.942  1.00  0.00     0.080 C 
ENDROOT
BRANCH   1   2
ATOM      2  C   UNL     1       5.659   0.370   1.941  1.00  0.00     0.130 C 
ATOM      3  C   UNL     1       6.282  -0.849   2.521  1.00  0.00     0.087 C 
ATOM      4  O   UNL     1       4.533   0.658   2.314  1.00  0.00    -0.300 OA
ENDBRANCH   1   2
BRANCH   1   5
ATOM      5  C   UNL     1       5.866   0.951  -0.462  1.00  0.00     0.043 C 
BRANCH   5   6
ATOM      6  C   UNL     1       6.811   0.129  -1.239  1.00  0.00    -0.044 A 
ATOM      7  C   UNL     1       7.501   0.649  -2.340  1.00  0.00     0.008 A 
ATOM      8  C   UNL     1       7.031  -1.181  -0.880  1.00  0.00     0.054 A 
ATOM      9  C   UNL     1       8.377  -0.169  -3.031  1.00  0.00     0.051 A 
ATOM     10  C   UNL     1       7.918  -2.004  -1.582  1.00  0.00     0.166 A 
ATOM     11  C   UNL     1       8.596  -1.493  -2.666  1.00  0.00     0.165 A 
ATOM     12  O   UNL     1       8.303  -3.319  -1.426  1.00  0.00    -0.454 OA
ATOM     13  O   UNL     1       9.392  -2.516  -3.158  1.00  0.00    -0.454 OA
ATOM     14  C   UNL     1       9.305  -3.663  -2.348  1.00  0.00     0.468 C 
ENDBRANCH   5   6
ENDBRANCH   1   5
TORSDOF 3
ENDMDL
MODEL 5
REMARK VINA RESULT:      -7.1      1.999      2.562
REMARK SMILES CC(=O)CCc1ccc2c(c1)OCO2
REMARK SMILES IDX 4 1 2 2 1 3 3 4 5 5 6 6 7 7 11 8 8 9 10 10 9 11 12 12 14 13
REMARK SMILES IDX 13 14
REMARK H PARENT
REMARK Flexibility Score: inf
ROOT
ATOM      1  C   UNL     1       6.771   0.718   1.381  1.00  0.00     0.080 C 
ENDROOT
BRANCH   1   2
ATOM      2  C   UNL     1       5.359   1.186   1.453  1.00  0.00     0.130 C 
ATOM      3  C   UNL     1       4.804   2.150   0.465  1.00  0.00     0.087 C 
ATOM      4  O   UNL     1       4.611   0.788   2.332  1.00  0.00    -0.300 OA
ENDBRANCH   1   2
BRANCH   1   5
ATOM      5  C   UNL     1       7.357   0.947   0.002  1.00  0.00     0.043 C 
BRANCH   5   6
ATOM      6  C   UNL     1       7.682  -0.324  -0.671  1.00  0.00    -0.044 A 
ATOM      7  C   UNL     1       7.695  -0.432  -2.066  1.00  0.00     0.008 A 
ATOM      8  C   UNL     1       7.984  -1.436   0.081  1.00  0.00     0.054 A 
ATOM      9  C   UNL     1       8.008  -1.650  -2.642  1.00  0.00     0.051 A 
ATOM     10  C   UNL     1       8.300  -2.665  -0.506  1.00  0.00     0.166 A 
ATOM     11  C   UNL     1       8.312  -2.773  -1.878  1.00  0.00     0.165 A 
ATOM     12  O   UNL     1       8.630  -3.898   0.016  1.00  0.00    -0.454 OA
ATOM     13  O   UNL     1       8.654  -4.083  -2.175  1.00  0.00    -0.454 OA
ATOM     14  C   UNL     1       8.952  -4.807  -1.005  1.00  0.00     0.468 C 
ENDBRANCH   5   6
ENDBRANCH   1   5
TORSDOF 3
ENDMDL
