@<TRIPOS>MOLECULE
/home/cewinharhar/GITHUB/reincatalyze/data/processed/docking_pred/2023-May-30-2130_sub9_nm5_bs15_s42_ex16_mel10_mts10000_k50_ec05_g099_lra3e-4_lrc3e-3/b0dbf451e4e891e0fb60bf6ca530f921e690d9da_ligand_9.pdbqt
 14 15 0 0 0
SMALL
GASTEIGER

@<TRIPOS>ATOM
      1  C          6.3720    1.2140    0.9420 C.3     1  UNL1        0.0800
      2  C          5.6590    0.3700    1.9410 C.2     1  UNL1        0.1300
      3  C          6.2820   -0.8490    2.5210 C.3     1  UNL1        0.0870
      4  O          4.5330    0.6580    2.3140 O.2     1  UNL1       -0.3000
      5  C          5.8660    0.9510   -0.4620 C.3     1  UNL1        0.0430
      6  C          6.8110    0.1290   -1.2390 C.2     1  UNL1       -0.0440
      7  C          7.5010    0.6490   -2.3400 C.2     1  UNL1        0.0080
      8  C          7.0310   -1.1810   -0.8800 C.2     1  UNL1        0.0540
      9  C          8.3770   -0.1690   -3.0310 C.2     1  UNL1        0.0510
     10  C          7.9180   -2.0040   -1.5820 C.2     1  UNL1        0.1660
     11  C          8.5960   -1.4930   -2.6660 C.2     1  UNL1        0.1650
     12  O          8.3030   -3.3190   -1.4260 O.2     1  UNL1       -0.4540
     13  O          9.3920   -2.5160   -3.1580 O.2     1  UNL1       -0.4540
     14  C          9.3050   -3.6630   -2.3480 C.3     1  UNL1        0.4680
@<TRIPOS>BOND
     1    13    11    1
     2    13    14    1
     3     9    11    2
     4     9     7    1
     5    11    10    1
     6    14    12    1
     7     7     6    2
     8    10    12    1
     9    10     8    2
    10     6     8    1
    11     6     5    1
    12     5     1    1
    13     1     2    1
    14     2     4    2
    15     2     3    1
