@<TRIPOS>MOLECULE
/home/cewinharhar/GITHUB/reincatalyze/data/processed/docking_pred/2023-May-30-2130_sub9_nm5_bs15_s42_ex16_mel10_mts10000_k50_ec05_g099_lra3e-4_lrc3e-3/b0dbf451e4e891e0fb60bf6ca530f921e690d9da_ligand_9.pdbqt
 14 15 0 0 0
SMALL
GASTEIGER

@<TRIPOS>ATOM
      1  C          6.7710    0.7180    1.3810 C.3     1  UNL1        0.0800
      2  C          5.3590    1.1860    1.4530 C.2     1  UNL1        0.1300
      3  C          4.8040    2.1500    0.4650 C.3     1  UNL1        0.0870
      4  O          4.6110    0.7880    2.3320 O.2     1  UNL1       -0.3000
      5  C          7.3570    0.9470    0.0020 C.3     1  UNL1        0.0430
      6  C          7.6820   -0.3240   -0.6710 C.2     1  UNL1       -0.0440
      7  C          7.6950   -0.4320   -2.0660 C.2     1  UNL1        0.0080
      8  C          7.9840   -1.4360    0.0810 C.2     1  UNL1        0.0540
      9  C          8.0080   -1.6500   -2.6420 C.2     1  UNL1        0.0510
     10  C          8.3000   -2.6650   -0.5060 C.2     1  UNL1        0.1660
     11  C          8.3120   -2.7730   -1.8780 C.2     1  UNL1        0.1650
     12  O          8.6300   -3.8980    0.0160 O.2     1  UNL1       -0.4540
     13  O          8.6540   -4.0830   -2.1750 O.2     1  UNL1       -0.4540
     14  C          8.9520   -4.8070   -1.0050 C.3     1  UNL1        0.4680
@<TRIPOS>BOND
     1     9     7    1
     2     9    11    2
     3    13    11    1
     4    13    14    1
     5     7     6    2
     6    11    10    1
     7    14    12    1
     8     6     5    1
     9     6     8    1
    10    10    12    1
    11    10     8    2
    12     5     1    1
    13     3     2    1
    14     1     2    1
    15     2     4    2
