MODEL 1
REMARK VINA RESULT:      -7.7      0.000      0.000
REMARK SMILES CC(=O)CCc1ccc2c(c1)OCO2
REMARK SMILES IDX 4 1 2 2 1 3 3 4 5 5 6 6 7 7 11 8 8 9 10 10 9 11 12 12 14 13
REMARK SMILES IDX 13 14
REMARK H PARENT
REMARK Flexibility Score: inf
ROOT
ATOM      1  C   UNL     1       5.554   1.908   1.296  1.00  0.00     0.080 C 
ENDROOT
BRANCH   1   2
ATOM      2  C   UNL     1       5.091   0.691   2.018  1.00  0.00     0.130 C 
ATOM      3  C   UNL     1       5.966  -0.502   2.177  1.00  0.00     0.087 C 
ATOM      4  O   UNL     1       3.973   0.637   2.503  1.00  0.00    -0.300 OA
ENDBRANCH   1   2
BRANCH   1   5
ATOM      5  C   UNL     1       5.423   1.741  -0.205  1.00  0.00     0.043 C 
BRANCH   5   6
ATOM      6  C   UNL     1       6.583   1.037  -0.780  1.00  0.00    -0.044 A 
ATOM      7  C   UNL     1       7.893   1.471  -0.546  1.00  0.00     0.008 A 
ATOM      8  C   UNL     1       6.385  -0.077  -1.564  1.00  0.00     0.054 A 
ATOM      9  C   UNL     1       8.943   0.769  -1.111  1.00  0.00     0.051 A 
ATOM     10  C   UNL     1       7.450  -0.783  -2.132  1.00  0.00     0.166 A 
ATOM     11  C   UNL     1       8.739  -0.356  -1.904  1.00  0.00     0.165 A 
ATOM     12  O   UNL     1       7.513  -1.901  -2.937  1.00  0.00    -0.454 OA
ATOM     13  O   UNL     1       9.576  -1.231  -2.579  1.00  0.00    -0.454 OA
ATOM     14  C   UNL     1       8.846  -2.278  -3.172  1.00  0.00     0.468 C 
ENDBRANCH   5   6
ENDBRANCH   1   5
TORSDOF 3
ENDMDL
MODEL 2
REMARK VINA RESULT:      -7.5      1.937      2.406
REMARK SMILES CC(=O)CCc1ccc2c(c1)OCO2
REMARK SMILES IDX 4 1 2 2 1 3 3 4 5 5 6 6 7 7 11 8 8 9 10 10 9 11 12 12 14 13
REMARK SMILES IDX 13 14
REMARK H PARENT
REMARK Flexibility Score: inf
ROOT
ATOM      1  C   UNL     1       5.736   1.310  -0.297  1.00  0.00     0.080 C 
ENDROOT
BRANCH   1   2
ATOM      2  C   UNL     1       5.126   1.247   1.061  1.00  0.00     0.130 C 
ATOM      3  C   UNL     1       5.354   0.089   1.966  1.00  0.00     0.087 C 
ATOM      4  O   UNL     1       4.415   2.150   1.471  1.00  0.00    -0.300 OA
ENDBRANCH   1   2
BRANCH   1   5
ATOM      5  C   UNL     1       7.232   1.072  -0.239  1.00  0.00     0.043 C 
BRANCH   5   6
ATOM      6  C   UNL     1       7.604  -0.216  -0.851  1.00  0.00    -0.044 A 
ATOM      7  C   UNL     1       7.627  -0.389  -2.239  1.00  0.00     0.008 A 
ATOM      8  C   UNL     1       7.941  -1.280  -0.046  1.00  0.00     0.054 A 
ATOM      9  C   UNL     1       7.986  -1.621  -2.756  1.00  0.00     0.051 A 
ATOM     10  C   UNL     1       8.303  -2.524  -0.573  1.00  0.00     0.166 A 
ATOM     11  C   UNL     1       8.325  -2.695  -1.940  1.00  0.00     0.165 A 
ATOM     12  O   UNL     1       8.674  -3.718   0.006  1.00  0.00    -0.454 OA
ATOM     13  O   UNL     1       8.714  -4.005  -2.173  1.00  0.00    -0.454 OA
ATOM     14  C   UNL     1       9.033  -4.663  -0.970  1.00  0.00     0.468 C 
ENDBRANCH   5   6
ENDBRANCH   1   5
TORSDOF 3
ENDMDL
MODEL 3
REMARK VINA RESULT:      -7.2      2.079      2.603
REMARK SMILES CC(=O)CCc1ccc2c(c1)OCO2
REMARK SMILES IDX 4 1 2 2 1 3 3 4 5 5 6 6 7 7 11 8 8 9 10 10 9 11 12 12 14 13
REMARK SMILES IDX 13 14
REMARK H PARENT
REMARK Flexibility Score: inf
ROOT
ATOM      1  C   UNL     1       5.629   0.081   1.959  1.00  0.00     0.080 C 
ENDROOT
BRANCH   1   2
ATOM      2  C   UNL     1       4.692   1.186   1.614  1.00  0.00     0.130 C 
ATOM      3  C   UNL     1       4.966   2.119   0.488  1.00  0.00     0.087 C 
ATOM      4  O   UNL     1       3.665   1.359   2.250  1.00  0.00    -0.300 OA
ENDBRANCH   1   2
BRANCH   1   5
ATOM      5  C   UNL     1       7.019   0.348   1.417  1.00  0.00     0.043 C 
BRANCH   5   6
ATOM      6  C   UNL     1       7.405  -0.638   0.393  1.00  0.00    -0.044 A 
ATOM      7  C   UNL     1       7.290  -0.360  -0.974  1.00  0.00     0.008 A 
ATOM      8  C   UNL     1       7.896  -1.865   0.778  1.00  0.00     0.054 A 
ATOM      9  C   UNL     1       7.669  -1.324  -1.890  1.00  0.00     0.051 A 
ATOM     10  C   UNL     1       8.278  -2.837  -0.152  1.00  0.00     0.166 A 
ATOM     11  C   UNL     1       8.163  -2.564  -1.497  1.00  0.00     0.165 A 
ATOM     12  O   UNL     1       8.785  -4.112  -0.023  1.00  0.00    -0.454 OA
ATOM     13  O   UNL     1       8.608  -3.689  -2.173  1.00  0.00    -0.454 OA
ATOM     14  C   UNL     1       9.097  -4.660  -1.279  1.00  0.00     0.468 C 
ENDBRANCH   5   6
ENDBRANCH   1   5
TORSDOF 3
ENDMDL
MODEL 4
REMARK VINA RESULT:      -7.1      1.251      1.460
REMARK SMILES CC(=O)CCc1ccc2c(c1)OCO2
REMARK SMILES IDX 4 1 2 2 1 3 3 4 5 5 6 6 7 7 11 8 8 9 10 10 9 11 12 12 14 13
REMARK SMILES IDX 13 14
REMARK H PARENT
REMARK Flexibility Score: inf
ROOT
ATOM      1  C   UNL     1       6.371   1.202   0.943  1.00  0.00     0.080 C 
ENDROOT
BRANCH   1   2
ATOM      2  C   UNL     1       5.650   0.372   1.949  1.00  0.00     0.130 C 
ATOM      3  C   UNL     1       6.259  -0.855   2.529  1.00  0.00     0.087 C 
ATOM      4  O   UNL     1       4.531   0.677   2.327  1.00  0.00    -0.300 OA
ENDBRANCH   1   2
BRANCH   1   5
ATOM      5  C   UNL     1       5.857   0.938  -0.458  1.00  0.00     0.043 C 
BRANCH   5   6
ATOM      6  C   UNL     1       6.797   0.114  -1.239  1.00  0.00    -0.044 A 
ATOM      7  C   UNL     1       7.459   0.623  -2.362  1.00  0.00     0.008 A 
ATOM      8  C   UNL     1       7.040  -1.187  -0.862  1.00  0.00     0.054 A 
ATOM      9  C   UNL     1       8.331  -0.196  -3.056  1.00  0.00     0.051 A 
ATOM     10  C   UNL     1       7.923  -2.011  -1.566  1.00  0.00     0.166 A 
ATOM     11  C   UNL     1       8.573  -1.512  -2.672  1.00  0.00     0.165 A 
ATOM     12  O   UNL     1       8.326  -3.319  -1.396  1.00  0.00    -0.454 OA
ATOM     13  O   UNL     1       9.372  -2.533  -3.163  1.00  0.00    -0.454 OA
ATOM     14  C   UNL     1       9.315  -3.667  -2.330  1.00  0.00     0.468 C 
ENDBRANCH   5   6
ENDBRANCH   1   5
TORSDOF 3
ENDMDL
MODEL 5
REMARK VINA RESULT:      -7.0      1.952      2.538
REMARK SMILES CC(=O)CCc1ccc2c(c1)OCO2
REMARK SMILES IDX 4 1 2 2 1 3 3 4 5 5 6 6 7 7 11 8 8 9 10 10 9 11 12 12 14 13
REMARK SMILES IDX 13 14
REMARK H PARENT
REMARK Flexibility Score: inf
ROOT
ATOM      1  C   UNL     1       6.968   0.941   1.237  1.00  0.00     0.080 C 
ENDROOT
BRANCH   1   2
ATOM      2  C   UNL     1       5.515   1.210   1.423  1.00  0.00     0.130 C 
ATOM      3  C   UNL     1       4.775   2.150   0.539  1.00  0.00     0.087 C 
ATOM      4  O   UNL     1       4.885   0.663   2.314  1.00  0.00    -0.300 OA
ENDBRANCH   1   2
BRANCH   1   5
ATOM      5  C   UNL     1       7.373   1.088  -0.216  1.00  0.00     0.043 C 
BRANCH   5   6
ATOM      6  C   UNL     1       7.679  -0.215  -0.833  1.00  0.00    -0.044 A 
ATOM      7  C   UNL     1       7.657  -0.392  -2.221  1.00  0.00     0.008 A 
ATOM      8  C   UNL     1       7.997  -1.290  -0.034  1.00  0.00     0.054 A 
ATOM      9  C   UNL     1       7.953  -1.638  -2.744  1.00  0.00     0.051 A 
ATOM     10  C   UNL     1       8.296  -2.547  -0.568  1.00  0.00     0.166 A 
ATOM     11  C   UNL     1       8.274  -2.723  -1.933  1.00  0.00     0.165 A 
ATOM     12  O   UNL     1       8.636  -3.754   0.006  1.00  0.00    -0.454 OA
ATOM     13  O   UNL     1       8.605  -4.047  -2.173  1.00  0.00    -0.454 OA
ATOM     14  C   UNL     1       8.931  -4.714  -0.977  1.00  0.00     0.468 C 
ENDBRANCH   5   6
ENDBRANCH   1   5
TORSDOF 3
ENDMDL
