@<TRIPOS>MOLECULE
/home/cewinharhar/GITHUB/reincatalyze/data/processed/docking_pred/2023-May-30-2130_sub9_nm5_bs15_s42_ex16_mel10_mts10000_k50_ec05_g099_lra3e-4_lrc3e-3/b3ccd1df948aefc26948fdc9bbc960af2f6fd47d_ligand_9.pdbqt
 14 15 0 0 0
SMALL
GASTEIGER

@<TRIPOS>ATOM
      1  C          5.5910    1.8580    1.2970 C.3     1  UNL1        0.0800
      2  C          5.1300    0.6440    2.0260 C.2     1  UNL1        0.1300
      3  C          6.0120   -0.5400    2.2070 C.3     1  UNL1        0.0870
      4  O          4.0060    0.5850    2.4980 O.2     1  UNL1       -0.3000
      5  C          5.4460    1.6880   -0.2020 C.3     1  UNL1        0.0430
      6  C          6.6040    0.9890   -0.7880 C.2     1  UNL1       -0.0440
      7  C          7.9140    1.4330   -0.5700 C.2     1  UNL1        0.0080
      8  C          6.4050   -0.1280   -1.5660 C.2     1  UNL1        0.0540
      9  C          8.9620    0.7360   -1.1450 C.2     1  UNL1        0.0510
     10  C          7.4680   -0.8290   -2.1440 C.2     1  UNL1        0.1660
     11  C          8.7570   -0.3930   -1.9320 C.2     1  UNL1        0.1650
     12  O          7.5300   -1.9490   -2.9450 O.2     1  UNL1       -0.4540
     13  O          9.5920   -1.2640   -2.6130 O.2     1  UNL1       -0.4540
     14  C          8.8620   -2.3180   -3.1940 C.3     1  UNL1        0.4680
@<TRIPOS>BOND
     1    14    12    1
     2    14    13    1
     3    12    10    1
     4    13    11    1
     5    10    11    2
     6    10     8    1
     7    11     9    1
     8     8     6    2
     9     9     7    2
    10     6     7    1
    11     6     5    1
    12     5     1    1
    13     1     2    1
    14     2     3    1
    15     2     4    2
