MODEL 1
REMARK VINA RESULT:      -7.5      0.000      0.000
REMARK SMILES CC(=O)CCc1ccc2c(c1)OCO2
REMARK SMILES IDX 4 1 2 2 1 3 3 4 5 5 6 6 7 7 11 8 8 9 10 10 9 11 12 12 14 13
REMARK SMILES IDX 13 14
REMARK H PARENT
REMARK Flexibility Score: inf
ROOT
ATOM      1  C   UNL     1       5.767   2.100   1.552  1.00  0.00     0.080 C 
ENDROOT
BRANCH   1   2
ATOM      2  C   UNL     1       5.481   0.801   2.223  1.00  0.00     0.130 C 
ATOM      3  C   UNL     1       6.574  -0.090   2.696  1.00  0.00     0.087 C 
ATOM      4  O   UNL     1       4.334   0.428   2.404  1.00  0.00    -0.300 OA
ENDBRANCH   1   2
BRANCH   1   5
ATOM      5  C   UNL     1       5.579   1.997   0.051  1.00  0.00     0.043 C 
BRANCH   5   6
ATOM      6  C   UNL     1       6.655   1.213  -0.581  1.00  0.00    -0.044 A 
ATOM      7  C   UNL     1       7.997   1.600  -0.486  1.00  0.00     0.008 A 
ATOM      8  C   UNL     1       6.344   0.071  -1.283  1.00  0.00     0.054 A 
ATOM      9  C   UNL     1       8.964   0.824  -1.099  1.00  0.00     0.051 A 
ATOM     10  C   UNL     1       7.325  -0.710  -1.901  1.00  0.00     0.166 A 
ATOM     11  C   UNL     1       8.646  -0.330  -1.809  1.00  0.00     0.165 A 
ATOM     12  O   UNL     1       7.273  -1.870  -2.645  1.00  0.00    -0.454 OA
ATOM     13  O   UNL     1       9.384  -1.275  -2.504  1.00  0.00    -0.454 OA
ATOM     14  C   UNL     1       8.563  -2.317  -2.973  1.00  0.00     0.468 C 
ENDBRANCH   5   6
ENDBRANCH   1   5
TORSDOF 3
ENDMDL
MODEL 2
REMARK VINA RESULT:      -7.4      2.051      2.640
REMARK SMILES CC(=O)CCc1ccc2c(c1)OCO2
REMARK SMILES IDX 4 1 2 2 1 3 3 4 5 5 6 6 7 7 11 8 8 9 10 10 9 11 12 12 14 13
REMARK SMILES IDX 13 14
REMARK H PARENT
REMARK Flexibility Score: inf
ROOT
ATOM      1  C   UNL     1       5.397  -0.018   2.025  1.00  0.00     0.080 C 
ENDROOT
BRANCH   1   2
ATOM      2  C   UNL     1       4.592   1.214   1.800  1.00  0.00     0.130 C 
ATOM      3  C   UNL     1       4.877   2.138   0.669  1.00  0.00     0.087 C 
ATOM      4  O   UNL     1       3.668   1.504   2.542  1.00  0.00    -0.300 OA
ENDBRANCH   1   2
BRANCH   1   5
ATOM      5  C   UNL     1       6.847   0.193   1.639  1.00  0.00     0.043 C 
BRANCH   5   6
ATOM      6  C   UNL     1       7.266  -0.725   0.565  1.00  0.00    -0.044 A 
ATOM      7  C   UNL     1       7.123  -0.387  -0.786  1.00  0.00     0.008 A 
ATOM      8  C   UNL     1       7.815  -1.946   0.887  1.00  0.00     0.054 A 
ATOM      9  C   UNL     1       7.535  -1.289  -1.750  1.00  0.00     0.051 A 
ATOM     10  C   UNL     1       8.230  -2.854  -0.092  1.00  0.00     0.166 A 
ATOM     11  C   UNL     1       8.088  -2.523  -1.421  1.00  0.00     0.165 A 
ATOM     12  O   UNL     1       8.795  -4.110  -0.029  1.00  0.00    -0.454 OA
ATOM     13  O   UNL     1       8.576  -3.593  -2.155  1.00  0.00    -0.454 OA
ATOM     14  C   UNL     1       9.117  -4.583  -1.312  1.00  0.00     0.468 C 
ENDBRANCH   5   6
ENDBRANCH   1   5
TORSDOF 3
ENDMDL
MODEL 3
REMARK VINA RESULT:      -7.1      1.205      5.073
REMARK SMILES CC(=O)CCc1ccc2c(c1)OCO2
REMARK SMILES IDX 4 1 2 2 1 3 3 4 5 5 6 6 7 7 11 8 8 9 10 10 9 11 12 12 14 13
REMARK SMILES IDX 13 14
REMARK H PARENT
REMARK Flexibility Score: inf
ROOT
ATOM      1  C   UNL     1       8.285   0.166  -2.589  1.00  0.00     0.080 C 
ENDROOT
BRANCH   1   2
ATOM      2  C   UNL     1       7.886  -1.268  -2.645  1.00  0.00     0.130 C 
ATOM      3  C   UNL     1       8.880  -2.347  -2.894  1.00  0.00     0.087 C 
ATOM      4  O   UNL     1       6.722  -1.601  -2.488  1.00  0.00    -0.300 OA
ENDBRANCH   1   2
BRANCH   1   5
ATOM      5  C   UNL     1       8.812   0.537  -1.217  1.00  0.00     0.043 C 
BRANCH   5   6
ATOM      6  C   UNL     1       7.771   0.416  -0.181  1.00  0.00    -0.044 A 
ATOM      7  C   UNL     1       7.852  -0.549   0.830  1.00  0.00     0.008 A 
ATOM      8  C   UNL     1       6.691   1.268  -0.197  1.00  0.00     0.054 A 
ATOM      9  C   UNL     1       6.845  -0.615   1.776  1.00  0.00     0.051 A 
ATOM     10  C   UNL     1       5.676   1.198   0.763  1.00  0.00     0.166 A 
ATOM     11  C   UNL     1       5.754   0.248   1.757  1.00  0.00     0.165 A 
ATOM     12  O   UNL     1       4.518   1.919   0.960  1.00  0.00    -0.454 OA
ATOM     13  O   UNL     1       4.631   0.408   2.553  1.00  0.00    -0.454 OA
ATOM     14  C   UNL     1       3.866   1.514   2.137  1.00  0.00     0.468 C 
ENDBRANCH   5   6
ENDBRANCH   1   5
TORSDOF 3
ENDMDL
MODEL 4
REMARK VINA RESULT:      -7.0      1.670      2.045
REMARK SMILES CC(=O)CCc1ccc2c(c1)OCO2
REMARK SMILES IDX 4 1 2 2 1 3 3 4 5 5 6 6 7 7 11 8 8 9 10 10 9 11 12 12 14 13
REMARK SMILES IDX 13 14
REMARK H PARENT
REMARK Flexibility Score: inf
ROOT
ATOM      1  C   UNL     1       5.440   1.420   0.339  1.00  0.00     0.080 C 
ENDROOT
BRANCH   1   2
ATOM      2  C   UNL     1       5.245   1.241   1.805  1.00  0.00     0.130 C 
ATOM      3  C   UNL     1       6.380   0.918   2.710  1.00  0.00     0.087 C 
ATOM      4  O   UNL     1       4.139   1.353   2.308  1.00  0.00    -0.300 OA
ENDBRANCH   1   2
BRANCH   1   5
ATOM      5  C   UNL     1       6.912   1.429  -0.023  1.00  0.00     0.043 C 
BRANCH   5   6
ATOM      6  C   UNL     1       7.318   0.177  -0.687  1.00  0.00    -0.044 A 
ATOM      7  C   UNL     1       7.335   0.059  -2.081  1.00  0.00     0.008 A 
ATOM      8  C   UNL     1       7.695  -0.907   0.073  1.00  0.00     0.054 A 
ATOM      9  C   UNL     1       7.727  -1.140  -2.648  1.00  0.00     0.051 A 
ATOM     10  C   UNL     1       8.090  -2.117  -0.505  1.00  0.00     0.166 A 
ATOM     11  C   UNL     1       8.106  -2.235  -1.877  1.00  0.00     0.165 A 
ATOM     12  O   UNL     1       8.502  -3.321   0.025  1.00  0.00    -0.454 OA
ATOM     13  O   UNL     1       8.533  -3.522  -2.164  1.00  0.00    -0.454 OA
ATOM     14  C   UNL     1       8.881  -4.215  -0.990  1.00  0.00     0.468 C 
ENDBRANCH   5   6
ENDBRANCH   1   5
TORSDOF 3
ENDMDL
MODEL 5
REMARK VINA RESULT:      -7.0      1.241      1.795
REMARK SMILES CC(=O)CCc1ccc2c(c1)OCO2
REMARK SMILES IDX 4 1 2 2 1 3 3 4 5 5 6 6 7 7 11 8 8 9 10 10 9 11 12 12 14 13
REMARK SMILES IDX 13 14
REMARK H PARENT
REMARK Flexibility Score: inf
ROOT
ATOM      1  C   UNL     1       5.224  -0.030   1.982  1.00  0.00     0.080 C 
ENDROOT
BRANCH   1   2
ATOM      2  C   UNL     1       4.428   1.218   1.814  1.00  0.00     0.130 C 
ATOM      3  C   UNL     1       4.665   2.148   0.677  1.00  0.00     0.087 C 
ATOM      4  O   UNL     1       3.553   1.515   2.610  1.00  0.00    -0.300 OA
ENDBRANCH   1   2
BRANCH   1   5
ATOM      5  C   UNL     1       6.711   0.264   2.003  1.00  0.00     0.043 C 
BRANCH   5   6
ATOM      6  C   UNL     1       7.346  -0.035   0.707  1.00  0.00    -0.044 A 
ATOM      7  C   UNL     1       7.891   0.976  -0.093  1.00  0.00     0.008 A 
ATOM      8  C   UNL     1       7.413  -1.336   0.264  1.00  0.00     0.054 A 
ATOM      9  C   UNL     1       8.475   0.636  -1.299  1.00  0.00     0.051 A 
ATOM     10  C   UNL     1       8.006  -1.675  -0.956  1.00  0.00     0.166 A 
ATOM     11  C   UNL     1       8.541  -0.681  -1.744  1.00  0.00     0.165 A 
ATOM     12  O   UNL     1       8.193  -2.875  -1.608  1.00  0.00    -0.454 OA
ATOM     13  O   UNL     1       9.052  -1.297  -2.875  1.00  0.00    -0.454 OA
ATOM     14  C   UNL     1       8.934  -2.697  -2.788  1.00  0.00     0.468 C 
ENDBRANCH   5   6
ENDBRANCH   1   5
TORSDOF 3
ENDMDL
