@<TRIPOS>MOLECULE
/home/cewinharhar/GITHUB/reincatalyze/data/processed/docking_pred/2023-May-30-2130_sub9_nm5_bs15_s42_ex16_mel10_mts10000_k50_ec05_g099_lra3e-4_lrc3e-3/b3efa5aa79561967f2a1346927635c3d7bfec8a2_ligand_9.pdbqt
 14 15 0 0 0
SMALL
GASTEIGER

@<TRIPOS>ATOM
      1  C          5.3970   -0.0180    2.0250 C.3     1  UNL1        0.0800
      2  C          4.5920    1.2140    1.8000 C.2     1  UNL1        0.1300
      3  C          4.8770    2.1380    0.6690 C.3     1  UNL1        0.0870
      4  O          3.6680    1.5040    2.5420 O.2     1  UNL1       -0.3000
      5  C          6.8470    0.1930    1.6390 C.3     1  UNL1        0.0430
      6  C          7.2660   -0.7250    0.5650 C.2     1  UNL1       -0.0440
      7  C          7.1230   -0.3870   -0.7860 C.2     1  UNL1        0.0080
      8  C          7.8150   -1.9460    0.8870 C.2     1  UNL1        0.0540
      9  C          7.5350   -1.2890   -1.7500 C.2     1  UNL1        0.0510
     10  C          8.2300   -2.8540   -0.0920 C.2     1  UNL1        0.1660
     11  C          8.0880   -2.5230   -1.4210 C.2     1  UNL1        0.1650
     12  O          8.7950   -4.1100   -0.0290 O.2     1  UNL1       -0.4540
     13  O          8.5760   -3.5930   -2.1550 O.2     1  UNL1       -0.4540
     14  C          9.1170   -4.5830   -1.3120 C.3     1  UNL1        0.4680
@<TRIPOS>BOND
     1    13    11    1
     2    13    14    1
     3     9    11    2
     4     9     7    1
     5    11    10    1
     6    14    12    1
     7     7     6    2
     8    10    12    1
     9    10     8    2
    10     6     8    1
    11     6     5    1
    12     3     2    1
    13     5     1    1
    14     2     1    1
    15     2     4    2
