@<TRIPOS>MOLECULE
/home/cewinharhar/GITHUB/reincatalyze/data/processed/docking_pred/2023-May-30-2130_sub9_nm5_bs15_s42_ex16_mel10_mts10000_k50_ec05_g099_lra3e-4_lrc3e-3/b3efa5aa79561967f2a1346927635c3d7bfec8a2_ligand_9.pdbqt
 14 15 0 0 0
SMALL
GASTEIGER

@<TRIPOS>ATOM
      1  C          5.7670    2.1000    1.5520 C.3     1  UNL1        0.0800
      2  C          5.4810    0.8010    2.2230 C.2     1  UNL1        0.1300
      3  C          6.5740   -0.0900    2.6960 C.3     1  UNL1        0.0870
      4  O          4.3340    0.4280    2.4040 O.2     1  UNL1       -0.3000
      5  C          5.5790    1.9970    0.0510 C.3     1  UNL1        0.0430
      6  C          6.6550    1.2130   -0.5810 C.2     1  UNL1       -0.0440
      7  C          7.9970    1.6000   -0.4860 C.2     1  UNL1        0.0080
      8  C          6.3440    0.0710   -1.2830 C.2     1  UNL1        0.0540
      9  C          8.9640    0.8240   -1.0990 C.2     1  UNL1        0.0510
     10  C          7.3250   -0.7100   -1.9010 C.2     1  UNL1        0.1660
     11  C          8.6460   -0.3300   -1.8090 C.2     1  UNL1        0.1650
     12  O          7.2730   -1.8700   -2.6450 O.2     1  UNL1       -0.4540
     13  O          9.3840   -1.2750   -2.5040 O.2     1  UNL1       -0.4540
     14  C          8.5630   -2.3170   -2.9730 C.3     1  UNL1        0.4680
@<TRIPOS>BOND
     1    14    12    1
     2    14    13    1
     3    12    10    1
     4    13    11    1
     5    10    11    2
     6    10     8    1
     7    11     9    1
     8     8     6    2
     9     9     7    2
    10     6     7    1
    11     6     5    1
    12     5     1    1
    13     1     2    1
    14     2     4    2
    15     2     3    1
