@<TRIPOS>MOLECULE
/home/cewinharhar/GITHUB/reincatalyze/data/processed/docking_pred/2023-May-30-2130_sub9_nm5_bs15_s42_ex16_mel10_mts10000_k50_ec05_g099_lra3e-4_lrc3e-3/b3efa5aa79561967f2a1346927635c3d7bfec8a2_ligand_9.pdbqt
 14 15 0 0 0
SMALL
GASTEIGER

@<TRIPOS>ATOM
      1  C          5.2240   -0.0300    1.9820 C.3     1  UNL1        0.0800
      2  C          4.4280    1.2180    1.8140 C.2     1  UNL1        0.1300
      3  C          4.6650    2.1480    0.6770 C.3     1  UNL1        0.0870
      4  O          3.5530    1.5150    2.6100 O.2     1  UNL1       -0.3000
      5  C          6.7110    0.2640    2.0030 C.3     1  UNL1        0.0430
      6  C          7.3460   -0.0350    0.7070 C.2     1  UNL1       -0.0440
      7  C          7.8910    0.9760   -0.0930 C.2     1  UNL1        0.0080
      8  C          7.4130   -1.3360    0.2640 C.2     1  UNL1        0.0540
      9  C          8.4750    0.6360   -1.2990 C.2     1  UNL1        0.0510
     10  C          8.0060   -1.6750   -0.9560 C.2     1  UNL1        0.1660
     11  C          8.5410   -0.6810   -1.7440 C.2     1  UNL1        0.1650
     12  O          8.1930   -2.8750   -1.6080 O.2     1  UNL1       -0.4540
     13  O          9.0520   -1.2970   -2.8750 O.2     1  UNL1       -0.4540
     14  C          8.9340   -2.6970   -2.7880 C.3     1  UNL1        0.4680
@<TRIPOS>BOND
     1    13    14    1
     2    13    11    1
     3    14    12    1
     4    11     9    2
     5    11    10    1
     6    12    10    1
     7     9     7    1
     8    10     8    2
     9     7     6    2
    10     8     6    1
    11     3     2    1
    12     6     5    1
    13     2     1    1
    14     2     4    2
    15     1     5    1
