@<TRIPOS>MOLECULE
/home/cewinharhar/GITHUB/reincatalyze/data/processed/docking_pred/2023-May-30-2130_sub9_nm5_bs15_s42_ex16_mel10_mts10000_k50_ec05_g099_lra3e-4_lrc3e-3/b3efa5aa79561967f2a1346927635c3d7bfec8a2_ligand_9.pdbqt
 14 15 0 0 0
SMALL
GASTEIGER

@<TRIPOS>ATOM
      1  C          8.2850    0.1660   -2.5890 C.3     1  UNL1        0.0800
      2  C          7.8860   -1.2680   -2.6450 C.2     1  UNL1        0.1300
      3  C          8.8800   -2.3470   -2.8940 C.3     1  UNL1        0.0870
      4  O          6.7220   -1.6010   -2.4880 O.2     1  UNL1       -0.3000
      5  C          8.8120    0.5370   -1.2170 C.3     1  UNL1        0.0430
      6  C          7.7710    0.4160   -0.1810 C.2     1  UNL1       -0.0440
      7  C          7.8520   -0.5490    0.8300 C.2     1  UNL1        0.0080
      8  C          6.6910    1.2680   -0.1970 C.2     1  UNL1        0.0540
      9  C          6.8450   -0.6150    1.7760 C.2     1  UNL1        0.0510
     10  C          5.6760    1.1980    0.7630 C.2     1  UNL1        0.1660
     11  C          5.7540    0.2480    1.7570 C.2     1  UNL1        0.1650
     12  O          4.5180    1.9190    0.9600 O.2     1  UNL1       -0.4540
     13  O          4.6310    0.4080    2.5530 O.2     1  UNL1       -0.4540
     14  C          3.8660    1.5140    2.1370 C.3     1  UNL1        0.4680
@<TRIPOS>BOND
     1     3     2    1
     2     2     1    1
     3     2     4    2
     4     1     5    1
     5     5     6    1
     6     8     6    2
     7     8    10    1
     8     6     7    1
     9    10    12    1
    10    10    11    2
    11     7     9    2
    12    12    14    1
    13    11     9    1
    14    11    13    1
    15    14    13    1
