@<TRIPOS>MOLECULE
/home/cewinharhar/GITHUB/reincatalyze/data/processed/docking_pred/2023-May-30-2130_sub9_nm5_bs15_s42_ex16_mel10_mts10000_k50_ec05_g099_lra3e-4_lrc3e-3/b58c38953477011b0b30fd8623da0ee842eab33b_ligand_9.pdbqt
 14 15 0 0 0
SMALL
GASTEIGER

@<TRIPOS>ATOM
      1  C          5.6920    1.1660   -0.3230 C.3     1  UNL1        0.0800
      2  C          5.1750    1.2080    1.0740 C.2     1  UNL1        0.1300
      3  C          5.4500    0.1120    2.0420 C.3     1  UNL1        0.0870
      4  O          4.5060    2.1500    1.4670 O.2     1  UNL1       -0.3000
      5  C          7.2020    1.0380   -0.3470 C.3     1  UNL1        0.0430
      6  C          7.6320   -0.2430   -0.9370 C.2     1  UNL1       -0.0440
      7  C          7.8370   -0.3830   -2.3150 C.2     1  UNL1        0.0080
      8  C          7.8430   -1.3320   -0.1230 C.2     1  UNL1        0.0540
      9  C          8.2420   -1.6080   -2.8110 C.2     1  UNL1        0.0510
     10  C          8.2520   -2.5690   -0.6300 C.2     1  UNL1        0.1660
     11  C          8.4530   -2.7080   -1.9860 C.2     1  UNL1        0.1650
     12  O          8.5240   -3.7840   -0.0380 O.2     1  UNL1       -0.4540
     13  O          8.8490   -4.0190   -2.2000 O.2     1  UNL1       -0.4540
     14  C          8.9950   -4.7110   -0.9820 C.3     1  UNL1        0.4680
@<TRIPOS>BOND
     1     9     7    1
     2     9    11    2
     3     7     6    2
     4    13    11    1
     5    13    14    1
     6    11    10    1
     7    14    12    1
     8     6     5    1
     9     6     8    1
    10    10     8    2
    11    10    12    1
    12     5     1    1
    13     1     2    1
    14     2     4    2
    15     2     3    1
