@<TRIPOS>MOLECULE
/home/cewinharhar/GITHUB/reincatalyze/data/processed/docking_pred/2023-May-30-2130_sub9_nm5_bs15_s42_ex16_mel10_mts10000_k50_ec05_g099_lra3e-4_lrc3e-3/b58c38953477011b0b30fd8623da0ee842eab33b_ligand_9.pdbqt
 14 15 0 0 0
SMALL
GASTEIGER

@<TRIPOS>ATOM
      1  C          6.3540    1.2320    0.8840 C.3     1  UNL1        0.0800
      2  C          5.6560    0.4220    1.9210 C.2     1  UNL1        0.1300
      3  C          6.2690   -0.8060    2.4950 C.3     1  UNL1        0.0870
      4  O          4.5540    0.7450    2.3320 O.2     1  UNL1       -0.3000
      5  C          5.8410    0.9070   -0.5050 C.3     1  UNL1        0.0430
      6  C          6.8070    0.0980   -1.2690 C.2     1  UNL1       -0.0440
      7  C          7.5170    0.6320   -2.3510 C.2     1  UNL1        0.0080
      8  C          7.0280   -1.2140   -0.9170 C.2     1  UNL1        0.0540
      9  C          8.4110   -0.1750   -3.0310 C.2     1  UNL1        0.0510
     10  C          7.9340   -2.0250   -1.6060 C.2     1  UNL1        0.1660
     11  C          8.6310   -1.5020   -2.6720 C.2     1  UNL1        0.1650
     12  O          8.3230   -3.3390   -1.4540 O.2     1  UNL1       -0.4540
     13  O          9.4430   -2.5150   -3.1570 O.2     1  UNL1       -0.4540
     14  C          9.3470   -3.6700   -2.3580 C.3     1  UNL1        0.4680
@<TRIPOS>BOND
     1    13    11    1
     2    13    14    1
     3     9    11    2
     4     9     7    1
     5    11    10    1
     6    14    12    1
     7     7     6    2
     8    10    12    1
     9    10     8    2
    10     6     8    1
    11     6     5    1
    12     5     1    1
    13     1     2    1
    14     2     4    2
    15     2     3    1
