@<TRIPOS>MOLECULE
/home/cewinharhar/GITHUB/reincatalyze/data/processed/docking_pred/2023-May-30-2130_sub9_nm5_bs15_s42_ex16_mel10_mts10000_k50_ec05_g099_lra3e-4_lrc3e-3/b590df4aad401e291154b1741be08749940afe84_ligand_9.pdbqt
 14 15 0 0 0
SMALL
GASTEIGER

@<TRIPOS>ATOM
      1  C          5.7610    1.3760   -0.3100 C.3     1  UNL1        0.0800
      2  C          5.1270    1.2950    1.0350 C.2     1  UNL1        0.1300
      3  C          5.4320    0.1840    1.9760 C.3     1  UNL1        0.0870
      4  O          4.3320    2.1430    1.4050 O.2     1  UNL1       -0.3000
      5  C          7.2530    1.1180   -0.2320 C.3     1  UNL1        0.0430
      6  C          7.6160   -0.1740   -0.8420 C.2     1  UNL1       -0.0440
      7  C          7.6950   -0.3330   -2.2300 C.2     1  UNL1        0.0080
      8  C          7.8880   -1.2560   -0.0360 C.2     1  UNL1        0.0540
      9  C          8.0420   -1.5690   -2.7450 C.2     1  UNL1        0.0510
     10  C          8.2390   -2.5030   -0.5620 C.2     1  UNL1        0.1660
     11  C          8.3160   -2.6610   -1.9280 C.2     1  UNL1        0.1650
     12  O          8.5510   -3.7140    0.0190 O.2     1  UNL1       -0.4540
     13  O          8.6780   -3.9790   -2.1590 O.2     1  UNL1       -0.4540
     14  C          8.9260   -4.6570   -0.9510 C.3     1  UNL1        0.4680
@<TRIPOS>BOND
     1     9     7    1
     2     9    11    2
     3     7     6    2
     4    13    11    1
     5    13    14    1
     6    11    10    1
     7    14    12    1
     8     6     5    1
     9     6     8    1
    10    10     8    2
    11    10    12    1
    12     1     5    1
    13     1     2    1
    14     2     4    2
    15     2     3    1
