@<TRIPOS>MOLECULE
/home/cewinharhar/GITHUB/reincatalyze/data/processed/docking_pred/2023-May-30-2130_sub9_nm5_bs15_s42_ex16_mel10_mts10000_k50_ec05_g099_lra3e-4_lrc3e-3/b590df4aad401e291154b1741be08749940afe84_ligand_9.pdbqt
 14 15 0 0 0
SMALL
GASTEIGER

@<TRIPOS>ATOM
      1  C          6.3540    1.2300    0.9190 C.3     1  UNL1        0.0800
      2  C          5.6580    0.3800    1.9240 C.2     1  UNL1        0.1300
      3  C          6.2930   -0.8420    2.4880 C.3     1  UNL1        0.0870
      4  O          4.5380    0.6630    2.3170 O.2     1  UNL1       -0.3000
      5  C          5.8510    0.9500   -0.4830 C.3     1  UNL1        0.0430
      6  C          6.8010    0.1240   -1.2490 C.2     1  UNL1       -0.0440
      7  C          7.4960    0.6370   -2.3500 C.2     1  UNL1        0.0080
      8  C          7.0190   -1.1840   -0.8800 C.2     1  UNL1        0.0540
      9  C          8.3760   -0.1850   -3.0310 C.2     1  UNL1        0.0510
     10  C          7.9100   -2.0110   -1.5720 C.2     1  UNL1        0.1660
     11  C          8.5940   -1.5070   -2.6560 C.2     1  UNL1        0.1650
     12  O          8.2950   -3.3250   -1.4050 O.2     1  UNL1       -0.4540
     13  O          9.3930   -2.5320   -3.1380 O.2     1  UNL1       -0.4540
     14  C          9.3020   -3.6740   -2.3190 C.3     1  UNL1        0.4680
@<TRIPOS>BOND
     1    13    11    1
     2    13    14    1
     3     9    11    2
     4     9     7    1
     5    11    10    1
     6     7     6    2
     7    14    12    1
     8    10    12    1
     9    10     8    2
    10     6     8    1
    11     6     5    1
    12     5     1    1
    13     1     2    1
    14     2     4    2
    15     2     3    1
