MODEL 1
REMARK VINA RESULT:      -7.6      0.000      0.000
REMARK SMILES CC(=O)CCc1ccc2c(c1)OCO2
REMARK SMILES IDX 4 1 2 2 1 3 3 4 5 5 6 6 7 7 11 8 8 9 10 10 9 11 12 12 14 13
REMARK SMILES IDX 13 14
REMARK H PARENT
REMARK Flexibility Score: inf
ROOT
ATOM      1  C   UNL     1       5.542   1.902   1.282  1.00  0.00     0.080 C 
ENDROOT
BRANCH   1   2
ATOM      2  C   UNL     1       5.107   0.680   2.014  1.00  0.00     0.130 C 
ATOM      3  C   UNL     1       6.008  -0.491   2.184  1.00  0.00     0.087 C 
ATOM      4  O   UNL     1       3.989   0.605   2.498  1.00  0.00    -0.300 OA
ENDBRANCH   1   2
BRANCH   1   5
ATOM      5  C   UNL     1       5.412   1.720  -0.218  1.00  0.00     0.043 C 
BRANCH   5   6
ATOM      6  C   UNL     1       6.576   1.016  -0.786  1.00  0.00    -0.044 A 
ATOM      7  C   UNL     1       7.885   1.445  -0.538  1.00  0.00     0.008 A 
ATOM      8  C   UNL     1       6.382  -0.092  -1.578  1.00  0.00     0.054 A 
ATOM      9  C   UNL     1       8.938   0.744  -1.098  1.00  0.00     0.051 A 
ATOM     10  C   UNL     1       7.450  -0.798  -2.141  1.00  0.00     0.166 A 
ATOM     11  C   UNL     1       8.738  -0.376  -1.899  1.00  0.00     0.165 A 
ATOM     12  O   UNL     1       7.517  -1.912  -2.951  1.00  0.00    -0.454 OA
ATOM     13  O   UNL     1       9.579  -1.250  -2.571  1.00  0.00    -0.454 OA
ATOM     14  C   UNL     1       8.850  -2.291  -3.177  1.00  0.00     0.468 C 
ENDBRANCH   5   6
ENDBRANCH   1   5
TORSDOF 3
ENDMDL
MODEL 2
REMARK VINA RESULT:      -7.5      1.926      2.382
REMARK SMILES CC(=O)CCc1ccc2c(c1)OCO2
REMARK SMILES IDX 4 1 2 2 1 3 3 4 5 5 6 6 7 7 11 8 8 9 10 10 9 11 12 12 14 13
REMARK SMILES IDX 13 14
REMARK H PARENT
REMARK Flexibility Score: inf
ROOT
ATOM      1  C   UNL     1       5.761   1.376  -0.310  1.00  0.00     0.080 C 
ENDROOT
BRANCH   1   2
ATOM      2  C   UNL     1       5.127   1.295   1.035  1.00  0.00     0.130 C 
ATOM      3  C   UNL     1       5.432   0.184   1.976  1.00  0.00     0.087 C 
ATOM      4  O   UNL     1       4.332   2.143   1.405  1.00  0.00    -0.300 OA
ENDBRANCH   1   2
BRANCH   1   5
ATOM      5  C   UNL     1       7.253   1.118  -0.232  1.00  0.00     0.043 C 
BRANCH   5   6
ATOM      6  C   UNL     1       7.616  -0.174  -0.842  1.00  0.00    -0.044 A 
ATOM      7  C   UNL     1       7.695  -0.333  -2.230  1.00  0.00     0.008 A 
ATOM      8  C   UNL     1       7.888  -1.256  -0.036  1.00  0.00     0.054 A 
ATOM      9  C   UNL     1       8.042  -1.569  -2.745  1.00  0.00     0.051 A 
ATOM     10  C   UNL     1       8.239  -2.503  -0.562  1.00  0.00     0.166 A 
ATOM     11  C   UNL     1       8.316  -2.661  -1.928  1.00  0.00     0.165 A 
ATOM     12  O   UNL     1       8.551  -3.714   0.019  1.00  0.00    -0.454 OA
ATOM     13  O   UNL     1       8.678  -3.979  -2.159  1.00  0.00    -0.454 OA
ATOM     14  C   UNL     1       8.926  -4.657  -0.951  1.00  0.00     0.468 C 
ENDBRANCH   5   6
ENDBRANCH   1   5
TORSDOF 3
ENDMDL
MODEL 3
REMARK VINA RESULT:      -7.2      2.089      2.611
REMARK SMILES CC(=O)CCc1ccc2c(c1)OCO2
REMARK SMILES IDX 4 1 2 2 1 3 3 4 5 5 6 6 7 7 11 8 8 9 10 10 9 11 12 12 14 13
REMARK SMILES IDX 13 14
REMARK H PARENT
REMARK Flexibility Score: inf
ROOT
ATOM      1  C   UNL     1       5.634   0.085   1.965  1.00  0.00     0.080 C 
ENDROOT
BRANCH   1   2
ATOM      2  C   UNL     1       4.700   1.189   1.610  1.00  0.00     0.130 C 
ATOM      3  C   UNL     1       4.981   2.116   0.481  1.00  0.00     0.087 C 
ATOM      4  O   UNL     1       3.670   1.366   2.240  1.00  0.00    -0.300 OA
ENDBRANCH   1   2
BRANCH   1   5
ATOM      5  C   UNL     1       7.027   0.347   1.426  1.00  0.00     0.043 C 
BRANCH   5   6
ATOM      6  C   UNL     1       7.412  -0.644   0.405  1.00  0.00    -0.044 A 
ATOM      7  C   UNL     1       7.296  -0.371  -0.963  1.00  0.00     0.008 A 
ATOM      8  C   UNL     1       7.902  -1.870   0.795  1.00  0.00     0.054 A 
ATOM      9  C   UNL     1       7.674  -1.339  -1.875  1.00  0.00     0.051 A 
ATOM     10  C   UNL     1       8.283  -2.845  -0.131  1.00  0.00     0.166 A 
ATOM     11  C   UNL     1       8.168  -2.578  -1.477  1.00  0.00     0.165 A 
ATOM     12  O   UNL     1       8.790  -4.121   0.002  1.00  0.00    -0.454 OA
ATOM     13  O   UNL     1       8.612  -3.706  -2.150  1.00  0.00    -0.454 OA
ATOM     14  C   UNL     1       9.100  -4.673  -1.251  1.00  0.00     0.468 C 
ENDBRANCH   5   6
ENDBRANCH   1   5
TORSDOF 3
ENDMDL
MODEL 4
REMARK VINA RESULT:      -7.1      1.239      1.439
REMARK SMILES CC(=O)CCc1ccc2c(c1)OCO2
REMARK SMILES IDX 4 1 2 2 1 3 3 4 5 5 6 6 7 7 11 8 8 9 10 10 9 11 12 12 14 13
REMARK SMILES IDX 13 14
REMARK H PARENT
REMARK Flexibility Score: inf
ROOT
ATOM      1  C   UNL     1       6.354   1.230   0.919  1.00  0.00     0.080 C 
ENDROOT
BRANCH   1   2
ATOM      2  C   UNL     1       5.658   0.380   1.924  1.00  0.00     0.130 C 
ATOM      3  C   UNL     1       6.293  -0.842   2.488  1.00  0.00     0.087 C 
ATOM      4  O   UNL     1       4.538   0.663   2.317  1.00  0.00    -0.300 OA
ENDBRANCH   1   2
BRANCH   1   5
ATOM      5  C   UNL     1       5.851   0.950  -0.483  1.00  0.00     0.043 C 
BRANCH   5   6
ATOM      6  C   UNL     1       6.801   0.124  -1.249  1.00  0.00    -0.044 A 
ATOM      7  C   UNL     1       7.496   0.637  -2.350  1.00  0.00     0.008 A 
ATOM      8  C   UNL     1       7.019  -1.184  -0.880  1.00  0.00     0.054 A 
ATOM      9  C   UNL     1       8.376  -0.185  -3.031  1.00  0.00     0.051 A 
ATOM     10  C   UNL     1       7.910  -2.011  -1.572  1.00  0.00     0.166 A 
ATOM     11  C   UNL     1       8.594  -1.507  -2.656  1.00  0.00     0.165 A 
ATOM     12  O   UNL     1       8.295  -3.325  -1.405  1.00  0.00    -0.454 OA
ATOM     13  O   UNL     1       9.393  -2.532  -3.138  1.00  0.00    -0.454 OA
ATOM     14  C   UNL     1       9.302  -3.674  -2.319  1.00  0.00     0.468 C 
ENDBRANCH   5   6
ENDBRANCH   1   5
TORSDOF 3
ENDMDL
MODEL 5
REMARK VINA RESULT:      -6.8      1.186      5.163
REMARK SMILES CC(=O)CCc1ccc2c(c1)OCO2
REMARK SMILES IDX 4 1 2 2 1 3 3 4 5 5 6 6 7 7 11 8 8 9 10 10 9 11 12 12 14 13
REMARK SMILES IDX 13 14
REMARK H PARENT
REMARK Flexibility Score: inf
ROOT
ATOM      1  C   UNL     1       8.361   0.221  -2.588  1.00  0.00     0.080 C 
ENDROOT
BRANCH   1   2
ATOM      2  C   UNL     1       8.009  -1.222  -2.702  1.00  0.00     0.130 C 
ATOM      3  C   UNL     1       9.033  -2.252  -3.025  1.00  0.00     0.087 C 
ATOM      4  O   UNL     1       6.862  -1.603  -2.532  1.00  0.00    -0.300 OA
ENDBRANCH   1   2
BRANCH   1   5
ATOM      5  C   UNL     1       8.879   0.554  -1.202  1.00  0.00     0.043 C 
BRANCH   5   6
ATOM      6  C   UNL     1       7.828   0.416  -0.179  1.00  0.00    -0.044 A 
ATOM      7  C   UNL     1       7.912  -0.546   0.834  1.00  0.00     0.008 A 
ATOM      8  C   UNL     1       6.734   1.251  -0.208  1.00  0.00     0.054 A 
ATOM      9  C   UNL     1       6.896  -0.628   1.768  1.00  0.00     0.051 A 
ATOM     10  C   UNL     1       5.709   1.165   0.740  1.00  0.00     0.166 A 
ATOM     11  C   UNL     1       5.791   0.217   1.736  1.00  0.00     0.165 A 
ATOM     12  O   UNL     1       4.537   1.867   0.922  1.00  0.00    -0.454 OA
ATOM     13  O   UNL     1       4.656   0.360   2.518  1.00  0.00    -0.454 OA
ATOM     14  C   UNL     1       3.879   1.453   2.092  1.00  0.00     0.468 C 
ENDBRANCH   5   6
ENDBRANCH   1   5
TORSDOF 3
ENDMDL
