MODEL 1
REMARK VINA RESULT:      -7.7      0.000      0.000
REMARK SMILES CC(=O)CCc1ccc2c(c1)OCO2
REMARK SMILES IDX 4 1 2 2 1 3 3 4 5 5 6 6 7 7 11 8 8 9 10 10 9 11 12 12 14 13
REMARK SMILES IDX 13 14
REMARK H PARENT
REMARK Flexibility Score: inf
ROOT
ATOM      1  C   UNL     1       5.503   1.920   1.246  1.00  0.00     0.080 C 
ENDROOT
BRANCH   1   2
ATOM      2  C   UNL     1       5.055   0.714   1.997  1.00  0.00     0.130 C 
ATOM      3  C   UNL     1       5.928  -0.481   2.147  1.00  0.00     0.087 C 
ATOM      4  O   UNL     1       3.950   0.672   2.513  1.00  0.00    -0.300 OA
ENDBRANCH   1   2
BRANCH   1   5
ATOM      5  C   UNL     1       5.379   1.715  -0.250  1.00  0.00     0.043 C 
BRANCH   5   6
ATOM      6  C   UNL     1       6.553   1.018  -0.806  1.00  0.00    -0.044 A 
ATOM      7  C   UNL     1       7.856   1.457  -0.546  1.00  0.00     0.008 A 
ATOM      8  C   UNL     1       6.375  -0.093  -1.598  1.00  0.00     0.054 A 
ATOM      9  C   UNL     1       8.920   0.763  -1.093  1.00  0.00     0.051 A 
ATOM     10  C   UNL     1       7.453  -0.792  -2.149  1.00  0.00     0.166 A 
ATOM     11  C   UNL     1       8.736  -0.360  -1.894  1.00  0.00     0.165 A 
ATOM     12  O   UNL     1       7.537  -1.906  -2.956  1.00  0.00    -0.454 OA
ATOM     13  O   UNL     1       9.590  -1.228  -2.557  1.00  0.00    -0.454 OA
ATOM     14  C   UNL     1       8.876  -2.276  -3.168  1.00  0.00     0.468 C 
ENDBRANCH   5   6
ENDBRANCH   1   5
TORSDOF 3
ENDMDL
MODEL 2
REMARK VINA RESULT:      -7.5      1.904      2.372
REMARK SMILES CC(=O)CCc1ccc2c(c1)OCO2
REMARK SMILES IDX 4 1 2 2 1 3 3 4 5 5 6 6 7 7 11 8 8 9 10 10 9 11 12 12 14 13
REMARK SMILES IDX 13 14
REMARK H PARENT
REMARK Flexibility Score: inf
ROOT
ATOM      1  C   UNL     1       5.783   1.443  -0.369  1.00  0.00     0.080 C 
ENDROOT
BRANCH   1   2
ATOM      2  C   UNL     1       5.098   1.332   0.949  1.00  0.00     0.130 C 
ATOM      3  C   UNL     1       5.406   0.229   1.898  1.00  0.00     0.087 C 
ATOM      4  O   UNL     1       4.258   2.150   1.289  1.00  0.00    -0.300 OA
ENDBRANCH   1   2
BRANCH   1   5
ATOM      5  C   UNL     1       7.265   1.153  -0.246  1.00  0.00     0.043 C 
BRANCH   5   6
ATOM      6  C   UNL     1       7.623  -0.137  -0.862  1.00  0.00    -0.044 A 
ATOM      7  C   UNL     1       7.679  -0.295  -2.251  1.00  0.00     0.008 A 
ATOM      8  C   UNL     1       7.914  -1.218  -0.061  1.00  0.00     0.054 A 
ATOM      9  C   UNL     1       8.022  -1.529  -2.773  1.00  0.00     0.051 A 
ATOM     10  C   UNL     1       8.261  -2.463  -0.593  1.00  0.00     0.166 A 
ATOM     11  C   UNL     1       8.315  -2.620  -1.961  1.00  0.00     0.165 A 
ATOM     12  O   UNL     1       8.588  -3.673  -0.018  1.00  0.00    -0.454 OA
ATOM     13  O   UNL     1       8.679  -3.936  -2.199  1.00  0.00    -0.454 OA
ATOM     14  C   UNL     1       8.950  -4.615  -0.996  1.00  0.00     0.468 C 
ENDBRANCH   5   6
ENDBRANCH   1   5
TORSDOF 3
ENDMDL
MODEL 3
REMARK VINA RESULT:      -7.2      2.060      2.599
REMARK SMILES CC(=O)CCc1ccc2c(c1)OCO2
REMARK SMILES IDX 4 1 2 2 1 3 3 4 5 5 6 6 7 7 11 8 8 9 10 10 9 11 12 12 14 13
REMARK SMILES IDX 13 14
REMARK H PARENT
REMARK Flexibility Score: inf
ROOT
ATOM      1  C   UNL     1       5.524   0.022   1.979  1.00  0.00     0.080 C 
ENDROOT
BRANCH   1   2
ATOM      2  C   UNL     1       4.621   1.171   1.687  1.00  0.00     0.130 C 
ATOM      3  C   UNL     1       4.896   2.115   0.572  1.00  0.00     0.087 C 
ATOM      4  O   UNL     1       3.624   1.371   2.362  1.00  0.00    -0.300 OA
ENDBRANCH   1   2
BRANCH   1   5
ATOM      5  C   UNL     1       6.932   0.290   1.486  1.00  0.00     0.043 C 
BRANCH   5   6
ATOM      6  C   UNL     1       7.337  -0.669   0.443  1.00  0.00    -0.044 A 
ATOM      7  C   UNL     1       7.221  -0.363  -0.918  1.00  0.00     0.008 A 
ATOM      8  C   UNL     1       7.845  -1.896   0.803  1.00  0.00     0.054 A 
ATOM      9  C   UNL     1       7.617  -1.302  -1.853  1.00  0.00     0.051 A 
ATOM     10  C   UNL     1       8.245  -2.842  -0.146  1.00  0.00     0.166 A 
ATOM     11  C   UNL     1       8.130  -2.542  -1.485  1.00  0.00     0.165 A 
ATOM     12  O   UNL     1       8.771  -4.112  -0.043  1.00  0.00    -0.454 OA
ATOM     13  O   UNL     1       8.594  -3.645  -2.184  1.00  0.00    -0.454 OA
ATOM     14  C   UNL     1       9.095  -4.628  -1.309  1.00  0.00     0.468 C 
ENDBRANCH   5   6
ENDBRANCH   1   5
TORSDOF 3
ENDMDL
MODEL 4
REMARK VINA RESULT:      -7.1      1.255      1.470
REMARK SMILES CC(=O)CCc1ccc2c(c1)OCO2
REMARK SMILES IDX 4 1 2 2 1 3 3 4 5 5 6 6 7 7 11 8 8 9 10 10 9 11 12 12 14 13
REMARK SMILES IDX 13 14
REMARK H PARENT
REMARK Flexibility Score: inf
ROOT
ATOM      1  C   UNL     1       6.386   1.189   0.920  1.00  0.00     0.080 C 
ENDROOT
BRANCH   1   2
ATOM      2  C   UNL     1       5.669   0.370   1.936  1.00  0.00     0.130 C 
ATOM      3  C   UNL     1       6.272  -0.860   2.515  1.00  0.00     0.087 C 
ATOM      4  O   UNL     1       4.557   0.688   2.326  1.00  0.00    -0.300 OA
ENDBRANCH   1   2
BRANCH   1   5
ATOM      5  C   UNL     1       5.875   0.903  -0.478  1.00  0.00     0.043 C 
BRANCH   5   6
ATOM      6  C   UNL     1       6.827   0.086  -1.252  1.00  0.00    -0.044 A 
ATOM      7  C   UNL     1       7.522   0.611  -2.347  1.00  0.00     0.008 A 
ATOM      8  C   UNL     1       7.048  -1.225  -0.895  1.00  0.00     0.054 A 
ATOM      9  C   UNL     1       8.404  -0.203  -3.035  1.00  0.00     0.051 A 
ATOM     10  C   UNL     1       7.941  -2.043  -1.593  1.00  0.00     0.166 A 
ATOM     11  C   UNL     1       8.624  -1.528  -2.672  1.00  0.00     0.165 A 
ATOM     12  O   UNL     1       8.328  -3.358  -1.440  1.00  0.00    -0.454 OA
ATOM     13  O   UNL     1       9.426  -2.547  -3.163  1.00  0.00    -0.454 OA
ATOM     14  C   UNL     1       9.337  -3.697  -2.356  1.00  0.00     0.468 C 
ENDBRANCH   5   6
ENDBRANCH   1   5
TORSDOF 3
ENDMDL
MODEL 5
REMARK VINA RESULT:      -6.8      1.259      1.752
REMARK SMILES CC(=O)CCc1ccc2c(c1)OCO2
REMARK SMILES IDX 4 1 2 2 1 3 3 4 5 5 6 6 7 7 11 8 8 9 10 10 9 11 12 12 14 13
REMARK SMILES IDX 13 14
REMARK H PARENT
REMARK Flexibility Score: inf
ROOT
ATOM      1  C   UNL     1       5.295  -0.083   1.950  1.00  0.00     0.080 C 
ENDROOT
BRANCH   1   2
ATOM      2  C   UNL     1       4.428   1.117   1.782  1.00  0.00     0.130 C 
ATOM      3  C   UNL     1       4.717   2.150   0.751  1.00  0.00     0.087 C 
ATOM      4  O   UNL     1       3.449   1.287   2.490  1.00  0.00    -0.300 OA
ENDBRANCH   1   2
BRANCH   1   5
ATOM      5  C   UNL     1       6.764   0.289   1.904  1.00  0.00     0.043 C 
BRANCH   5   6
ATOM      6  C   UNL     1       7.375  -0.058   0.608  1.00  0.00    -0.044 A 
ATOM      7  C   UNL     1       7.866   0.926  -0.258  1.00  0.00     0.008 A 
ATOM      8  C   UNL     1       7.472  -1.378   0.231  1.00  0.00     0.054 A 
ATOM      9  C   UNL     1       8.429   0.541  -1.461  1.00  0.00     0.051 A 
ATOM     10  C   UNL     1       8.043  -1.762  -0.986  1.00  0.00     0.166 A 
ATOM     11  C   UNL     1       8.525  -0.795  -1.839  1.00  0.00     0.165 A 
ATOM     12  O   UNL     1       8.252  -2.989  -1.580  1.00  0.00    -0.454 OA
ATOM     13  O   UNL     1       9.026  -1.454  -2.950  1.00  0.00    -0.454 OA
ATOM     14  C   UNL     1       8.956  -2.850  -2.788  1.00  0.00     0.468 C 
ENDBRANCH   5   6
ENDBRANCH   1   5
TORSDOF 3
ENDMDL
