@<TRIPOS>MOLECULE
/home/cewinharhar/GITHUB/reincatalyze/data/processed/docking_pred/2023-May-30-2130_sub9_nm5_bs15_s42_ex16_mel10_mts10000_k50_ec05_g099_lra3e-4_lrc3e-3/b5d8ef79598a19f225f638ddcef2ce8c15e2d4c1_ligand_9.pdbqt
 14 15 0 0 0
SMALL
GASTEIGER

@<TRIPOS>ATOM
      1  C          5.5030    1.9200    1.2460 C.3     1  UNL1        0.0800
      2  C          5.0550    0.7140    1.9970 C.2     1  UNL1        0.1300
      3  C          5.9280   -0.4810    2.1470 C.3     1  UNL1        0.0870
      4  O          3.9500    0.6720    2.5130 O.2     1  UNL1       -0.3000
      5  C          5.3790    1.7150   -0.2500 C.3     1  UNL1        0.0430
      6  C          6.5530    1.0180   -0.8060 C.2     1  UNL1       -0.0440
      7  C          7.8560    1.4570   -0.5460 C.2     1  UNL1        0.0080
      8  C          6.3750   -0.0930   -1.5980 C.2     1  UNL1        0.0540
      9  C          8.9200    0.7630   -1.0930 C.2     1  UNL1        0.0510
     10  C          7.4530   -0.7920   -2.1490 C.2     1  UNL1        0.1660
     11  C          8.7360   -0.3600   -1.8940 C.2     1  UNL1        0.1650
     12  O          7.5370   -1.9060   -2.9560 O.2     1  UNL1       -0.4540
     13  O          9.5900   -1.2280   -2.5570 O.2     1  UNL1       -0.4540
     14  C          8.8760   -2.2760   -3.1680 C.3     1  UNL1        0.4680
@<TRIPOS>BOND
     1    14    12    1
     2    14    13    1
     3    12    10    1
     4    13    11    1
     5    10    11    2
     6    10     8    1
     7    11     9    1
     8     8     6    2
     9     9     7    2
    10     6     7    1
    11     6     5    1
    12     5     1    1
    13     1     2    1
    14     2     3    1
    15     2     4    2
