@<TRIPOS>MOLECULE
/home/cewinharhar/GITHUB/reincatalyze/data/processed/docking_pred/2023-May-30-2130_sub9_nm5_bs15_s42_ex16_mel10_mts10000_k50_ec05_g099_lra3e-4_lrc3e-3/b5d8ef79598a19f225f638ddcef2ce8c15e2d4c1_ligand_9.pdbqt
 14 15 0 0 0
SMALL
GASTEIGER

@<TRIPOS>ATOM
      1  C          6.3860    1.1890    0.9200 C.3     1  UNL1        0.0800
      2  C          5.6690    0.3700    1.9360 C.2     1  UNL1        0.1300
      3  C          6.2720   -0.8600    2.5150 C.3     1  UNL1        0.0870
      4  O          4.5570    0.6880    2.3260 O.2     1  UNL1       -0.3000
      5  C          5.8750    0.9030   -0.4780 C.3     1  UNL1        0.0430
      6  C          6.8270    0.0860   -1.2520 C.2     1  UNL1       -0.0440
      7  C          7.5220    0.6110   -2.3470 C.2     1  UNL1        0.0080
      8  C          7.0480   -1.2250   -0.8950 C.2     1  UNL1        0.0540
      9  C          8.4040   -0.2030   -3.0350 C.2     1  UNL1        0.0510
     10  C          7.9410   -2.0430   -1.5930 C.2     1  UNL1        0.1660
     11  C          8.6240   -1.5280   -2.6720 C.2     1  UNL1        0.1650
     12  O          8.3280   -3.3580   -1.4400 O.2     1  UNL1       -0.4540
     13  O          9.4260   -2.5470   -3.1630 O.2     1  UNL1       -0.4540
     14  C          9.3370   -3.6970   -2.3560 C.3     1  UNL1        0.4680
@<TRIPOS>BOND
     1    13    11    1
     2    13    14    1
     3     9    11    2
     4     9     7    1
     5    11    10    1
     6    14    12    1
     7     7     6    2
     8    10    12    1
     9    10     8    2
    10     6     8    1
    11     6     5    1
    12     5     1    1
    13     1     2    1
    14     2     4    2
    15     2     3    1
