@<TRIPOS>MOLECULE
/home/cewinharhar/GITHUB/reincatalyze/data/processed/docking_pred/2023-May-30-2130_sub9_nm5_bs15_s42_ex16_mel10_mts10000_k50_ec05_g099_lra3e-4_lrc3e-3/b5f7d4a2d914252a6bbd971338c7ac1ea6a3e46f_ligand_9.pdbqt
 14 15 0 0 0
SMALL
GASTEIGER

@<TRIPOS>ATOM
      1  C          5.6230    1.3590   -0.2350 C.3     1  UNL1        0.0800
      2  C          5.0260    1.2390    1.1240 C.2     1  UNL1        0.1300
      3  C          5.3960    0.1310    2.0450 C.3     1  UNL1        0.0870
      4  O          4.2090    2.0520    1.5240 O.2     1  UNL1       -0.3000
      5  C          7.1230    1.1410   -0.1980 C.3     1  UNL1        0.0430
      6  C          7.5030   -0.1470   -0.8060 C.2     1  UNL1       -0.0440
      7  C          7.5170   -0.3260   -2.1950 C.2     1  UNL1        0.0080
      8  C          7.8570   -1.2040    0.0000 C.2     1  UNL1        0.0540
      9  C          7.8830   -1.5560   -2.7090 C.2     1  UNL1        0.0510
     10  C          8.2280   -2.4460   -0.5250 C.2     1  UNL1        0.1660
     11  C          8.2400   -2.6230   -1.8900 C.2     1  UNL1        0.1650
     12  O          8.6140   -3.6350    0.0570 O.2     1  UNL1       -0.4540
     13  O          8.6400   -3.9300   -2.1210 O.2     1  UNL1       -0.4540
     14  C          8.9750   -4.5790   -0.9180 C.3     1  UNL1        0.4680
@<TRIPOS>BOND
     1     9     7    1
     2     9    11    2
     3     7     6    2
     4    13    11    1
     5    13    14    1
     6    11    10    1
     7    14    12    1
     8     6     5    1
     9     6     8    1
    10    10     8    2
    11    10    12    1
    12     1     5    1
    13     1     2    1
    14     2     4    2
    15     2     3    1
