MODEL 1
REMARK VINA RESULT:      -7.7      0.000      0.000
REMARK SMILES CC(=O)CCc1ccc2c(c1)OCO2
REMARK SMILES IDX 4 1 2 2 1 3 3 4 5 5 6 6 7 7 11 8 8 9 10 10 9 11 12 12 14 13
REMARK SMILES IDX 13 14
REMARK H PARENT
REMARK Flexibility Score: inf
ROOT
ATOM      1  C   UNL     1       5.562   1.911   1.290  1.00  0.00     0.080 C 
ENDROOT
BRANCH   1   2
ATOM      2  C   UNL     1       5.112   0.693   2.020  1.00  0.00     0.130 C 
ATOM      3  C   UNL     1       6.001  -0.487   2.194  1.00  0.00     0.087 C 
ATOM      4  O   UNL     1       3.991   0.628   2.500  1.00  0.00    -0.300 OA
ENDBRANCH   1   2
BRANCH   1   5
ATOM      5  C   UNL     1       5.427   1.735  -0.209  1.00  0.00     0.043 C 
BRANCH   5   6
ATOM      6  C   UNL     1       6.587   1.031  -0.783  1.00  0.00    -0.044 A 
ATOM      7  C   UNL     1       7.897   1.465  -0.549  1.00  0.00     0.008 A 
ATOM      8  C   UNL     1       6.390  -0.082  -1.569  1.00  0.00     0.054 A 
ATOM      9  C   UNL     1       8.947   0.764  -1.113  1.00  0.00     0.051 A 
ATOM     10  C   UNL     1       7.455  -0.788  -2.136  1.00  0.00     0.166 A 
ATOM     11  C   UNL     1       8.744  -0.361  -1.907  1.00  0.00     0.165 A 
ATOM     12  O   UNL     1       7.519  -1.905  -2.941  1.00  0.00    -0.454 OA
ATOM     13  O   UNL     1       9.582  -1.235  -2.582  1.00  0.00    -0.454 OA
ATOM     14  C   UNL     1       8.852  -2.282  -3.176  1.00  0.00     0.468 C 
ENDBRANCH   5   6
ENDBRANCH   1   5
TORSDOF 3
ENDMDL
MODEL 2
REMARK VINA RESULT:      -7.4      1.904      2.349
REMARK SMILES CC(=O)CCc1ccc2c(c1)OCO2
REMARK SMILES IDX 4 1 2 2 1 3 3 4 5 5 6 6 7 7 11 8 8 9 10 10 9 11 12 12 14 13
REMARK SMILES IDX 13 14
REMARK H PARENT
REMARK Flexibility Score: inf
ROOT
ATOM      1  C   UNL     1       5.623   1.359  -0.235  1.00  0.00     0.080 C 
ENDROOT
BRANCH   1   2
ATOM      2  C   UNL     1       5.026   1.239   1.124  1.00  0.00     0.130 C 
ATOM      3  C   UNL     1       5.396   0.131   2.045  1.00  0.00     0.087 C 
ATOM      4  O   UNL     1       4.209   2.052   1.524  1.00  0.00    -0.300 OA
ENDBRANCH   1   2
BRANCH   1   5
ATOM      5  C   UNL     1       7.123   1.141  -0.198  1.00  0.00     0.043 C 
BRANCH   5   6
ATOM      6  C   UNL     1       7.503  -0.147  -0.806  1.00  0.00    -0.044 A 
ATOM      7  C   UNL     1       7.517  -0.326  -2.195  1.00  0.00     0.008 A 
ATOM      8  C   UNL     1       7.857  -1.204   0.000  1.00  0.00     0.054 A 
ATOM      9  C   UNL     1       7.883  -1.556  -2.709  1.00  0.00     0.051 A 
ATOM     10  C   UNL     1       8.228  -2.446  -0.525  1.00  0.00     0.166 A 
ATOM     11  C   UNL     1       8.240  -2.623  -1.890  1.00  0.00     0.165 A 
ATOM     12  O   UNL     1       8.614  -3.635   0.057  1.00  0.00    -0.454 OA
ATOM     13  O   UNL     1       8.640  -3.930  -2.121  1.00  0.00    -0.454 OA
ATOM     14  C   UNL     1       8.975  -4.579  -0.918  1.00  0.00     0.468 C 
ENDBRANCH   5   6
ENDBRANCH   1   5
TORSDOF 3
ENDMDL
MODEL 3
REMARK VINA RESULT:      -7.2      2.071      2.598
REMARK SMILES CC(=O)CCc1ccc2c(c1)OCO2
REMARK SMILES IDX 4 1 2 2 1 3 3 4 5 5 6 6 7 7 11 8 8 9 10 10 9 11 12 12 14 13
REMARK SMILES IDX 13 14
REMARK H PARENT
REMARK Flexibility Score: inf
ROOT
ATOM      1  C   UNL     1       5.616   0.066   1.950  1.00  0.00     0.080 C 
ENDROOT
BRANCH   1   2
ATOM      2  C   UNL     1       4.692   1.186   1.618  1.00  0.00     0.130 C 
ATOM      3  C   UNL     1       4.975   2.125   0.500  1.00  0.00     0.087 C 
ATOM      4  O   UNL     1       3.669   1.365   2.258  1.00  0.00    -0.300 OA
ENDBRANCH   1   2
BRANCH   1   5
ATOM      5  C   UNL     1       7.013   0.330   1.425  1.00  0.00     0.043 C 
BRANCH   5   6
ATOM      6  C   UNL     1       7.403  -0.647   0.394  1.00  0.00    -0.044 A 
ATOM      7  C   UNL     1       7.290  -0.358  -0.971  1.00  0.00     0.008 A 
ATOM      8  C   UNL     1       7.895  -1.877   0.771  1.00  0.00     0.054 A 
ATOM      9  C   UNL     1       7.673  -1.314  -1.893  1.00  0.00     0.051 A 
ATOM     10  C   UNL     1       8.281  -2.840  -0.166  1.00  0.00     0.166 A 
ATOM     11  C   UNL     1       8.169  -2.556  -1.509  1.00  0.00     0.165 A 
ATOM     12  O   UNL     1       8.791  -4.116  -0.047  1.00  0.00    -0.454 OA
ATOM     13  O   UNL     1       8.618  -3.675  -2.194  1.00  0.00    -0.454 OA
ATOM     14  C   UNL     1       9.106  -4.652  -1.306  1.00  0.00     0.468 C 
ENDBRANCH   5   6
ENDBRANCH   1   5
TORSDOF 3
ENDMDL
MODEL 4
REMARK VINA RESULT:      -7.1      1.239      1.439
REMARK SMILES CC(=O)CCc1ccc2c(c1)OCO2
REMARK SMILES IDX 4 1 2 2 1 3 3 4 5 5 6 6 7 7 11 8 8 9 10 10 9 11 12 12 14 13
REMARK SMILES IDX 13 14
REMARK H PARENT
REMARK Flexibility Score: inf
ROOT
ATOM      1  C   UNL     1       6.364   1.224   0.937  1.00  0.00     0.080 C 
ENDROOT
BRANCH   1   2
ATOM      2  C   UNL     1       5.656   0.372   1.933  1.00  0.00     0.130 C 
ATOM      3  C   UNL     1       6.277  -0.860   2.488  1.00  0.00     0.087 C 
ATOM      4  O   UNL     1       4.538   0.664   2.324  1.00  0.00    -0.300 OA
ENDBRANCH   1   2
BRANCH   1   5
ATOM      5  C   UNL     1       5.859   0.964  -0.468  1.00  0.00     0.043 C 
BRANCH   5   6
ATOM      6  C   UNL     1       6.800   0.135  -1.242  1.00  0.00    -0.044 A 
ATOM      7  C   UNL     1       7.484   0.645  -2.352  1.00  0.00     0.008 A 
ATOM      8  C   UNL     1       7.022  -1.172  -0.873  1.00  0.00     0.054 A 
ATOM      9  C   UNL     1       8.356  -0.179  -3.040  1.00  0.00     0.051 A 
ATOM     10  C   UNL     1       7.905  -2.001  -1.571  1.00  0.00     0.166 A 
ATOM     11  C   UNL     1       8.577  -1.500  -2.664  1.00  0.00     0.165 A 
ATOM     12  O   UNL     1       8.290  -3.314  -1.406  1.00  0.00    -0.454 OA
ATOM     13  O   UNL     1       9.370  -2.527  -3.151  1.00  0.00    -0.454 OA
ATOM     14  C   UNL     1       9.288  -3.667  -2.329  1.00  0.00     0.468 C 
ENDBRANCH   5   6
ENDBRANCH   1   5
TORSDOF 3
ENDMDL
MODEL 5
REMARK VINA RESULT:      -6.8      1.183      5.159
REMARK SMILES CC(=O)CCc1ccc2c(c1)OCO2
REMARK SMILES IDX 4 1 2 2 1 3 3 4 5 5 6 6 7 7 11 8 8 9 10 10 9 11 12 12 14 13
REMARK SMILES IDX 13 14
REMARK H PARENT
REMARK Flexibility Score: inf
ROOT
ATOM      1  C   UNL     1       8.314   0.197  -2.690  1.00  0.00     0.080 C 
ENDROOT
BRANCH   1   2
ATOM      2  C   UNL     1       8.037  -1.265  -2.747  1.00  0.00     0.130 C 
ATOM      3  C   UNL     1       9.115  -2.254  -3.015  1.00  0.00     0.087 C 
ATOM      4  O   UNL     1       6.909  -1.696  -2.574  1.00  0.00    -0.300 OA
ENDBRANCH   1   2
BRANCH   1   5
ATOM      5  C   UNL     1       8.843   0.605  -1.329  1.00  0.00     0.043 C 
BRANCH   5   6
ATOM      6  C   UNL     1       7.820   0.458  -0.279  1.00  0.00    -0.044 A 
ATOM      7  C   UNL     1       7.946  -0.496   0.738  1.00  0.00     0.008 A 
ATOM      8  C   UNL     1       6.712   1.273  -0.287  1.00  0.00     0.054 A 
ATOM      9  C   UNL     1       6.954  -0.588   1.697  1.00  0.00     0.051 A 
ATOM     10  C   UNL     1       5.712   1.177   0.686  1.00  0.00     0.166 A 
ATOM     11  C   UNL     1       5.835   0.238   1.686  1.00  0.00     0.165 A 
ATOM     12  O   UNL     1       4.533   1.860   0.893  1.00  0.00    -0.454 OA
ATOM     13  O   UNL     1       4.717   0.367   2.496  1.00  0.00    -0.454 OA
ATOM     14  C   UNL     1       3.911   1.444   2.081  1.00  0.00     0.468 C 
ENDBRANCH   5   6
ENDBRANCH   1   5
TORSDOF 3
ENDMDL
