@<TRIPOS>MOLECULE
/home/cewinharhar/GITHUB/reincatalyze/data/processed/docking_pred/2023-May-30-2130_sub9_nm5_bs15_s42_ex16_mel10_mts10000_k50_ec05_g099_lra3e-4_lrc3e-3/b5f7d4a2d914252a6bbd971338c7ac1ea6a3e46f_ligand_9.pdbqt
 14 15 0 0 0
SMALL
GASTEIGER

@<TRIPOS>ATOM
      1  C          6.3640    1.2240    0.9370 C.3     1  UNL1        0.0800
      2  C          5.6560    0.3720    1.9330 C.2     1  UNL1        0.1300
      3  C          6.2770   -0.8600    2.4880 C.3     1  UNL1        0.0870
      4  O          4.5380    0.6640    2.3240 O.2     1  UNL1       -0.3000
      5  C          5.8590    0.9640   -0.4680 C.3     1  UNL1        0.0430
      6  C          6.8000    0.1350   -1.2420 C.2     1  UNL1       -0.0440
      7  C          7.4840    0.6450   -2.3520 C.2     1  UNL1        0.0080
      8  C          7.0220   -1.1720   -0.8730 C.2     1  UNL1        0.0540
      9  C          8.3560   -0.1790   -3.0400 C.2     1  UNL1        0.0510
     10  C          7.9050   -2.0010   -1.5710 C.2     1  UNL1        0.1660
     11  C          8.5770   -1.5000   -2.6640 C.2     1  UNL1        0.1650
     12  O          8.2900   -3.3140   -1.4060 O.2     1  UNL1       -0.4540
     13  O          9.3700   -2.5270   -3.1510 O.2     1  UNL1       -0.4540
     14  C          9.2880   -3.6670   -2.3290 C.3     1  UNL1        0.4680
@<TRIPOS>BOND
     1    13    11    1
     2    13    14    1
     3     9    11    2
     4     9     7    1
     5    11    10    1
     6     7     6    2
     7    14    12    1
     8    10    12    1
     9    10     8    2
    10     6     8    1
    11     6     5    1
    12     5     1    1
    13     1     2    1
    14     2     4    2
    15     2     3    1
