@<TRIPOS>MOLECULE
/home/cewinharhar/GITHUB/reincatalyze/data/processed/docking_pred/2023-May-30-2130_sub9_nm5_bs15_s42_ex16_mel10_mts10000_k50_ec05_g099_lra3e-4_lrc3e-3/b5f7d4a2d914252a6bbd971338c7ac1ea6a3e46f_ligand_9.pdbqt
 14 15 0 0 0
SMALL
GASTEIGER

@<TRIPOS>ATOM
      1  C          5.6160    0.0660    1.9500 C.3     1  UNL1        0.0800
      2  C          4.6920    1.1860    1.6180 C.2     1  UNL1        0.1300
      3  C          4.9750    2.1250    0.5000 C.3     1  UNL1        0.0870
      4  O          3.6690    1.3650    2.2580 O.2     1  UNL1       -0.3000
      5  C          7.0130    0.3300    1.4250 C.3     1  UNL1        0.0430
      6  C          7.4030   -0.6470    0.3940 C.2     1  UNL1       -0.0440
      7  C          7.2900   -0.3580   -0.9710 C.2     1  UNL1        0.0080
      8  C          7.8950   -1.8770    0.7710 C.2     1  UNL1        0.0540
      9  C          7.6730   -1.3140   -1.8930 C.2     1  UNL1        0.0510
     10  C          8.2810   -2.8400   -0.1660 C.2     1  UNL1        0.1660
     11  C          8.1690   -2.5560   -1.5090 C.2     1  UNL1        0.1650
     12  O          8.7910   -4.1160   -0.0470 O.2     1  UNL1       -0.4540
     13  O          8.6180   -3.6750   -2.1940 O.2     1  UNL1       -0.4540
     14  C          9.1060   -4.6520   -1.3060 C.3     1  UNL1        0.4680
@<TRIPOS>BOND
     1    13    11    1
     2    13    14    1
     3     9    11    2
     4     9     7    1
     5    11    10    1
     6    14    12    1
     7     7     6    2
     8    10    12    1
     9    10     8    2
    10     6     8    1
    11     6     5    1
    12     3     2    1
    13     5     1    1
    14     2     1    1
    15     2     4    2
