@<TRIPOS>MOLECULE
/home/cewinharhar/GITHUB/reincatalyze/data/processed/docking_pred/2023-May-30-2130_sub9_nm5_bs15_s42_ex16_mel10_mts10000_k50_ec05_g099_lra3e-4_lrc3e-3/b5f7d4a2d914252a6bbd971338c7ac1ea6a3e46f_ligand_9.pdbqt
 14 15 0 0 0
SMALL
GASTEIGER

@<TRIPOS>ATOM
      1  C          8.3140    0.1970   -2.6900 C.3     1  UNL1        0.0800
      2  C          8.0370   -1.2650   -2.7470 C.2     1  UNL1        0.1300
      3  C          9.1150   -2.2540   -3.0150 C.3     1  UNL1        0.0870
      4  O          6.9090   -1.6960   -2.5740 O.2     1  UNL1       -0.3000
      5  C          8.8430    0.6050   -1.3290 C.3     1  UNL1        0.0430
      6  C          7.8200    0.4580   -0.2790 C.2     1  UNL1       -0.0440
      7  C          7.9460   -0.4960    0.7380 C.2     1  UNL1        0.0080
      8  C          6.7120    1.2730   -0.2870 C.2     1  UNL1        0.0540
      9  C          6.9540   -0.5880    1.6970 C.2     1  UNL1        0.0510
     10  C          5.7120    1.1770    0.6860 C.2     1  UNL1        0.1660
     11  C          5.8350    0.2380    1.6860 C.2     1  UNL1        0.1650
     12  O          4.5330    1.8600    0.8930 O.2     1  UNL1       -0.4540
     13  O          4.7170    0.3670    2.4960 O.2     1  UNL1       -0.4540
     14  C          3.9110    1.4440    2.0810 C.3     1  UNL1        0.4680
@<TRIPOS>BOND
     1     3     2    1
     2     2     1    1
     3     2     4    2
     4     1     5    1
     5     5     6    1
     6     8     6    2
     7     8    10    1
     8     6     7    1
     9    10    12    1
    10    10    11    2
    11     7     9    2
    12    12    14    1
    13    11     9    1
    14    11    13    1
    15    14    13    1
