@<TRIPOS>MOLECULE
/home/cewinharhar/GITHUB/reincatalyze/data/processed/docking_pred/2023-May-30-2130_sub9_nm5_bs15_s42_ex16_mel10_mts10000_k50_ec05_g099_lra3e-4_lrc3e-3/b658f69152bbaa0d4df6d0fc1d77222c9f34aa3c_ligand_9.pdbqt
 14 15 0 0 0
SMALL
GASTEIGER

@<TRIPOS>ATOM
      1  C          6.3140    1.3000    0.8490 C.3     1  UNL1        0.0800
      2  C          5.6560    0.4870    1.9090 C.2     1  UNL1        0.1300
      3  C          6.3040   -0.7240    2.4800 C.3     1  UNL1        0.0870
      4  O          4.5570    0.7930    2.3420 O.2     1  UNL1       -0.3000
      5  C          5.7970    0.9330   -0.5280 C.3     1  UNL1        0.0430
      6  C          6.7730    0.1250   -1.2810 C.2     1  UNL1       -0.0440
      7  C          7.4980    0.6610   -2.3510 C.2     1  UNL1        0.0080
      8  C          6.9860   -1.1890   -0.9300 C.2     1  UNL1        0.0540
      9  C          8.4010   -0.1440   -3.0210 C.2     1  UNL1        0.0510
     10  C          7.9010   -1.9990   -1.6100 C.2     1  UNL1        0.1660
     11  C          8.6140   -1.4720   -2.6640 C.2     1  UNL1        0.1650
     12  O          8.2870   -3.3130   -1.4570 O.2     1  UNL1       -0.4540
     13  O          9.4320   -2.4840   -3.1400 O.2     1  UNL1       -0.4540
     14  C          9.3230   -3.6420   -2.3470 C.3     1  UNL1        0.4680
@<TRIPOS>BOND
     1    13    11    1
     2    13    14    1
     3     9    11    2
     4     9     7    1
     5    11    10    1
     6     7     6    2
     7    14    12    1
     8    10    12    1
     9    10     8    2
    10     6     8    1
    11     6     5    1
    12     5     1    1
    13     1     2    1
    14     2     4    2
    15     2     3    1
