MODEL 1
REMARK VINA RESULT:      -7.6      0.000      0.000
REMARK SMILES CC(=O)CCc1ccc2c(c1)OCO2
REMARK SMILES IDX 4 1 2 2 1 3 3 4 5 5 6 6 7 7 11 8 8 9 10 10 9 11 12 12 14 13
REMARK SMILES IDX 13 14
REMARK H PARENT
REMARK Flexibility Score: inf
ROOT
ATOM      1  C   UNL     1       5.553   1.916   1.281  1.00  0.00     0.080 C 
ENDROOT
BRANCH   1   2
ATOM      2  C   UNL     1       5.109   0.702   2.020  1.00  0.00     0.130 C 
ATOM      3  C   UNL     1       6.001  -0.475   2.197  1.00  0.00     0.087 C 
ATOM      4  O   UNL     1       3.991   0.637   2.505  1.00  0.00    -0.300 OA
ENDBRANCH   1   2
BRANCH   1   5
ATOM      5  C   UNL     1       5.417   1.729  -0.217  1.00  0.00     0.043 C 
BRANCH   5   6
ATOM      6  C   UNL     1       6.580   1.027  -0.788  1.00  0.00    -0.044 A 
ATOM      7  C   UNL     1       7.889   1.464  -0.551  1.00  0.00     0.008 A 
ATOM      8  C   UNL     1       6.387  -0.087  -1.573  1.00  0.00     0.054 A 
ATOM      9  C   UNL     1       8.942   0.764  -1.113  1.00  0.00     0.051 A 
ATOM     10  C   UNL     1       7.455  -0.791  -2.138  1.00  0.00     0.166 A 
ATOM     11  C   UNL     1       8.743  -0.361  -1.906  1.00  0.00     0.165 A 
ATOM     12  O   UNL     1       7.523  -1.909  -2.941  1.00  0.00    -0.454 OA
ATOM     13  O   UNL     1       9.583  -1.235  -2.578  1.00  0.00    -0.454 OA
ATOM     14  C   UNL     1       8.857  -2.283  -3.173  1.00  0.00     0.468 C 
ENDBRANCH   5   6
ENDBRANCH   1   5
TORSDOF 3
ENDMDL
MODEL 2
REMARK VINA RESULT:      -7.2      1.896      2.307
REMARK SMILES CC(=O)CCc1ccc2c(c1)OCO2
REMARK SMILES IDX 4 1 2 2 1 3 3 4 5 5 6 6 7 7 11 8 8 9 10 10 9 11 12 12 14 13
REMARK SMILES IDX 13 14
REMARK H PARENT
REMARK Flexibility Score: inf
ROOT
ATOM      1  C   UNL     1       5.759   1.618  -0.178  1.00  0.00     0.080 C 
ENDROOT
BRANCH   1   2
ATOM      2  C   UNL     1       5.054   1.314   1.098  1.00  0.00     0.130 C 
ATOM      3  C   UNL     1       5.426   0.143   1.936  1.00  0.00     0.087 C 
ATOM      4  O   UNL     1       4.144   2.023   1.495  1.00  0.00    -0.300 OA
ENDBRANCH   1   2
BRANCH   1   5
ATOM      5  C   UNL     1       7.238   1.300  -0.079  1.00  0.00     0.043 C 
BRANCH   5   6
ATOM      6  C   UNL     1       7.561   0.002  -0.696  1.00  0.00    -0.044 A 
ATOM      7  C   UNL     1       7.512  -0.184  -2.083  1.00  0.00     0.008 A 
ATOM      8  C   UNL     1       7.923  -1.061   0.100  1.00  0.00     0.054 A 
ATOM      9  C   UNL     1       7.826  -1.425  -2.605  1.00  0.00     0.051 A 
ATOM     10  C   UNL     1       8.240  -2.314  -0.433  1.00  0.00     0.166 A 
ATOM     11  C   UNL     1       8.191  -2.497  -1.797  1.00  0.00     0.165 A 
ATOM     12  O   UNL     1       8.622  -3.509   0.138  1.00  0.00    -0.454 OA
ATOM     13  O   UNL     1       8.548  -3.815  -2.038  1.00  0.00    -0.454 OA
ATOM     14  C   UNL     1       8.918  -4.467  -0.846  1.00  0.00     0.468 C 
ENDBRANCH   5   6
ENDBRANCH   1   5
TORSDOF 3
ENDMDL
MODEL 3
REMARK VINA RESULT:      -7.2      2.056      2.628
REMARK SMILES CC(=O)CCc1ccc2c(c1)OCO2
REMARK SMILES IDX 4 1 2 2 1 3 3 4 5 5 6 6 7 7 11 8 8 9 10 10 9 11 12 12 14 13
REMARK SMILES IDX 13 14
REMARK H PARENT
REMARK Flexibility Score: inf
ROOT
ATOM      1  C   UNL     1       5.420  -0.056   2.010  1.00  0.00     0.080 C 
ENDROOT
BRANCH   1   2
ATOM      2  C   UNL     1       4.578   1.148   1.764  1.00  0.00     0.130 C 
ATOM      3  C   UNL     1       4.913   2.132   0.701  1.00  0.00     0.087 C 
ATOM      4  O   UNL     1       3.581   1.363   2.435  1.00  0.00    -0.300 OA
ENDBRANCH   1   2
BRANCH   1   5
ATOM      5  C   UNL     1       6.859   0.186   1.600  1.00  0.00     0.043 C 
BRANCH   5   6
ATOM      6  C   UNL     1       7.287  -0.739   0.535  1.00  0.00    -0.044 A 
ATOM      7  C   UNL     1       7.163  -0.405  -0.818  1.00  0.00     0.008 A 
ATOM      8  C   UNL     1       7.825  -1.961   0.869  1.00  0.00     0.054 A 
ATOM      9  C   UNL     1       7.583  -1.313  -1.774  1.00  0.00     0.051 A 
ATOM     10  C   UNL     1       8.248  -2.875  -0.101  1.00  0.00     0.166 A 
ATOM     11  C   UNL     1       8.126  -2.548  -1.433  1.00  0.00     0.165 A 
ATOM     12  O   UNL     1       8.806  -4.133  -0.026  1.00  0.00    -0.454 OA
ATOM     13  O   UNL     1       8.617  -3.624  -2.156  1.00  0.00    -0.454 OA
ATOM     14  C   UNL     1       9.142  -4.613  -1.303  1.00  0.00     0.468 C 
ENDBRANCH   5   6
ENDBRANCH   1   5
TORSDOF 3
ENDMDL
MODEL 4
REMARK VINA RESULT:      -7.0      1.990      2.554
REMARK SMILES CC(=O)CCc1ccc2c(c1)OCO2
REMARK SMILES IDX 4 1 2 2 1 3 3 4 5 5 6 6 7 7 11 8 8 9 10 10 9 11 12 12 14 13
REMARK SMILES IDX 13 14
REMARK H PARENT
REMARK Flexibility Score: inf
ROOT
ATOM      1  C   UNL     1       6.672   0.576   1.365  1.00  0.00     0.080 C 
ENDROOT
BRANCH   1   2
ATOM      2  C   UNL     1       5.291   1.127   1.449  1.00  0.00     0.130 C 
ATOM      3  C   UNL     1       4.798   2.148   0.487  1.00  0.00     0.087 C 
ATOM      4  O   UNL     1       4.519   0.753   2.317  1.00  0.00    -0.300 OA
ENDBRANCH   1   2
BRANCH   1   5
ATOM      5  C   UNL     1       7.295   0.856   0.011  1.00  0.00     0.043 C 
BRANCH   5   6
ATOM      6  C   UNL     1       7.689  -0.386  -0.677  1.00  0.00    -0.044 A 
ATOM      7  C   UNL     1       7.811  -0.446  -2.070  1.00  0.00     0.008 A 
ATOM      8  C   UNL     1       7.949  -1.520   0.059  1.00  0.00     0.054 A 
ATOM      9  C   UNL     1       8.186  -1.640  -2.660  1.00  0.00     0.051 A 
ATOM     10  C   UNL     1       8.328  -2.724  -0.542  1.00  0.00     0.166 A 
ATOM     11  C   UNL     1       8.447  -2.784  -1.913  1.00  0.00     0.165 A 
ATOM     12  O   UNL     1       8.635  -3.970  -0.039  1.00  0.00    -0.454 OA
ATOM     13  O   UNL     1       8.829  -4.079  -2.226  1.00  0.00    -0.454 OA
ATOM     14  C   UNL     1       9.048  -4.840  -1.061  1.00  0.00     0.468 C 
ENDBRANCH   5   6
ENDBRANCH   1   5
TORSDOF 3
ENDMDL
MODEL 5
REMARK VINA RESULT:      -7.0      1.233      1.415
REMARK SMILES CC(=O)CCc1ccc2c(c1)OCO2
REMARK SMILES IDX 4 1 2 2 1 3 3 4 5 5 6 6 7 7 11 8 8 9 10 10 9 11 12 12 14 13
REMARK SMILES IDX 13 14
REMARK H PARENT
REMARK Flexibility Score: inf
ROOT
ATOM      1  C   UNL     1       6.314   1.300   0.849  1.00  0.00     0.080 C 
ENDROOT
BRANCH   1   2
ATOM      2  C   UNL     1       5.656   0.487   1.909  1.00  0.00     0.130 C 
ATOM      3  C   UNL     1       6.304  -0.724   2.480  1.00  0.00     0.087 C 
ATOM      4  O   UNL     1       4.557   0.793   2.342  1.00  0.00    -0.300 OA
ENDBRANCH   1   2
BRANCH   1   5
ATOM      5  C   UNL     1       5.797   0.933  -0.528  1.00  0.00     0.043 C 
BRANCH   5   6
ATOM      6  C   UNL     1       6.773   0.125  -1.281  1.00  0.00    -0.044 A 
ATOM      7  C   UNL     1       7.498   0.661  -2.351  1.00  0.00     0.008 A 
ATOM      8  C   UNL     1       6.986  -1.189  -0.930  1.00  0.00     0.054 A 
ATOM      9  C   UNL     1       8.401  -0.144  -3.021  1.00  0.00     0.051 A 
ATOM     10  C   UNL     1       7.901  -1.999  -1.610  1.00  0.00     0.166 A 
ATOM     11  C   UNL     1       8.614  -1.472  -2.664  1.00  0.00     0.165 A 
ATOM     12  O   UNL     1       8.287  -3.313  -1.457  1.00  0.00    -0.454 OA
ATOM     13  O   UNL     1       9.432  -2.484  -3.140  1.00  0.00    -0.454 OA
ATOM     14  C   UNL     1       9.323  -3.642  -2.347  1.00  0.00     0.468 C 
ENDBRANCH   5   6
ENDBRANCH   1   5
TORSDOF 3
ENDMDL
