@<TRIPOS>MOLECULE
/home/cewinharhar/GITHUB/reincatalyze/data/processed/docking_pred/2023-May-30-2130_sub9_nm5_bs15_s42_ex16_mel10_mts10000_k50_ec05_g099_lra3e-4_lrc3e-3/b658f69152bbaa0d4df6d0fc1d77222c9f34aa3c_ligand_9.pdbqt
 14 15 0 0 0
SMALL
GASTEIGER

@<TRIPOS>ATOM
      1  C          5.5530    1.9160    1.2810 C.3     1  UNL1        0.0800
      2  C          5.1090    0.7020    2.0200 C.2     1  UNL1        0.1300
      3  C          6.0010   -0.4750    2.1970 C.3     1  UNL1        0.0870
      4  O          3.9910    0.6370    2.5050 O.2     1  UNL1       -0.3000
      5  C          5.4170    1.7290   -0.2170 C.3     1  UNL1        0.0430
      6  C          6.5800    1.0270   -0.7880 C.2     1  UNL1       -0.0440
      7  C          7.8890    1.4640   -0.5510 C.2     1  UNL1        0.0080
      8  C          6.3870   -0.0870   -1.5730 C.2     1  UNL1        0.0540
      9  C          8.9420    0.7640   -1.1130 C.2     1  UNL1        0.0510
     10  C          7.4550   -0.7910   -2.1380 C.2     1  UNL1        0.1660
     11  C          8.7430   -0.3610   -1.9060 C.2     1  UNL1        0.1650
     12  O          7.5230   -1.9090   -2.9410 O.2     1  UNL1       -0.4540
     13  O          9.5830   -1.2350   -2.5780 O.2     1  UNL1       -0.4540
     14  C          8.8570   -2.2830   -3.1730 C.3     1  UNL1        0.4680
@<TRIPOS>BOND
     1    14    12    1
     2    14    13    1
     3    12    10    1
     4    13    11    1
     5    10    11    2
     6    10     8    1
     7    11     9    1
     8     8     6    2
     9     9     7    2
    10     6     7    1
    11     6     5    1
    12     5     1    1
    13     1     2    1
    14     2     3    1
    15     2     4    2
