@<TRIPOS>MOLECULE
/home/cewinharhar/GITHUB/reincatalyze/data/processed/docking_pred/2023-May-30-2130_sub9_nm5_bs15_s42_ex16_mel10_mts10000_k50_ec05_g099_lra3e-4_lrc3e-3/b6d9d22ba74a786f40f74d2d798275b3d0e0e8fa_ligand_9.pdbqt
 14 15 0 0 0
SMALL
GASTEIGER

@<TRIPOS>ATOM
      1  C          6.2030   -0.9360    2.4130 C.3     1  UNL1        0.0800
      2  C          5.4050    0.1960    1.8640 C.2     1  UNL1        0.1300
      3  C          5.7600    0.8490    0.5760 C.3     1  UNL1        0.0870
      4  O          4.4300    0.6230    2.4620 O.2     1  UNL1       -0.3000
      5  C          7.5770   -1.0000    1.7760 C.3     1  UNL1        0.0430
      6  C          8.5870   -1.5360    2.7060 C.2     1  UNL1       -0.0440
      7  C          8.4700   -1.3680    4.0910 C.2     1  UNL1        0.0080
      8  C          9.6730   -2.2220    2.2130 C.2     1  UNL1        0.0540
      9  C          9.4480   -1.8940    4.9150 C.2     1  UNL1        0.0510
     10  C         10.6590   -2.7520    3.0510 C.2     1  UNL1        0.1660
     11  C         10.5450   -2.5860    4.4130 C.2     1  UNL1        0.1650
     12  O         11.8160   -3.4620    2.8090 O.2     1  UNL1       -0.4540
     13  O         11.6460   -3.2050    4.9860 O.2     1  UNL1       -0.4540
     14  C         12.4300   -3.8510    4.0110 C.3     1  UNL1        0.4680
@<TRIPOS>BOND
     1     3     2    1
     2     5     1    1
     3     5     6    1
     4     2     1    1
     5     2     4    2
     6     8     6    2
     7     8    10    1
     8     6     7    1
     9    12    10    1
    10    12    14    1
    11    10    11    2
    12    14    13    1
    13     7     9    2
    14    11     9    1
    15    11    13    1
