MODEL 1
REMARK VINA RESULT:      -7.4      0.000      0.000
REMARK SMILES CC(=O)CCc1ccc2c(c1)OCO2
REMARK SMILES IDX 4 1 2 2 1 3 3 4 5 5 6 6 7 7 11 8 8 9 10 10 9 11 12 12 14 13
REMARK SMILES IDX 13 14
REMARK H PARENT
REMARK Flexibility Score: inf
ROOT
ATOM      1  C   UNL     1       5.559  -0.241   1.951  1.00  0.00     0.080 C 
ENDROOT
BRANCH   1   2
ATOM      2  C   UNL     1       5.405   0.992   1.129  1.00  0.00     0.130 C 
ATOM      3  C   UNL     1       5.841   1.042  -0.292  1.00  0.00     0.087 C 
ATOM      4  O   UNL     1       4.913   2.003   1.603  1.00  0.00    -0.300 OA
ENDBRANCH   1   2
BRANCH   1   5
ATOM      5  C   UNL     1       6.496  -1.231   1.288  1.00  0.00     0.043 C 
BRANCH   5   6
ATOM      6  C   UNL     1       7.629  -1.581   2.163  1.00  0.00    -0.044 A 
ATOM      7  C   UNL     1       7.656  -1.209   3.512  1.00  0.00     0.008 A 
ATOM      8  C   UNL     1       8.692  -2.291   1.651  1.00  0.00     0.054 A 
ATOM      9  C   UNL     1       8.747  -1.566   4.284  1.00  0.00     0.051 A 
ATOM     10  C   UNL     1       9.791  -2.650   2.437  1.00  0.00     0.166 A 
ATOM     11  C   UNL     1       9.819  -2.283   3.764  1.00  0.00     0.165 A 
ATOM     12  O   UNL     1      10.952  -3.343   2.167  1.00  0.00    -0.454 OA
ATOM     13  O   UNL     1      11.009  -2.765   4.288  1.00  0.00    -0.454 OA
ATOM     14  C   UNL     1      11.715  -3.521   3.333  1.00  0.00     0.468 C 
ENDBRANCH   5   6
ENDBRANCH   1   5
TORSDOF 3
ENDMDL
MODEL 2
REMARK VINA RESULT:      -7.3      3.880      4.904
REMARK SMILES CC(=O)CCc1ccc2c(c1)OCO2
REMARK SMILES IDX 4 1 2 2 1 3 3 4 5 5 6 6 7 7 11 8 8 9 10 10 9 11 12 12 14 13
REMARK SMILES IDX 13 14
REMARK H PARENT
REMARK Flexibility Score: inf
ROOT
ATOM      1  C   UNL     1       5.496   1.922   1.268  1.00  0.00     0.080 C 
ENDROOT
BRANCH   1   2
ATOM      2  C   UNL     1       5.004   0.715   1.989  1.00  0.00     0.130 C 
ATOM      3  C   UNL     1       5.825  -0.522   2.090  1.00  0.00     0.087 C 
ATOM      4  O   UNL     1       3.906   0.706   2.520  1.00  0.00    -0.300 OA
ENDBRANCH   1   2
BRANCH   1   5
ATOM      5  C   UNL     1       5.383   1.751  -0.234  1.00  0.00     0.043 C 
BRANCH   5   6
ATOM      6  C   UNL     1       6.550   1.048  -0.794  1.00  0.00    -0.044 A 
ATOM      7  C   UNL     1       7.857   1.478  -0.537  1.00  0.00     0.008 A 
ATOM      8  C   UNL     1       6.363  -0.061  -1.588  1.00  0.00     0.054 A 
ATOM      9  C   UNL     1       8.915   0.777  -1.089  1.00  0.00     0.051 A 
ATOM     10  C   UNL     1       7.435  -0.766  -2.143  1.00  0.00     0.166 A 
ATOM     11  C   UNL     1       8.722  -0.343  -1.891  1.00  0.00     0.165 A 
ATOM     12  O   UNL     1       7.510  -1.879  -2.952  1.00  0.00    -0.454 OA
ATOM     13  O   UNL     1       9.568  -1.215  -2.558  1.00  0.00    -0.454 OA
ATOM     14  C   UNL     1       8.845  -2.258  -3.168  1.00  0.00     0.468 C 
ENDBRANCH   5   6
ENDBRANCH   1   5
TORSDOF 3
ENDMDL
MODEL 3
REMARK VINA RESULT:      -7.3      0.977      1.117
REMARK SMILES CC(=O)CCc1ccc2c(c1)OCO2
REMARK SMILES IDX 4 1 2 2 1 3 3 4 5 5 6 6 7 7 11 8 8 9 10 10 9 11 12 12 14 13
REMARK SMILES IDX 13 14
REMARK H PARENT
REMARK Flexibility Score: inf
ROOT
ATOM      1  C   UNL     1       6.203  -0.936   2.413  1.00  0.00     0.080 C 
ENDROOT
BRANCH   1   2
ATOM      2  C   UNL     1       5.405   0.196   1.864  1.00  0.00     0.130 C 
ATOM      3  C   UNL     1       5.760   0.849   0.576  1.00  0.00     0.087 C 
ATOM      4  O   UNL     1       4.430   0.623   2.462  1.00  0.00    -0.300 OA
ENDBRANCH   1   2
BRANCH   1   5
ATOM      5  C   UNL     1       7.577  -1.000   1.776  1.00  0.00     0.043 C 
BRANCH   5   6
ATOM      6  C   UNL     1       8.587  -1.536   2.706  1.00  0.00    -0.044 A 
ATOM      7  C   UNL     1       8.470  -1.368   4.091  1.00  0.00     0.008 A 
ATOM      8  C   UNL     1       9.673  -2.222   2.213  1.00  0.00     0.054 A 
ATOM      9  C   UNL     1       9.448  -1.894   4.915  1.00  0.00     0.051 A 
ATOM     10  C   UNL     1      10.659  -2.752   3.051  1.00  0.00     0.166 A 
ATOM     11  C   UNL     1      10.545  -2.586   4.413  1.00  0.00     0.165 A 
ATOM     12  O   UNL     1      11.816  -3.462   2.809  1.00  0.00    -0.454 OA
ATOM     13  O   UNL     1      11.646  -3.205   4.986  1.00  0.00    -0.454 OA
ATOM     14  C   UNL     1      12.430  -3.851   4.011  1.00  0.00     0.468 C 
ENDBRANCH   5   6
ENDBRANCH   1   5
TORSDOF 3
ENDMDL
MODEL 4
REMARK VINA RESULT:      -7.0      0.990      1.943
REMARK SMILES CC(=O)CCc1ccc2c(c1)OCO2
REMARK SMILES IDX 4 1 2 2 1 3 3 4 5 5 6 6 7 7 11 8 8 9 10 10 9 11 12 12 14 13
REMARK SMILES IDX 13 14
REMARK H PARENT
REMARK Flexibility Score: inf
ROOT
ATOM      1  C   UNL     1       5.347  -0.041   1.945  1.00  0.00     0.080 C 
ENDROOT
BRANCH   1   2
ATOM      2  C   UNL     1       5.264   1.118   1.012  1.00  0.00     0.130 C 
ATOM      3  C   UNL     1       5.922   1.095  -0.321  1.00  0.00     0.087 C 
ATOM      4  O   UNL     1       4.650   2.127   1.319  1.00  0.00    -0.300 OA
ENDBRANCH   1   2
BRANCH   1   5
ATOM      5  C   UNL     1       6.055  -1.217   1.301  1.00  0.00     0.043 C 
BRANCH   5   6
ATOM      6  C   UNL     1       7.307  -1.551   2.003  1.00  0.00    -0.044 A 
ATOM      7  C   UNL     1       8.322  -2.287   1.380  1.00  0.00     0.008 A 
ATOM      8  C   UNL     1       7.495  -1.134   3.301  1.00  0.00     0.054 A 
ATOM      9  C   UNL     1       9.476  -2.571   2.087  1.00  0.00     0.051 A 
ATOM     10  C   UNL     1       8.663  -1.423   4.011  1.00  0.00     0.166 A 
ATOM     11  C   UNL     1       9.662  -2.147   3.400  1.00  0.00     0.165 A 
ATOM     12  O   UNL     1       9.083  -1.126   5.291  1.00  0.00    -0.454 OA
ATOM     13  O   UNL     1      10.685  -2.281   4.326  1.00  0.00    -0.454 OA
ATOM     14  C   UNL     1      10.397  -1.571   5.507  1.00  0.00     0.468 C 
ENDBRANCH   5   6
ENDBRANCH   1   5
TORSDOF 3
ENDMDL
MODEL 5
REMARK VINA RESULT:      -7.0      3.172      4.338
REMARK SMILES CC(=O)CCc1ccc2c(c1)OCO2
REMARK SMILES IDX 4 1 2 2 1 3 3 4 5 5 6 6 7 7 11 8 8 9 10 10 9 11 12 12 14 13
REMARK SMILES IDX 13 14
REMARK H PARENT
REMARK Flexibility Score: inf
ROOT
ATOM      1  C   UNL     1       5.747   1.587  -0.178  1.00  0.00     0.080 C 
ENDROOT
BRANCH   1   2
ATOM      2  C   UNL     1       5.074   1.304   1.120  1.00  0.00     0.130 C 
ATOM      3  C   UNL     1       5.435   0.120   1.945  1.00  0.00     0.087 C 
ATOM      4  O   UNL     1       4.199   2.041   1.546  1.00  0.00    -0.300 OA
ENDBRANCH   1   2
BRANCH   1   5
ATOM      5  C   UNL     1       7.228   1.268  -0.111  1.00  0.00     0.043 C 
BRANCH   5   6
ATOM      6  C   UNL     1       7.545   0.001  -0.795  1.00  0.00    -0.044 A 
ATOM      7  C   UNL     1       7.482  -0.115  -2.188  1.00  0.00     0.008 A 
ATOM      8  C   UNL     1       7.915  -1.099  -0.056  1.00  0.00     0.054 A 
ATOM      9  C   UNL     1       7.792  -1.329  -2.775  1.00  0.00     0.051 A 
ATOM     10  C   UNL     1       8.227  -2.324  -0.653  1.00  0.00     0.166 A 
ATOM     11  C   UNL     1       8.165  -2.439  -2.024  1.00  0.00     0.165 A 
ATOM     12  O   UNL     1       8.615  -3.545  -0.146  1.00  0.00    -0.454 OA
ATOM     13  O   UNL     1       8.521  -3.743  -2.333  1.00  0.00    -0.454 OA
ATOM     14  C   UNL     1       8.902  -4.453  -1.179  1.00  0.00     0.468 C 
ENDBRANCH   5   6
ENDBRANCH   1   5
TORSDOF 3
ENDMDL
