@<TRIPOS>MOLECULE
/home/cewinharhar/GITHUB/reincatalyze/data/processed/docking_pred/2023-May-30-2130_sub9_nm5_bs15_s42_ex16_mel10_mts10000_k50_ec05_g099_lra3e-4_lrc3e-3/b6d9d22ba74a786f40f74d2d798275b3d0e0e8fa_ligand_9.pdbqt
 14 15 0 0 0
SMALL
GASTEIGER

@<TRIPOS>ATOM
      1  C          5.5590   -0.2410    1.9510 C.3     1  UNL1        0.0800
      2  C          5.4050    0.9920    1.1290 C.2     1  UNL1        0.1300
      3  C          5.8410    1.0420   -0.2920 C.3     1  UNL1        0.0870
      4  O          4.9130    2.0030    1.6030 O.2     1  UNL1       -0.3000
      5  C          6.4960   -1.2310    1.2880 C.3     1  UNL1        0.0430
      6  C          7.6290   -1.5810    2.1630 C.2     1  UNL1       -0.0440
      7  C          7.6560   -1.2090    3.5120 C.2     1  UNL1        0.0080
      8  C          8.6920   -2.2910    1.6510 C.2     1  UNL1        0.0540
      9  C          8.7470   -1.5660    4.2840 C.2     1  UNL1        0.0510
     10  C          9.7910   -2.6500    2.4370 C.2     1  UNL1        0.1660
     11  C          9.8190   -2.2830    3.7640 C.2     1  UNL1        0.1650
     12  O         10.9520   -3.3430    2.1670 O.2     1  UNL1       -0.4540
     13  O         11.0090   -2.7650    4.2880 O.2     1  UNL1       -0.4540
     14  C         11.7150   -3.5210    3.3330 C.3     1  UNL1        0.4680
@<TRIPOS>BOND
     1     3     2    1
     2     2     4    2
     3     2     1    1
     4     5     1    1
     5     5     6    1
     6     8     6    2
     7     8    10    1
     8     6     7    1
     9    12    10    1
    10    12    14    1
    11    10    11    2
    12    14    13    1
    13     7     9    2
    14    11     9    1
    15    11    13    1
