MODEL 1
REMARK VINA RESULT:      -7.6      0.000      0.000
REMARK SMILES CC(=O)CCc1ccc2c(c1)OCO2
REMARK SMILES IDX 4 1 2 2 1 3 3 4 5 5 6 6 7 7 11 8 8 9 10 10 9 11 12 12 14 13
REMARK SMILES IDX 13 14
REMARK H PARENT
REMARK Flexibility Score: inf
ROOT
ATOM      1  C   UNL     1       5.560   1.921   1.293  1.00  0.00     0.080 C 
ENDROOT
BRANCH   1   2
ATOM      2  C   UNL     1       5.117   0.701   2.024  1.00  0.00     0.130 C 
ATOM      3  C   UNL     1       6.013  -0.473   2.199  1.00  0.00     0.087 C 
ATOM      4  O   UNL     1       3.997   0.630   2.503  1.00  0.00    -0.300 OA
ENDBRANCH   1   2
BRANCH   1   5
ATOM      5  C   UNL     1       5.424   1.744  -0.207  1.00  0.00     0.043 C 
BRANCH   5   6
ATOM      6  C   UNL     1       6.585   1.040  -0.781  1.00  0.00    -0.044 A 
ATOM      7  C   UNL     1       7.895   1.474  -0.548  1.00  0.00     0.008 A 
ATOM      8  C   UNL     1       6.388  -0.075  -1.564  1.00  0.00     0.054 A 
ATOM      9  C   UNL     1       8.945   0.773  -1.112  1.00  0.00     0.051 A 
ATOM     10  C   UNL     1       7.453  -0.780  -2.132  1.00  0.00     0.166 A 
ATOM     11  C   UNL     1       8.742  -0.353  -1.904  1.00  0.00     0.165 A 
ATOM     12  O   UNL     1       7.517  -1.899  -2.935  1.00  0.00    -0.454 OA
ATOM     13  O   UNL     1       9.580  -1.227  -2.578  1.00  0.00    -0.454 OA
ATOM     14  C   UNL     1       8.850  -2.275  -3.170  1.00  0.00     0.468 C 
ENDBRANCH   5   6
ENDBRANCH   1   5
TORSDOF 3
ENDMDL
MODEL 2
REMARK VINA RESULT:      -7.4      1.840      2.328
REMARK SMILES CC(=O)CCc1ccc2c(c1)OCO2
REMARK SMILES IDX 4 1 2 2 1 3 3 4 5 5 6 6 7 7 11 8 8 9 10 10 9 11 12 12 14 13
REMARK SMILES IDX 13 14
REMARK H PARENT
REMARK Flexibility Score: inf
ROOT
ATOM      1  C   UNL     1       5.767   1.482  -0.305  1.00  0.00     0.080 C 
ENDROOT
BRANCH   1   2
ATOM      2  C   UNL     1       5.144   1.337   1.040  1.00  0.00     0.130 C 
ATOM      3  C   UNL     1       5.494   0.209   1.944  1.00  0.00     0.087 C 
ATOM      4  O   UNL     1       4.323   2.146   1.441  1.00  0.00    -0.300 OA
ENDBRANCH   1   2
BRANCH   1   5
ATOM      5  C   UNL     1       7.254   1.194  -0.258  1.00  0.00     0.043 C 
BRANCH   5   6
ATOM      6  C   UNL     1       7.582  -0.094  -0.895  1.00  0.00    -0.044 A 
ATOM      7  C   UNL     1       7.560  -0.250  -2.285  1.00  0.00     0.008 A 
ATOM      8  C   UNL     1       7.922  -1.174  -0.113  1.00  0.00     0.054 A 
ATOM      9  C   UNL     1       7.878  -1.482  -2.827  1.00  0.00     0.051 A 
ATOM     10  C   UNL     1       8.243  -2.418  -0.666  1.00  0.00     0.166 A 
ATOM     11  C   UNL     1       8.220  -2.573  -2.034  1.00  0.00     0.165 A 
ATOM     12  O   UNL     1       8.607  -3.627  -0.112  1.00  0.00    -0.454 OA
ATOM     13  O   UNL     1       8.576  -3.887  -2.294  1.00  0.00    -0.454 OA
ATOM     14  C   UNL     1       8.917  -4.566  -1.109  1.00  0.00     0.468 C 
ENDBRANCH   5   6
ENDBRANCH   1   5
TORSDOF 3
ENDMDL
MODEL 3
REMARK VINA RESULT:      -7.2      2.032      2.592
REMARK SMILES CC(=O)CCc1ccc2c(c1)OCO2
REMARK SMILES IDX 4 1 2 2 1 3 3 4 5 5 6 6 7 7 11 8 8 9 10 10 9 11 12 12 14 13
REMARK SMILES IDX 13 14
REMARK H PARENT
REMARK Flexibility Score: inf
ROOT
ATOM      1  C   UNL     1       5.461  -0.022   2.025  1.00  0.00     0.080 C 
ENDROOT
BRANCH   1   2
ATOM      2  C   UNL     1       4.572   1.145   1.769  1.00  0.00     0.130 C 
ATOM      3  C   UNL     1       4.871   2.135   0.699  1.00  0.00     0.087 C 
ATOM      4  O   UNL     1       3.564   1.323   2.434  1.00  0.00    -0.300 OA
ENDBRANCH   1   2
BRANCH   1   5
ATOM      5  C   UNL     1       6.878   0.253   1.561  1.00  0.00     0.043 C 
BRANCH   5   6
ATOM      6  C   UNL     1       7.294  -0.678   0.497  1.00  0.00    -0.044 A 
ATOM      7  C   UNL     1       7.168  -0.349  -0.857  1.00  0.00     0.008 A 
ATOM      8  C   UNL     1       7.825  -1.903   0.833  1.00  0.00     0.054 A 
ATOM      9  C   UNL     1       7.577  -1.263  -1.811  1.00  0.00     0.051 A 
ATOM     10  C   UNL     1       8.238  -2.824  -0.135  1.00  0.00     0.166 A 
ATOM     11  C   UNL     1       8.112  -2.501  -1.468  1.00  0.00     0.165 A 
ATOM     12  O   UNL     1       8.787  -4.086  -0.059  1.00  0.00    -0.454 OA
ATOM     13  O   UNL     1       8.592  -3.583  -2.190  1.00  0.00    -0.454 OA
ATOM     14  C   UNL     1       9.114  -4.572  -1.335  1.00  0.00     0.468 C 
ENDBRANCH   5   6
ENDBRANCH   1   5
TORSDOF 3
ENDMDL
MODEL 4
REMARK VINA RESULT:      -7.1      1.246      1.451
REMARK SMILES CC(=O)CCc1ccc2c(c1)OCO2
REMARK SMILES IDX 4 1 2 2 1 3 3 4 5 5 6 6 7 7 11 8 8 9 10 10 9 11 12 12 14 13
REMARK SMILES IDX 13 14
REMARK H PARENT
REMARK Flexibility Score: inf
ROOT
ATOM      1  C   UNL     1       6.352   1.230   0.893  1.00  0.00     0.080 C 
ENDROOT
BRANCH   1   2
ATOM      2  C   UNL     1       5.661   0.408   1.926  1.00  0.00     0.130 C 
ATOM      3  C   UNL     1       6.280  -0.823   2.487  1.00  0.00     0.087 C 
ATOM      4  O   UNL     1       4.559   0.723   2.343  1.00  0.00    -0.300 OA
ENDBRANCH   1   2
BRANCH   1   5
ATOM      5  C   UNL     1       5.839   0.913  -0.497  1.00  0.00     0.043 C 
BRANCH   5   6
ATOM      6  C   UNL     1       6.800   0.099  -1.262  1.00  0.00    -0.044 A 
ATOM      7  C   UNL     1       7.500   0.624  -2.354  1.00  0.00     0.008 A 
ATOM      8  C   UNL     1       7.023  -1.211  -0.902  1.00  0.00     0.054 A 
ATOM      9  C   UNL     1       8.390  -0.187  -3.034  1.00  0.00     0.051 A 
ATOM     10  C   UNL     1       7.924  -2.027  -1.592  1.00  0.00     0.166 A 
ATOM     11  C   UNL     1       8.613  -1.511  -2.667  1.00  0.00     0.165 A 
ATOM     12  O   UNL     1       8.315  -3.339  -1.433  1.00  0.00    -0.454 OA
ATOM     13  O   UNL     1       9.422  -2.527  -3.150  1.00  0.00    -0.454 OA
ATOM     14  C   UNL     1       9.332  -3.676  -2.342  1.00  0.00     0.468 C 
ENDBRANCH   5   6
ENDBRANCH   1   5
TORSDOF 3
ENDMDL
MODEL 5
REMARK VINA RESULT:      -7.1      1.981      2.567
REMARK SMILES CC(=O)CCc1ccc2c(c1)OCO2
REMARK SMILES IDX 4 1 2 2 1 3 3 4 5 5 6 6 7 7 11 8 8 9 10 10 9 11 12 12 14 13
REMARK SMILES IDX 13 14
REMARK H PARENT
REMARK Flexibility Score: inf
ROOT
ATOM      1  C   UNL     1       6.789   0.668   1.244  1.00  0.00     0.080 C 
ENDROOT
BRANCH   1   2
ATOM      2  C   UNL     1       5.371   1.071   1.457  1.00  0.00     0.130 C 
ATOM      3  C   UNL     1       4.737   2.150   0.653  1.00  0.00     0.087 C 
ATOM      4  O   UNL     1       4.685   0.524   2.304  1.00  0.00    -0.300 OA
ENDBRANCH   1   2
BRANCH   1   5
ATOM      5  C   UNL     1       7.209   0.872  -0.199  1.00  0.00     0.043 C 
BRANCH   5   6
ATOM      6  C   UNL     1       7.630  -0.392  -0.829  1.00  0.00    -0.044 A 
ATOM      7  C   UNL     1       7.748  -0.514  -2.218  1.00  0.00     0.008 A 
ATOM      8  C   UNL     1       7.918  -1.483  -0.042  1.00  0.00     0.054 A 
ATOM      9  C   UNL     1       8.149  -1.725  -2.754  1.00  0.00     0.051 A 
ATOM     10  C   UNL     1       8.323  -2.705  -0.588  1.00  0.00     0.166 A 
ATOM     11  C   UNL     1       8.439  -2.827  -1.955  1.00  0.00     0.165 A 
ATOM     12  O   UNL     1       8.661  -3.919  -0.028  1.00  0.00    -0.454 OA
ATOM     13  O   UNL     1       8.851  -4.126  -2.209  1.00  0.00    -0.454 OA
ATOM     14  C   UNL     1       9.091  -4.825  -1.011  1.00  0.00     0.468 C 
ENDBRANCH   5   6
ENDBRANCH   1   5
TORSDOF 3
ENDMDL
