@<TRIPOS>MOLECULE
/home/cewinharhar/GITHUB/reincatalyze/data/processed/docking_pred/2023-May-30-2130_sub9_nm5_bs15_s42_ex16_mel10_mts10000_k50_ec05_g099_lra3e-4_lrc3e-3/b8d8050f43b71ccf975db7ed0a80e234855f027b_ligand_9.pdbqt
 14 15 0 0 0
SMALL
GASTEIGER

@<TRIPOS>ATOM
      1  C          6.3520    1.2300    0.8930 C.3     1  UNL1        0.0800
      2  C          5.6610    0.4080    1.9260 C.2     1  UNL1        0.1300
      3  C          6.2800   -0.8230    2.4870 C.3     1  UNL1        0.0870
      4  O          4.5590    0.7230    2.3430 O.2     1  UNL1       -0.3000
      5  C          5.8390    0.9130   -0.4970 C.3     1  UNL1        0.0430
      6  C          6.8000    0.0990   -1.2620 C.2     1  UNL1       -0.0440
      7  C          7.5000    0.6240   -2.3540 C.2     1  UNL1        0.0080
      8  C          7.0230   -1.2110   -0.9020 C.2     1  UNL1        0.0540
      9  C          8.3900   -0.1870   -3.0340 C.2     1  UNL1        0.0510
     10  C          7.9240   -2.0270   -1.5920 C.2     1  UNL1        0.1660
     11  C          8.6130   -1.5110   -2.6670 C.2     1  UNL1        0.1650
     12  O          8.3150   -3.3390   -1.4330 O.2     1  UNL1       -0.4540
     13  O          9.4220   -2.5270   -3.1500 O.2     1  UNL1       -0.4540
     14  C          9.3320   -3.6760   -2.3420 C.3     1  UNL1        0.4680
@<TRIPOS>BOND
     1    13    11    1
     2    13    14    1
     3     9    11    2
     4     9     7    1
     5    11    10    1
     6     7     6    2
     7    14    12    1
     8    10    12    1
     9    10     8    2
    10     6     8    1
    11     6     5    1
    12     5     1    1
    13     1     2    1
    14     2     4    2
    15     2     3    1
