@<TRIPOS>MOLECULE
/home/cewinharhar/GITHUB/reincatalyze/data/processed/docking_pred/2023-May-30-2130_sub9_nm5_bs15_s42_ex16_mel10_mts10000_k50_ec05_g099_lra3e-4_lrc3e-3/b8d8050f43b71ccf975db7ed0a80e234855f027b_ligand_9.pdbqt
 14 15 0 0 0
SMALL
GASTEIGER

@<TRIPOS>ATOM
      1  C          5.7670    1.4820   -0.3050 C.3     1  UNL1        0.0800
      2  C          5.1440    1.3370    1.0400 C.2     1  UNL1        0.1300
      3  C          5.4940    0.2090    1.9440 C.3     1  UNL1        0.0870
      4  O          4.3230    2.1460    1.4410 O.2     1  UNL1       -0.3000
      5  C          7.2540    1.1940   -0.2580 C.3     1  UNL1        0.0430
      6  C          7.5820   -0.0940   -0.8950 C.2     1  UNL1       -0.0440
      7  C          7.5600   -0.2500   -2.2850 C.2     1  UNL1        0.0080
      8  C          7.9220   -1.1740   -0.1130 C.2     1  UNL1        0.0540
      9  C          7.8780   -1.4820   -2.8270 C.2     1  UNL1        0.0510
     10  C          8.2430   -2.4180   -0.6660 C.2     1  UNL1        0.1660
     11  C          8.2200   -2.5730   -2.0340 C.2     1  UNL1        0.1650
     12  O          8.6070   -3.6270   -0.1120 O.2     1  UNL1       -0.4540
     13  O          8.5760   -3.8870   -2.2940 O.2     1  UNL1       -0.4540
     14  C          8.9170   -4.5660   -1.1090 C.3     1  UNL1        0.4680
@<TRIPOS>BOND
     1     9     7    1
     2     9    11    2
     3    13    11    1
     4    13    14    1
     5     7     6    2
     6    11    10    1
     7    14    12    1
     8     6     5    1
     9     6     8    1
    10    10     8    2
    11    10    12    1
    12     1     5    1
    13     1     2    1
    14     2     4    2
    15     2     3    1
