@<TRIPOS>MOLECULE
/home/cewinharhar/GITHUB/reincatalyze/data/processed/docking_pred/2023-May-30-2130_sub9_nm5_bs15_s42_ex16_mel10_mts10000_k50_ec05_g099_lra3e-4_lrc3e-3/b8d8050f43b71ccf975db7ed0a80e234855f027b_ligand_9.pdbqt
 14 15 0 0 0
SMALL
GASTEIGER

@<TRIPOS>ATOM
      1  C          6.7890    0.6680    1.2440 C.3     1  UNL1        0.0800
      2  C          5.3710    1.0710    1.4570 C.2     1  UNL1        0.1300
      3  C          4.7370    2.1500    0.6530 C.3     1  UNL1        0.0870
      4  O          4.6850    0.5240    2.3040 O.2     1  UNL1       -0.3000
      5  C          7.2090    0.8720   -0.1990 C.3     1  UNL1        0.0430
      6  C          7.6300   -0.3920   -0.8290 C.2     1  UNL1       -0.0440
      7  C          7.7480   -0.5140   -2.2180 C.2     1  UNL1        0.0080
      8  C          7.9180   -1.4830   -0.0420 C.2     1  UNL1        0.0540
      9  C          8.1490   -1.7250   -2.7540 C.2     1  UNL1        0.0510
     10  C          8.3230   -2.7050   -0.5880 C.2     1  UNL1        0.1660
     11  C          8.4390   -2.8270   -1.9550 C.2     1  UNL1        0.1650
     12  O          8.6610   -3.9190   -0.0280 O.2     1  UNL1       -0.4540
     13  O          8.8510   -4.1260   -2.2090 O.2     1  UNL1       -0.4540
     14  C          9.0910   -4.8250   -1.0110 C.3     1  UNL1        0.4680
@<TRIPOS>BOND
     1     9     7    1
     2     9    11    2
     3     7     6    2
     4    13    11    1
     5    13    14    1
     6    11    10    1
     7    14    12    1
     8     6     5    1
     9     6     8    1
    10    10     8    2
    11    10    12    1
    12     5     1    1
    13     3     2    1
    14     1     2    1
    15     2     4    2
