@<TRIPOS>MOLECULE
/home/cewinharhar/GITHUB/reincatalyze/data/processed/docking_pred/2023-May-30-2130_sub9_nm5_bs15_s42_ex16_mel10_mts10000_k50_ec05_g099_lra3e-4_lrc3e-3/b9a0748b4c4cb53be71f33acfe76cbadf25e0c0f_ligand_9.pdbqt
 14 15 0 0 0
SMALL
GASTEIGER

@<TRIPOS>ATOM
      1  C          8.5370    0.2450   -2.6240 C.3     1  UNL1        0.0800
      2  C          8.4730   -1.2360   -2.7700 C.2     1  UNL1        0.1300
      3  C          7.1750   -1.9550   -2.8730 C.3     1  UNL1        0.0870
      4  O          9.4920   -1.9060   -2.8100 O.2     1  UNL1       -0.3000
      5  C          8.9990    0.6410   -1.2350 C.3     1  UNL1        0.0430
      6  C          7.9350    0.4600   -0.2320 C.2     1  UNL1       -0.0440
      7  C          8.0020   -0.5510    0.7330 C.2     1  UNL1        0.0080
      8  C          6.8450    1.3000   -0.2340 C.2     1  UNL1        0.0540
      9  C          6.9740   -0.6730    1.6500 C.2     1  UNL1        0.0510
     10  C          5.8090    1.1730    0.6950 C.2     1  UNL1        0.1660
     11  C          5.8730    0.1780    1.6450 C.2     1  UNL1        0.1650
     12  O          4.6370    1.8720    0.8980 O.2     1  UNL1       -0.4540
     13  O          4.7290    0.2880    2.4190 O.2     1  UNL1       -0.4540
     14  C          3.9620    1.4050    2.0380 C.3     1  UNL1        0.4680
@<TRIPOS>BOND
     1     3     2    1
     2     4     2    2
     3     2     1    1
     4     1     5    1
     5     5     6    1
     6     8     6    2
     7     8    10    1
     8     6     7    1
     9    10    12    1
    10    10    11    2
    11     7     9    2
    12    12    14    1
    13    11     9    1
    14    11    13    1
    15    14    13    1
