@<TRIPOS>MOLECULE
/home/cewinharhar/GITHUB/reincatalyze/data/processed/docking_pred/2023-May-30-2130_sub9_nm5_bs15_s42_ex16_mel10_mts10000_k50_ec05_g099_lra3e-4_lrc3e-3/b9a0748b4c4cb53be71f33acfe76cbadf25e0c0f_ligand_9.pdbqt
 14 15 0 0 0
SMALL
GASTEIGER

@<TRIPOS>ATOM
      1  C          6.3840    1.2310    0.9380 C.3     1  UNL1        0.0800
      2  C          5.6750    0.3710    1.9260 C.2     1  UNL1        0.1300
      3  C          6.3100   -0.8450    2.5010 C.3     1  UNL1        0.0870
      4  O          4.5430    0.6430    2.2940 O.2     1  UNL1       -0.3000
      5  C          5.8840    0.9790   -0.4710 C.3     1  UNL1        0.0430
      6  C          6.8200    0.1420   -1.2420 C.2     1  UNL1       -0.0440
      7  C          7.5120    0.6460   -2.3490 C.2     1  UNL1        0.0080
      8  C          7.0280   -1.1670   -0.8720 C.2     1  UNL1        0.0540
      9  C          8.3780   -0.1860   -3.0350 C.2     1  UNL1        0.0510
     10  C          7.9050   -2.0040   -1.5680 C.2     1  UNL1        0.1660
     11  C          8.5860   -1.5100   -2.6580 C.2     1  UNL1        0.1650
     12  O          8.2780   -3.3210   -1.4020 O.2     1  UNL1       -0.4540
     13  O          9.3710   -2.5440   -3.1430 O.2     1  UNL1       -0.4540
     14  C          9.2750   -3.6830   -2.3220 C.3     1  UNL1        0.4680
@<TRIPOS>BOND
     1    13    11    1
     2    13    14    1
     3     9    11    2
     4     9     7    1
     5    11    10    1
     6     7     6    2
     7    14    12    1
     8    10    12    1
     9    10     8    2
    10     6     8    1
    11     6     5    1
    12     5     1    1
    13     1     2    1
    14     2     4    2
    15     2     3    1
