@<TRIPOS>MOLECULE
/home/cewinharhar/GITHUB/reincatalyze/data/processed/docking_pred/2023-May-30-2130_sub9_nm5_bs15_s42_ex16_mel10_mts10000_k50_ec05_g099_lra3e-4_lrc3e-3/b9a0748b4c4cb53be71f33acfe76cbadf25e0c0f_ligand_9.pdbqt
 14 15 0 0 0
SMALL
GASTEIGER

@<TRIPOS>ATOM
      1  C          5.4540   -0.0200    1.9980 C.3     1  UNL1        0.0800
      2  C          4.5810    1.1570    1.7310 C.2     1  UNL1        0.1300
      3  C          4.8830    2.1230    0.6420 C.3     1  UNL1        0.0870
      4  O          3.5850    1.3630    2.4060 O.2     1  UNL1       -0.3000
      5  C          6.8780    0.2370    1.5450 C.3     1  UNL1        0.0430
      6  C          7.2960   -0.7070    0.4930 C.2     1  UNL1       -0.0440
      7  C          7.1620   -0.3970   -0.8650 C.2     1  UNL1        0.0080
      8  C          7.8340   -1.9240    0.8430 C.2     1  UNL1        0.0540
      9  C          7.5730   -1.3220   -1.8080 C.2     1  UNL1        0.0510
     10  C          8.2480   -2.8560   -0.1140 C.2     1  UNL1        0.1660
     11  C          8.1150   -2.5520   -1.4500 C.2     1  UNL1        0.1650
     12  O          8.8030   -4.1140   -0.0210 O.2     1  UNL1       -0.4540
     13  O          8.5990   -3.6410   -2.1580 O.2     1  UNL1       -0.4540
     14  C          9.1280   -4.6160   -1.2920 C.3     1  UNL1        0.4680
@<TRIPOS>BOND
     1    13    11    1
     2    13    14    1
     3     9    11    2
     4     9     7    1
     5    11    10    1
     6    14    12    1
     7     7     6    2
     8    10    12    1
     9    10     8    2
    10     6     8    1
    11     6     5    1
    12     3     2    1
    13     5     1    1
    14     2     1    1
    15     2     4    2
