@<TRIPOS>MOLECULE
/home/cewinharhar/GITHUB/reincatalyze/data/processed/docking_pred/2023-May-30-2130_sub9_nm5_bs15_s42_ex16_mel10_mts10000_k50_ec05_g099_lra3e-4_lrc3e-3/b9a0748b4c4cb53be71f33acfe76cbadf25e0c0f_ligand_9.pdbqt
 14 15 0 0 0
SMALL
GASTEIGER

@<TRIPOS>ATOM
      1  C          5.5230    1.9330    1.2590 C.3     1  UNL1        0.0800
      2  C          5.0940    0.7150    2.0020 C.2     1  UNL1        0.1300
      3  C          6.0020   -0.4480    2.1860 C.3     1  UNL1        0.0870
      4  O          3.9760    0.6380    2.4850 O.2     1  UNL1       -0.3000
      5  C          5.3950    1.7360   -0.2390 C.3     1  UNL1        0.0430
      6  C          6.5610    1.0310   -0.8000 C.2     1  UNL1       -0.0440
      7  C          7.8690    1.4640   -0.5510 C.2     1  UNL1        0.0080
      8  C          6.3720   -0.0820   -1.5870 C.2     1  UNL1        0.0540
      9  C          8.9250    0.7620   -1.1030 C.2     1  UNL1        0.0510
     10  C          7.4430   -0.7880   -2.1420 C.2     1  UNL1        0.1660
     11  C          8.7300   -0.3630   -1.8990 C.2     1  UNL1        0.1650
     12  O          7.5150   -1.9060   -2.9460 O.2     1  UNL1       -0.4540
     13  O          9.5740   -1.2380   -2.5640 O.2     1  UNL1       -0.4540
     14  C          8.8500   -2.2840   -3.1660 C.3     1  UNL1        0.4680
@<TRIPOS>BOND
     1    14    12    1
     2    14    13    1
     3    12    10    1
     4    13    11    1
     5    10    11    2
     6    10     8    1
     7    11     9    1
     8     8     6    2
     9     9     7    2
    10     6     7    1
    11     6     5    1
    12     5     1    1
    13     1     2    1
    14     2     3    1
    15     2     4    2
