@<TRIPOS>MOLECULE
/home/cewinharhar/GITHUB/reincatalyze/data/processed/docking_pred/2023-May-30-2130_sub9_nm5_bs15_s42_ex16_mel10_mts10000_k50_ec05_g099_lra3e-4_lrc3e-3/b9a0748b4c4cb53be71f33acfe76cbadf25e0c0f_ligand_9.pdbqt
 14 15 0 0 0
SMALL
GASTEIGER

@<TRIPOS>ATOM
      1  C          5.7730    1.3760   -0.2160 C.3     1  UNL1        0.0800
      2  C          5.0950    1.2680    1.1060 C.2     1  UNL1        0.1300
      3  C          5.3680    0.1370    2.0330 C.3     1  UNL1        0.0870
      4  O          4.2900    2.1110    1.4680 O.2     1  UNL1       -0.3000
      5  C          7.2570    1.0880   -0.0990 C.3     1  UNL1        0.0430
      6  C          7.6180   -0.1890   -0.7400 C.2     1  UNL1       -0.0440
      7  C          7.6620   -0.3240   -2.1330 C.2     1  UNL1        0.0080
      8  C          7.9230   -1.2810    0.0400 C.2     1  UNL1        0.0540
      9  C          8.0080   -1.5470   -2.6780 C.2     1  UNL1        0.0510
     10  C          8.2730   -2.5160   -0.5160 C.2     1  UNL1        0.1660
     11  C          8.3160   -2.6490   -1.8860 C.2     1  UNL1        0.1650
     12  O          8.6140   -3.7320    0.0360 O.2     1  UNL1       -0.4540
     13  O          8.6860   -3.9590   -2.1500 O.2     1  UNL1       -0.4540
     14  C          8.9740   -4.6550   -0.9600 C.3     1  UNL1        0.4680
@<TRIPOS>BOND
     1     9     7    1
     2     9    11    2
     3    13    11    1
     4    13    14    1
     5     7     6    2
     6    11    10    1
     7    14    12    1
     8     6     5    1
     9     6     8    1
    10    10    12    1
    11    10     8    2
    12     1     5    1
    13     1     2    1
    14     2     4    2
    15     2     3    1
