MODEL 1
REMARK VINA RESULT:      -7.7      0.000      0.000
REMARK SMILES CC(=O)CCc1ccc2c(c1)OCO2
REMARK SMILES IDX 4 1 2 2 1 3 3 4 5 5 6 6 7 7 11 8 8 9 10 10 9 11 12 12 14 13
REMARK SMILES IDX 13 14
REMARK H PARENT
REMARK Flexibility Score: inf
ROOT
ATOM      1  C   UNL     1       5.529   1.892   1.290  1.00  0.00     0.080 C 
ENDROOT
BRANCH   1   2
ATOM      2  C   UNL     1       5.096   0.674   2.029  1.00  0.00     0.130 C 
ATOM      3  C   UNL     1       5.987  -0.509   2.175  1.00  0.00     0.087 C 
ATOM      4  O   UNL     1       3.989   0.610   2.539  1.00  0.00    -0.300 OA
ENDBRANCH   1   2
BRANCH   1   5
ATOM      5  C   UNL     1       5.393   1.705  -0.208  1.00  0.00     0.043 C 
BRANCH   5   6
ATOM      6  C   UNL     1       6.562   1.014  -0.780  1.00  0.00    -0.044 A 
ATOM      7  C   UNL     1       7.867   1.463  -0.545  1.00  0.00     0.008 A 
ATOM      8  C   UNL     1       6.379  -0.102  -1.565  1.00  0.00     0.054 A 
ATOM      9  C   UNL     1       8.926   0.773  -1.108  1.00  0.00     0.051 A 
ATOM     10  C   UNL     1       7.452  -0.796  -2.131  1.00  0.00     0.166 A 
ATOM     11  C   UNL     1       8.736  -0.355  -1.901  1.00  0.00     0.165 A 
ATOM     12  O   UNL     1       7.530  -1.914  -2.935  1.00  0.00    -0.454 OA
ATOM     13  O   UNL     1       9.584  -1.220  -2.574  1.00  0.00    -0.454 OA
ATOM     14  C   UNL     1       8.867  -2.275  -3.168  1.00  0.00     0.468 C 
ENDBRANCH   5   6
ENDBRANCH   1   5
TORSDOF 3
ENDMDL
MODEL 2
REMARK VINA RESULT:      -7.5      1.865      2.316
REMARK SMILES CC(=O)CCc1ccc2c(c1)OCO2
REMARK SMILES IDX 4 1 2 2 1 3 3 4 5 5 6 6 7 7 11 8 8 9 10 10 9 11 12 12 14 13
REMARK SMILES IDX 13 14
REMARK H PARENT
REMARK Flexibility Score: inf
ROOT
ATOM      1  C   UNL     1       5.583   1.334  -0.331  1.00  0.00     0.080 C 
ENDROOT
BRANCH   1   2
ATOM      2  C   UNL     1       5.035   1.269   1.052  1.00  0.00     0.130 C 
ATOM      3  C   UNL     1       5.349   0.137   1.965  1.00  0.00     0.087 C 
ATOM      4  O   UNL     1       4.306   2.150   1.480  1.00  0.00    -0.300 OA
ENDBRANCH   1   2
BRANCH   1   5
ATOM      5  C   UNL     1       7.092   1.187  -0.332  1.00  0.00     0.043 C 
BRANCH   5   6
ATOM      6  C   UNL     1       7.515  -0.096  -0.921  1.00  0.00    -0.044 A 
ATOM      7  C   UNL     1       7.641  -0.262  -2.305  1.00  0.00     0.008 A 
ATOM      8  C   UNL     1       7.799  -1.163  -0.099  1.00  0.00     0.054 A 
ATOM      9  C   UNL     1       8.043  -1.489  -2.800  1.00  0.00     0.051 A 
ATOM     10  C   UNL     1       8.206  -2.401  -0.604  1.00  0.00     0.166 A 
ATOM     11  C   UNL     1       8.328  -2.566  -1.966  1.00  0.00     0.165 A 
ATOM     12  O   UNL     1       8.540  -3.597  -0.004  1.00  0.00    -0.454 OA
ATOM     13  O   UNL     1       8.741  -3.872  -2.176  1.00  0.00    -0.454 OA
ATOM     14  C   UNL     1       8.975  -4.534  -0.956  1.00  0.00     0.468 C 
ENDBRANCH   5   6
ENDBRANCH   1   5
TORSDOF 3
ENDMDL
MODEL 3
REMARK VINA RESULT:      -7.3      2.045      2.621
REMARK SMILES CC(=O)CCc1ccc2c(c1)OCO2
REMARK SMILES IDX 4 1 2 2 1 3 3 4 5 5 6 6 7 7 11 8 8 9 10 10 9 11 12 12 14 13
REMARK SMILES IDX 13 14
REMARK H PARENT
REMARK Flexibility Score: inf
ROOT
ATOM      1  C   UNL     1       5.408  -0.067   2.003  1.00  0.00     0.080 C 
ENDROOT
BRANCH   1   2
ATOM      2  C   UNL     1       4.574   1.144   1.766  1.00  0.00     0.130 C 
ATOM      3  C   UNL     1       4.906   2.125   0.699  1.00  0.00     0.087 C 
ATOM      4  O   UNL     1       3.586   1.368   2.447  1.00  0.00    -0.300 OA
ENDBRANCH   1   2
BRANCH   1   5
ATOM      5  C   UNL     1       6.850   0.171   1.603  1.00  0.00     0.043 C 
BRANCH   5   6
ATOM      6  C   UNL     1       7.279  -0.747   0.533  1.00  0.00    -0.044 A 
ATOM      7  C   UNL     1       7.150  -0.408  -0.819  1.00  0.00     0.008 A 
ATOM      8  C   UNL     1       7.824  -1.968   0.859  1.00  0.00     0.054 A 
ATOM      9  C   UNL     1       7.571  -1.309  -1.780  1.00  0.00     0.051 A 
ATOM     10  C   UNL     1       8.249  -2.875  -0.116  1.00  0.00     0.166 A 
ATOM     11  C   UNL     1       8.121  -2.543  -1.447  1.00  0.00     0.165 A 
ATOM     12  O   UNL     1       8.813  -4.132  -0.049  1.00  0.00    -0.454 OA
ATOM     13  O   UNL     1       8.615  -3.613  -2.176  1.00  0.00    -0.454 OA
ATOM     14  C   UNL     1       9.147  -4.603  -1.329  1.00  0.00     0.468 C 
ENDBRANCH   5   6
ENDBRANCH   1   5
TORSDOF 3
ENDMDL
MODEL 4
REMARK VINA RESULT:      -7.1      1.236      1.425
REMARK SMILES CC(=O)CCc1ccc2c(c1)OCO2
REMARK SMILES IDX 4 1 2 2 1 3 3 4 5 5 6 6 7 7 11 8 8 9 10 10 9 11 12 12 14 13
REMARK SMILES IDX 13 14
REMARK H PARENT
REMARK Flexibility Score: inf
ROOT
ATOM      1  C   UNL     1       6.339   1.219   0.951  1.00  0.00     0.080 C 
ENDROOT
BRANCH   1   2
ATOM      2  C   UNL     1       5.661   0.365   1.966  1.00  0.00     0.130 C 
ATOM      3  C   UNL     1       6.316  -0.845   2.531  1.00  0.00     0.087 C 
ATOM      4  O   UNL     1       4.540   0.636   2.364  1.00  0.00    -0.300 OA
ENDBRANCH   1   2
BRANCH   1   5
ATOM      5  C   UNL     1       5.825   0.930  -0.445  1.00  0.00     0.043 C 
BRANCH   5   6
ATOM      6  C   UNL     1       6.780   0.122  -1.223  1.00  0.00    -0.044 A 
ATOM      7  C   UNL     1       7.466   0.654  -2.322  1.00  0.00     0.008 A 
ATOM      8  C   UNL     1       7.014  -1.187  -0.869  1.00  0.00     0.054 A 
ATOM      9  C   UNL     1       8.351  -0.152  -3.014  1.00  0.00     0.051 A 
ATOM     10  C   UNL     1       7.910  -1.998  -1.572  1.00  0.00     0.166 A 
ATOM     11  C   UNL     1       8.584  -1.475  -2.654  1.00  0.00     0.165 A 
ATOM     12  O   UNL     1       8.309  -3.309  -1.422  1.00  0.00    -0.454 OA
ATOM     13  O   UNL     1       9.392  -2.487  -3.149  1.00  0.00    -0.454 OA
ATOM     14  C   UNL     1       9.317  -3.638  -2.343  1.00  0.00     0.468 C 
ENDBRANCH   5   6
ENDBRANCH   1   5
TORSDOF 3
ENDMDL
MODEL 5
REMARK VINA RESULT:      -7.1      1.936      2.523
REMARK SMILES CC(=O)CCc1ccc2c(c1)OCO2
REMARK SMILES IDX 4 1 2 2 1 3 3 4 5 5 6 6 7 7 11 8 8 9 10 10 9 11 12 12 14 13
REMARK SMILES IDX 13 14
REMARK H PARENT
REMARK Flexibility Score: inf
ROOT
ATOM      1  C   UNL     1       6.794   0.895   1.223  1.00  0.00     0.080 C 
ENDROOT
BRANCH   1   2
ATOM      2  C   UNL     1       5.342   1.193   1.375  1.00  0.00     0.130 C 
ATOM      3  C   UNL     1       4.643   2.150   0.476  1.00  0.00     0.087 C 
ATOM      4  O   UNL     1       4.681   0.656   2.249  1.00  0.00    -0.300 OA
ENDBRANCH   1   2
BRANCH   1   5
ATOM      5  C   UNL     1       7.241   1.060  -0.216  1.00  0.00     0.043 C 
BRANCH   5   6
ATOM      6  C   UNL     1       7.586  -0.234  -0.833  1.00  0.00    -0.044 A 
ATOM      7  C   UNL     1       7.595  -0.404  -2.222  1.00  0.00     0.008 A 
ATOM      8  C   UNL     1       7.909  -1.306  -0.033  1.00  0.00     0.054 A 
ATOM      9  C   UNL     1       7.927  -1.641  -2.744  1.00  0.00     0.051 A 
ATOM     10  C   UNL     1       8.245  -2.555  -0.565  1.00  0.00     0.166 A 
ATOM     11  C   UNL     1       8.254  -2.723  -1.932  1.00  0.00     0.165 A 
ATOM     12  O   UNL     1       8.598  -3.757   0.009  1.00  0.00    -0.454 OA
ATOM     13  O   UNL     1       8.617  -4.040  -2.171  1.00  0.00    -0.454 OA
ATOM     14  C   UNL     1       8.932  -4.706  -0.971  1.00  0.00     0.468 C 
ENDBRANCH   5   6
ENDBRANCH   1   5
TORSDOF 3
ENDMDL
