@<TRIPOS>MOLECULE
/home/cewinharhar/GITHUB/reincatalyze/data/processed/docking_pred/2023-May-30-2130_sub9_nm5_bs15_s42_ex16_mel10_mts10000_k50_ec05_g099_lra3e-4_lrc3e-3/bae690ffab80532c90b6f683492bf7de3cce581e_ligand_9.pdbqt
 14 15 0 0 0
SMALL
GASTEIGER

@<TRIPOS>ATOM
      1  C          5.4080   -0.0670    2.0030 C.3     1  UNL1        0.0800
      2  C          4.5740    1.1440    1.7660 C.2     1  UNL1        0.1300
      3  C          4.9060    2.1250    0.6990 C.3     1  UNL1        0.0870
      4  O          3.5860    1.3680    2.4470 O.2     1  UNL1       -0.3000
      5  C          6.8500    0.1710    1.6030 C.3     1  UNL1        0.0430
      6  C          7.2790   -0.7470    0.5330 C.2     1  UNL1       -0.0440
      7  C          7.1500   -0.4080   -0.8190 C.2     1  UNL1        0.0080
      8  C          7.8240   -1.9680    0.8590 C.2     1  UNL1        0.0540
      9  C          7.5710   -1.3090   -1.7800 C.2     1  UNL1        0.0510
     10  C          8.2490   -2.8750   -0.1160 C.2     1  UNL1        0.1660
     11  C          8.1210   -2.5430   -1.4470 C.2     1  UNL1        0.1650
     12  O          8.8130   -4.1320   -0.0490 O.2     1  UNL1       -0.4540
     13  O          8.6150   -3.6130   -2.1760 O.2     1  UNL1       -0.4540
     14  C          9.1470   -4.6030   -1.3290 C.3     1  UNL1        0.4680
@<TRIPOS>BOND
     1    13    11    1
     2    13    14    1
     3     9    11    2
     4     9     7    1
     5    11    10    1
     6    14    12    1
     7     7     6    2
     8    10    12    1
     9    10     8    2
    10     6     8    1
    11     6     5    1
    12     3     2    1
    13     5     1    1
    14     2     1    1
    15     2     4    2
