@<TRIPOS>MOLECULE
/home/cewinharhar/GITHUB/reincatalyze/data/processed/docking_pred/2023-May-30-2130_sub9_nm5_bs15_s42_ex16_mel10_mts10000_k50_ec05_g099_lra3e-4_lrc3e-3/bb509c9d750c31c787a0dfaad7ceec12964b61ea_ligand_9.pdbqt
 14 15 0 0 0
SMALL
GASTEIGER

@<TRIPOS>ATOM
      1  C          5.5110    1.9490    1.2550 C.3     1  UNL1        0.0800
      2  C          5.0960    0.7310    2.0060 C.2     1  UNL1        0.1300
      3  C          6.0120   -0.4280    2.1830 C.3     1  UNL1        0.0870
      4  O          3.9830    0.6490    2.5010 O.2     1  UNL1       -0.3000
      5  C          5.3850    1.7420   -0.2410 C.3     1  UNL1        0.0430
      6  C          6.5580    1.0440   -0.7970 C.2     1  UNL1       -0.0440
      7  C          7.8620    1.4800   -0.5370 C.2     1  UNL1        0.0080
      8  C          6.3780   -0.0670   -1.5890 C.2     1  UNL1        0.0540
      9  C          8.9240    0.7840   -1.0850 C.2     1  UNL1        0.0510
     10  C          7.4550   -0.7680   -2.1400 C.2     1  UNL1        0.1660
     11  C          8.7390   -0.3380   -1.8860 C.2     1  UNL1        0.1650
     12  O          7.5370   -1.8820   -2.9480 O.2     1  UNL1       -0.4540
     13  O          9.5910   -1.2080   -2.5490 O.2     1  UNL1       -0.4540
     14  C          8.8750   -2.2540   -3.1600 C.3     1  UNL1        0.4680
@<TRIPOS>BOND
     1    14    12    1
     2    14    13    1
     3    12    10    1
     4    13    11    1
     5    10    11    2
     6    10     8    1
     7    11     9    1
     8     8     6    2
     9     9     7    2
    10     6     7    1
    11     6     5    1
    12     5     1    1
    13     1     2    1
    14     2     3    1
    15     2     4    2
