@<TRIPOS>MOLECULE
/home/cewinharhar/GITHUB/reincatalyze/data/processed/docking_pred/2023-May-30-2130_sub9_nm5_bs15_s42_ex16_mel10_mts10000_k50_ec05_g099_lra3e-4_lrc3e-3/bb8285001221c2ec88d34c7e342a921234d5c761_ligand_9.pdbqt
 14 15 0 0 0
SMALL
GASTEIGER

@<TRIPOS>ATOM
      1  C          5.5050    1.9250    1.2530 C.3     1  UNL1        0.0800
      2  C          5.0440    0.7160    1.9910 C.2     1  UNL1        0.1300
      3  C          5.9070   -0.4870    2.1360 C.3     1  UNL1        0.0870
      4  O          3.9360    0.6780    2.5010 O.2     1  UNL1       -0.3000
      5  C          5.3860    1.7340   -0.2460 C.3     1  UNL1        0.0430
      6  C          6.5570    1.0330   -0.8020 C.2     1  UNL1       -0.0440
      7  C          7.8620    1.4670   -0.5430 C.2     1  UNL1        0.0080
      8  C          6.3740   -0.0770   -1.5950 C.2     1  UNL1        0.0540
      9  C          8.9220    0.7680   -1.0920 C.2     1  UNL1        0.0510
     10  C          7.4490   -0.7800   -2.1470 C.2     1  UNL1        0.1660
     11  C          8.7340   -0.3530   -1.8930 C.2     1  UNL1        0.1650
     12  O          7.5280   -1.8940   -2.9550 O.2     1  UNL1       -0.4540
     13  O          9.5830   -1.2240   -2.5570 O.2     1  UNL1       -0.4540
     14  C          8.8640   -2.2690   -3.1680 C.3     1  UNL1        0.4680
@<TRIPOS>BOND
     1    14    12    1
     2    14    13    1
     3    12    10    1
     4    13    11    1
     5    10    11    2
     6    10     8    1
     7    11     9    1
     8     8     6    2
     9     9     7    2
    10     6     7    1
    11     6     5    1
    12     5     1    1
    13     1     2    1
    14     2     3    1
    15     2     4    2
