@<TRIPOS>MOLECULE
/home/cewinharhar/GITHUB/reincatalyze/data/processed/docking_pred/2023-May-30-2130_sub9_nm5_bs15_s42_ex16_mel10_mts10000_k50_ec05_g099_lra3e-4_lrc3e-3/bb8285001221c2ec88d34c7e342a921234d5c761_ligand_9.pdbqt
 14 15 0 0 0
SMALL
GASTEIGER

@<TRIPOS>ATOM
      1  C          8.2780    0.1650   -2.7390 C.3     1  UNL1        0.0800
      2  C          8.0390   -1.3040   -2.7970 C.2     1  UNL1        0.1300
      3  C          9.1480   -2.2670   -3.0350 C.3     1  UNL1        0.0870
      4  O          6.9180   -1.7630   -2.6510 O.2     1  UNL1       -0.3000
      5  C          8.8230    0.5810   -1.3870 C.3     1  UNL1        0.0430
      6  C          7.8150    0.4320   -0.3220 C.2     1  UNL1       -0.0440
      7  C          7.9590   -0.5170    0.6970 C.2     1  UNL1        0.0080
      8  C          6.7030    1.2420   -0.3180 C.2     1  UNL1        0.0540
      9  C          6.9810   -0.6100    1.6700 C.2     1  UNL1        0.0510
     10  C          5.7170    1.1450    0.6690 C.2     1  UNL1        0.1660
     11  C          5.8570    0.2100    1.6710 C.2     1  UNL1        0.1650
     12  O          4.5370    1.8230    0.8890 O.2     1  UNL1       -0.4540
     13  O          4.7500    0.3370    2.4950 O.2     1  UNL1       -0.4540
     14  C          3.9330    1.4080    2.0880 C.3     1  UNL1        0.4680
@<TRIPOS>BOND
     1     3     2    1
     2     2     1    1
     3     2     4    2
     4     1     5    1
     5     5     6    1
     6     6     8    2
     7     6     7    1
     8     8    10    1
     9    10    12    1
    10    10    11    2
    11     7     9    2
    12    12    14    1
    13     9    11    1
    14    11    13    1
    15    14    13    1
