MODEL 1
REMARK VINA RESULT:      -7.7      0.000      0.000
REMARK SMILES CC(=O)CCc1ccc2c(c1)OCO2
REMARK SMILES IDX 4 1 2 2 1 3 3 4 5 5 6 6 7 7 11 8 8 9 10 10 9 11 12 12 14 13
REMARK SMILES IDX 13 14
REMARK H PARENT
REMARK Flexibility Score: inf
ROOT
ATOM      1  C   UNL     1       5.507   1.899   1.280  1.00  0.00     0.080 C 
ENDROOT
BRANCH   1   2
ATOM      2  C   UNL     1       5.058   0.681   2.010  1.00  0.00     0.130 C 
ATOM      3  C   UNL     1       5.935  -0.512   2.153  1.00  0.00     0.087 C 
ATOM      4  O   UNL     1       3.948   0.627   2.516  1.00  0.00    -0.300 OA
ENDBRANCH   1   2
BRANCH   1   5
ATOM      5  C   UNL     1       5.381   1.719  -0.220  1.00  0.00     0.043 C 
BRANCH   5   6
ATOM      6  C   UNL     1       6.551   1.023  -0.786  1.00  0.00    -0.044 A 
ATOM      7  C   UNL     1       7.856   1.466  -0.543  1.00  0.00     0.008 A 
ATOM      8  C   UNL     1       6.367  -0.091  -1.572  1.00  0.00     0.054 A 
ATOM      9  C   UNL     1       8.915   0.773  -1.100  1.00  0.00     0.051 A 
ATOM     10  C   UNL     1       7.440  -0.789  -2.133  1.00  0.00     0.166 A 
ATOM     11  C   UNL     1       8.725  -0.354  -1.895  1.00  0.00     0.165 A 
ATOM     12  O   UNL     1       7.517  -1.907  -2.937  1.00  0.00    -0.454 OA
ATOM     13  O   UNL     1       9.573  -1.222  -2.564  1.00  0.00    -0.454 OA
ATOM     14  C   UNL     1       8.854  -2.274  -3.163  1.00  0.00     0.468 C 
ENDBRANCH   5   6
ENDBRANCH   1   5
TORSDOF 3
ENDMDL
MODEL 2
REMARK VINA RESULT:      -7.4      1.943      2.436
REMARK SMILES CC(=O)CCc1ccc2c(c1)OCO2
REMARK SMILES IDX 4 1 2 2 1 3 3 4 5 5 6 6 7 7 11 8 8 9 10 10 9 11 12 12 14 13
REMARK SMILES IDX 13 14
REMARK H PARENT
REMARK Flexibility Score: inf
ROOT
ATOM      1  C   UNL     1       5.676   1.227  -0.302  1.00  0.00     0.080 C 
ENDROOT
BRANCH   1   2
ATOM      2  C   UNL     1       5.132   1.227   1.085  1.00  0.00     0.130 C 
ATOM      3  C   UNL     1       5.403   0.111   2.029  1.00  0.00     0.087 C 
ATOM      4  O   UNL     1       4.443   2.150   1.488  1.00  0.00    -0.300 OA
ENDBRANCH   1   2
BRANCH   1   5
ATOM      5  C   UNL     1       7.179   1.030  -0.303  1.00  0.00     0.043 C 
BRANCH   5   6
ATOM      6  C   UNL     1       7.560  -0.265  -0.895  1.00  0.00    -0.044 A 
ATOM      7  C   UNL     1       7.585  -0.459  -2.280  1.00  0.00     0.008 A 
ATOM      8  C   UNL     1       7.904  -1.315  -0.074  1.00  0.00     0.054 A 
ATOM      9  C   UNL     1       7.951  -1.696  -2.778  1.00  0.00     0.051 A 
ATOM     10  C   UNL     1       8.274  -2.564  -0.582  1.00  0.00     0.166 A 
ATOM     11  C   UNL     1       8.298  -2.756  -1.945  1.00  0.00     0.165 A 
ATOM     12  O   UNL     1       8.652  -3.747   0.016  1.00  0.00    -0.454 OA
ATOM     13  O   UNL     1       8.695  -4.067  -2.158  1.00  0.00    -0.454 OA
ATOM     14  C   UNL     1       9.018  -4.704  -0.945  1.00  0.00     0.468 C 
ENDBRANCH   5   6
ENDBRANCH   1   5
TORSDOF 3
ENDMDL
MODEL 3
REMARK VINA RESULT:      -7.2      2.049      2.598
REMARK SMILES CC(=O)CCc1ccc2c(c1)OCO2
REMARK SMILES IDX 4 1 2 2 1 3 3 4 5 5 6 6 7 7 11 8 8 9 10 10 9 11 12 12 14 13
REMARK SMILES IDX 13 14
REMARK H PARENT
REMARK Flexibility Score: inf
ROOT
ATOM      1  C   UNL     1       5.485   0.009   2.013  1.00  0.00     0.080 C 
ENDROOT
BRANCH   1   2
ATOM      2  C   UNL     1       4.587   1.168   1.749  1.00  0.00     0.130 C 
ATOM      3  C   UNL     1       4.876   2.150   0.670  1.00  0.00     0.087 C 
ATOM      4  O   UNL     1       3.581   1.346   2.416  1.00  0.00    -0.300 OA
ENDBRANCH   1   2
BRANCH   1   5
ATOM      5  C   UNL     1       6.894   0.283   1.526  1.00  0.00     0.043 C 
BRANCH   5   6
ATOM      6  C   UNL     1       7.304  -0.668   0.477  1.00  0.00    -0.044 A 
ATOM      7  C   UNL     1       7.180  -0.358  -0.882  1.00  0.00     0.008 A 
ATOM      8  C   UNL     1       7.826  -1.891   0.831  1.00  0.00     0.054 A 
ATOM      9  C   UNL     1       7.582  -1.289  -1.822  1.00  0.00     0.051 A 
ATOM     10  C   UNL     1       8.232  -2.829  -0.123  1.00  0.00     0.166 A 
ATOM     11  C   UNL     1       8.109  -2.525  -1.461  1.00  0.00     0.165 A 
ATOM     12  O   UNL     1       8.772  -4.094  -0.028  1.00  0.00    -0.454 OA
ATOM     13  O   UNL     1       8.581  -3.621  -2.166  1.00  0.00    -0.454 OA
ATOM     14  C   UNL     1       9.095  -4.601  -1.297  1.00  0.00     0.468 C 
ENDBRANCH   5   6
ENDBRANCH   1   5
TORSDOF 3
ENDMDL
MODEL 4
REMARK VINA RESULT:      -7.1      1.242      1.448
REMARK SMILES CC(=O)CCc1ccc2c(c1)OCO2
REMARK SMILES IDX 4 1 2 2 1 3 3 4 5 5 6 6 7 7 11 8 8 9 10 10 9 11 12 12 14 13
REMARK SMILES IDX 13 14
REMARK H PARENT
REMARK Flexibility Score: inf
ROOT
ATOM      1  C   UNL     1       6.344   1.236   0.883  1.00  0.00     0.080 C 
ENDROOT
BRANCH   1   2
ATOM      2  C   UNL     1       5.652   0.415   1.915  1.00  0.00     0.130 C 
ATOM      3  C   UNL     1       6.273  -0.812   2.483  1.00  0.00     0.087 C 
ATOM      4  O   UNL     1       4.547   0.727   2.328  1.00  0.00    -0.300 OA
ENDBRANCH   1   2
BRANCH   1   5
ATOM      5  C   UNL     1       5.837   0.912  -0.508  1.00  0.00     0.043 C 
BRANCH   5   6
ATOM      6  C   UNL     1       6.805   0.099  -1.266  1.00  0.00    -0.044 A 
ATOM      7  C   UNL     1       7.524   0.630  -2.344  1.00  0.00     0.008 A 
ATOM      8  C   UNL     1       7.017  -1.214  -0.914  1.00  0.00     0.054 A 
ATOM      9  C   UNL     1       8.419  -0.180  -3.017  1.00  0.00     0.051 A 
ATOM     10  C   UNL     1       7.924  -2.029  -1.598  1.00  0.00     0.166 A 
ATOM     11  C   UNL     1       8.631  -1.508  -2.659  1.00  0.00     0.165 A 
ATOM     12  O   UNL     1       8.307  -3.345  -1.444  1.00  0.00    -0.454 OA
ATOM     13  O   UNL     1       9.442  -2.524  -3.138  1.00  0.00    -0.454 OA
ATOM     14  C   UNL     1       9.335  -3.679  -2.341  1.00  0.00     0.468 C 
ENDBRANCH   5   6
ENDBRANCH   1   5
TORSDOF 3
ENDMDL
MODEL 5
REMARK VINA RESULT:      -6.9      1.991      2.566
REMARK SMILES CC(=O)CCc1ccc2c(c1)OCO2
REMARK SMILES IDX 4 1 2 2 1 3 3 4 5 5 6 6 7 7 11 8 8 9 10 10 9 11 12 12 14 13
REMARK SMILES IDX 13 14
REMARK H PARENT
REMARK Flexibility Score: inf
ROOT
ATOM      1  C   UNL     1       6.954   1.074   1.133  1.00  0.00     0.080 C 
ENDROOT
BRANCH   1   2
ATOM      2  C   UNL     1       5.499   1.242   1.408  1.00  0.00     0.130 C 
ATOM      3  C   UNL     1       4.650   2.149   0.590  1.00  0.00     0.087 C 
ATOM      4  O   UNL     1       4.959   0.636   2.319  1.00  0.00    -0.300 OA
ENDBRANCH   1   2
BRANCH   1   5
ATOM      5  C   UNL     1       7.243   1.125  -0.354  1.00  0.00     0.043 C 
BRANCH   5   6
ATOM      6  C   UNL     1       7.593  -0.203  -0.889  1.00  0.00    -0.044 A 
ATOM      7  C   UNL     1       7.587  -0.464  -2.264  1.00  0.00     0.008 A 
ATOM      8  C   UNL     1       7.937  -1.217  -0.025  1.00  0.00     0.054 A 
ATOM      9  C   UNL     1       7.926  -1.729  -2.708  1.00  0.00     0.051 A 
ATOM     10  C   UNL     1       8.279  -2.494  -0.479  1.00  0.00     0.166 A 
ATOM     11  C   UNL     1       8.273  -2.752  -1.832  1.00  0.00     0.165 A 
ATOM     12  O   UNL     1       8.651  -3.653   0.168  1.00  0.00    -0.454 OA
ATOM     13  O   UNL     1       8.646  -4.078  -1.989  1.00  0.00    -0.454 OA
ATOM     14  C   UNL     1       8.983  -4.661  -0.752  1.00  0.00     0.468 C 
ENDBRANCH   5   6
ENDBRANCH   1   5
TORSDOF 3
ENDMDL
