@<TRIPOS>MOLECULE
/home/cewinharhar/GITHUB/reincatalyze/data/processed/docking_pred/2023-May-30-2130_sub9_nm5_bs15_s42_ex16_mel10_mts10000_k50_ec05_g099_lra3e-4_lrc3e-3/bdfc35a41e3d78d3bf59a6b88613069133e00868_ligand_9.pdbqt
 14 15 0 0 0
SMALL
GASTEIGER

@<TRIPOS>ATOM
      1  C          6.3440    1.2360    0.8830 C.3     1  UNL1        0.0800
      2  C          5.6520    0.4150    1.9150 C.2     1  UNL1        0.1300
      3  C          6.2730   -0.8120    2.4830 C.3     1  UNL1        0.0870
      4  O          4.5470    0.7270    2.3280 O.2     1  UNL1       -0.3000
      5  C          5.8370    0.9120   -0.5080 C.3     1  UNL1        0.0430
      6  C          6.8050    0.0990   -1.2660 C.2     1  UNL1       -0.0440
      7  C          7.5240    0.6300   -2.3440 C.2     1  UNL1        0.0080
      8  C          7.0170   -1.2140   -0.9140 C.2     1  UNL1        0.0540
      9  C          8.4190   -0.1800   -3.0170 C.2     1  UNL1        0.0510
     10  C          7.9240   -2.0290   -1.5980 C.2     1  UNL1        0.1660
     11  C          8.6310   -1.5080   -2.6590 C.2     1  UNL1        0.1650
     12  O          8.3070   -3.3450   -1.4440 O.2     1  UNL1       -0.4540
     13  O          9.4420   -2.5240   -3.1380 O.2     1  UNL1       -0.4540
     14  C          9.3350   -3.6790   -2.3410 C.3     1  UNL1        0.4680
@<TRIPOS>BOND
     1    13    11    1
     2    13    14    1
     3     9    11    2
     4     9     7    1
     5    11    10    1
     6     7     6    2
     7    14    12    1
     8    10    12    1
     9    10     8    2
    10     6     8    1
    11     6     5    1
    12     5     1    1
    13     1     2    1
    14     2     4    2
    15     2     3    1
