@<TRIPOS>MOLECULE
/home/cewinharhar/GITHUB/reincatalyze/data/processed/docking_pred/2023-May-30-2130_sub9_nm5_bs15_s42_ex16_mel10_mts10000_k50_ec05_g099_lra3e-4_lrc3e-3/bdfc35a41e3d78d3bf59a6b88613069133e00868_ligand_9.pdbqt
 14 15 0 0 0
SMALL
GASTEIGER

@<TRIPOS>ATOM
      1  C          5.6760    1.2270   -0.3020 C.3     1  UNL1        0.0800
      2  C          5.1320    1.2270    1.0850 C.2     1  UNL1        0.1300
      3  C          5.4030    0.1110    2.0290 C.3     1  UNL1        0.0870
      4  O          4.4430    2.1500    1.4880 O.2     1  UNL1       -0.3000
      5  C          7.1790    1.0300   -0.3030 C.3     1  UNL1        0.0430
      6  C          7.5600   -0.2650   -0.8950 C.2     1  UNL1       -0.0440
      7  C          7.5850   -0.4590   -2.2800 C.2     1  UNL1        0.0080
      8  C          7.9040   -1.3150   -0.0740 C.2     1  UNL1        0.0540
      9  C          7.9510   -1.6960   -2.7780 C.2     1  UNL1        0.0510
     10  C          8.2740   -2.5640   -0.5820 C.2     1  UNL1        0.1660
     11  C          8.2980   -2.7560   -1.9450 C.2     1  UNL1        0.1650
     12  O          8.6520   -3.7470    0.0160 O.2     1  UNL1       -0.4540
     13  O          8.6950   -4.0670   -2.1580 O.2     1  UNL1       -0.4540
     14  C          9.0180   -4.7040   -0.9450 C.3     1  UNL1        0.4680
@<TRIPOS>BOND
     1     9     7    1
     2     9    11    2
     3     7     6    2
     4    13    11    1
     5    13    14    1
     6    11    10    1
     7    14    12    1
     8     6     5    1
     9     6     8    1
    10    10     8    2
    11    10    12    1
    12     5     1    1
    13     1     2    1
    14     2     4    2
    15     2     3    1
