@<TRIPOS>MOLECULE
/home/cewinharhar/GITHUB/reincatalyze/data/processed/docking_pred/2023-May-30-2130_sub9_nm5_bs15_s42_ex16_mel10_mts10000_k50_ec05_g099_lra3e-4_lrc3e-3/bdfc35a41e3d78d3bf59a6b88613069133e00868_ligand_9.pdbqt
 14 15 0 0 0
SMALL
GASTEIGER

@<TRIPOS>ATOM
      1  C          5.5070    1.8990    1.2800 C.3     1  UNL1        0.0800
      2  C          5.0580    0.6810    2.0100 C.2     1  UNL1        0.1300
      3  C          5.9350   -0.5120    2.1530 C.3     1  UNL1        0.0870
      4  O          3.9480    0.6270    2.5160 O.2     1  UNL1       -0.3000
      5  C          5.3810    1.7190   -0.2200 C.3     1  UNL1        0.0430
      6  C          6.5510    1.0230   -0.7860 C.2     1  UNL1       -0.0440
      7  C          7.8560    1.4660   -0.5430 C.2     1  UNL1        0.0080
      8  C          6.3670   -0.0910   -1.5720 C.2     1  UNL1        0.0540
      9  C          8.9150    0.7730   -1.1000 C.2     1  UNL1        0.0510
     10  C          7.4400   -0.7890   -2.1330 C.2     1  UNL1        0.1660
     11  C          8.7250   -0.3540   -1.8950 C.2     1  UNL1        0.1650
     12  O          7.5170   -1.9070   -2.9370 O.2     1  UNL1       -0.4540
     13  O          9.5730   -1.2220   -2.5640 O.2     1  UNL1       -0.4540
     14  C          8.8540   -2.2740   -3.1630 C.3     1  UNL1        0.4680
@<TRIPOS>BOND
     1    14    12    1
     2    14    13    1
     3    12    10    1
     4    13    11    1
     5    10    11    2
     6    10     8    1
     7    11     9    1
     8     8     6    2
     9     9     7    2
    10     6     7    1
    11     6     5    1
    12     5     1    1
    13     1     2    1
    14     2     3    1
    15     2     4    2
