MODEL 1
REMARK VINA RESULT:      -7.7      0.000      0.000
REMARK SMILES CC(=O)CCc1ccc2c(c1)OCO2
REMARK SMILES IDX 4 1 2 2 1 3 3 4 5 5 6 6 7 7 11 8 8 9 10 10 9 11 12 12 14 13
REMARK SMILES IDX 13 14
REMARK H PARENT
REMARK Flexibility Score: inf
ROOT
ATOM      1  C   UNL     1       5.522   1.912   1.273  1.00  0.00     0.080 C 
ENDROOT
BRANCH   1   2
ATOM      2  C   UNL     1       5.067   0.699   2.008  1.00  0.00     0.130 C 
ATOM      3  C   UNL     1       5.940  -0.496   2.160  1.00  0.00     0.087 C 
ATOM      4  O   UNL     1       3.955   0.650   2.510  1.00  0.00    -0.300 OA
ENDBRANCH   1   2
BRANCH   1   5
ATOM      5  C   UNL     1       5.394   1.727  -0.226  1.00  0.00     0.043 C 
BRANCH   5   6
ATOM      6  C   UNL     1       6.561   1.027  -0.792  1.00  0.00    -0.044 A 
ATOM      7  C   UNL     1       7.867   1.468  -0.552  1.00  0.00     0.008 A 
ATOM      8  C   UNL     1       6.374  -0.089  -1.575  1.00  0.00     0.054 A 
ATOM      9  C   UNL     1       8.924   0.771  -1.108  1.00  0.00     0.051 A 
ATOM     10  C   UNL     1       7.445  -0.790  -2.135  1.00  0.00     0.166 A 
ATOM     11  C   UNL     1       8.731  -0.356  -1.900  1.00  0.00     0.165 A 
ATOM     12  O   UNL     1       7.519  -1.910  -2.937  1.00  0.00    -0.454 OA
ATOM     13  O   UNL     1       9.577  -1.228  -2.568  1.00  0.00    -0.454 OA
ATOM     14  C   UNL     1       8.855  -2.280  -3.164  1.00  0.00     0.468 C 
ENDBRANCH   5   6
ENDBRANCH   1   5
TORSDOF 3
ENDMDL
MODEL 2
REMARK VINA RESULT:      -7.6      1.922      2.379
REMARK SMILES CC(=O)CCc1ccc2c(c1)OCO2
REMARK SMILES IDX 4 1 2 2 1 3 3 4 5 5 6 6 7 7 11 8 8 9 10 10 9 11 12 12 14 13
REMARK SMILES IDX 13 14
REMARK H PARENT
REMARK Flexibility Score: inf
ROOT
ATOM      1  C   UNL     1       5.704   1.360  -0.283  1.00  0.00     0.080 C 
ENDROOT
BRANCH   1   2
ATOM      2  C   UNL     1       5.089   1.274   1.071  1.00  0.00     0.130 C 
ATOM      3  C   UNL     1       5.395   0.151   1.997  1.00  0.00     0.087 C 
ATOM      4  O   UNL     1       4.310   2.129   1.461  1.00  0.00    -0.300 OA
ENDBRANCH   1   2
BRANCH   1   5
ATOM      5  C   UNL     1       7.200   1.121  -0.224  1.00  0.00     0.043 C 
BRANCH   5   6
ATOM      6  C   UNL     1       7.571  -0.170  -0.829  1.00  0.00    -0.044 A 
ATOM      7  C   UNL     1       7.609  -0.345  -2.218  1.00  0.00     0.008 A 
ATOM      8  C   UNL     1       7.893  -1.236  -0.020  1.00  0.00     0.054 A 
ATOM      9  C   UNL     1       7.965  -1.580  -2.729  1.00  0.00     0.051 A 
ATOM     10  C   UNL     1       8.253  -2.482  -0.541  1.00  0.00     0.166 A 
ATOM     11  C   UNL     1       8.289  -2.656  -1.907  1.00  0.00     0.165 A 
ATOM     12  O   UNL     1       8.609  -3.678   0.044  1.00  0.00    -0.454 OA
ATOM     13  O   UNL     1       8.672  -3.968  -2.134  1.00  0.00    -0.454 OA
ATOM     14  C   UNL     1       8.973  -4.626  -0.927  1.00  0.00     0.468 C 
ENDBRANCH   5   6
ENDBRANCH   1   5
TORSDOF 3
ENDMDL
MODEL 3
REMARK VINA RESULT:      -7.3      2.053      2.626
REMARK SMILES CC(=O)CCc1ccc2c(c1)OCO2
REMARK SMILES IDX 4 1 2 2 1 3 3 4 5 5 6 6 7 7 11 8 8 9 10 10 9 11 12 12 14 13
REMARK SMILES IDX 13 14
REMARK H PARENT
REMARK Flexibility Score: inf
ROOT
ATOM      1  C   UNL     1       5.420  -0.060   2.019  1.00  0.00     0.080 C 
ENDROOT
BRANCH   1   2
ATOM      2  C   UNL     1       4.567   1.137   1.772  1.00  0.00     0.130 C 
ATOM      3  C   UNL     1       4.907   2.134   0.722  1.00  0.00     0.087 C 
ATOM      4  O   UNL     1       3.559   1.334   2.430  1.00  0.00    -0.300 OA
ENDBRANCH   1   2
BRANCH   1   5
ATOM      5  C   UNL     1       6.854   0.190   1.597  1.00  0.00     0.043 C 
BRANCH   5   6
ATOM      6  C   UNL     1       7.280  -0.737   0.533  1.00  0.00    -0.044 A 
ATOM      7  C   UNL     1       7.153  -0.406  -0.821  1.00  0.00     0.008 A 
ATOM      8  C   UNL     1       7.819  -1.958   0.868  1.00  0.00     0.054 A 
ATOM      9  C   UNL     1       7.571  -1.316  -1.776  1.00  0.00     0.051 A 
ATOM     10  C   UNL     1       8.240  -2.874  -0.101  1.00  0.00     0.166 A 
ATOM     11  C   UNL     1       8.115  -2.550  -1.434  1.00  0.00     0.165 A 
ATOM     12  O   UNL     1       8.799  -4.132  -0.025  1.00  0.00    -0.454 OA
ATOM     13  O   UNL     1       8.605  -3.627  -2.156  1.00  0.00    -0.454 OA
ATOM     14  C   UNL     1       9.132  -4.614  -1.302  1.00  0.00     0.468 C 
ENDBRANCH   5   6
ENDBRANCH   1   5
TORSDOF 3
ENDMDL
MODEL 4
REMARK VINA RESULT:      -7.2      1.254      1.463
REMARK SMILES CC(=O)CCc1ccc2c(c1)OCO2
REMARK SMILES IDX 4 1 2 2 1 3 3 4 5 5 6 6 7 7 11 8 8 9 10 10 9 11 12 12 14 13
REMARK SMILES IDX 13 14
REMARK H PARENT
REMARK Flexibility Score: inf
ROOT
ATOM      1  C   UNL     1       6.374   1.206   0.948  1.00  0.00     0.080 C 
ENDROOT
BRANCH   1   2
ATOM      2  C   UNL     1       5.636   0.376   1.941  1.00  0.00     0.130 C 
ATOM      3  C   UNL     1       6.235  -0.850   2.533  1.00  0.00     0.087 C 
ATOM      4  O   UNL     1       4.510   0.682   2.300  1.00  0.00    -0.300 OA
ENDBRANCH   1   2
BRANCH   1   5
ATOM      5  C   UNL     1       5.872   0.954  -0.460  1.00  0.00     0.043 C 
BRANCH   5   6
ATOM      6  C   UNL     1       6.809   0.119  -1.233  1.00  0.00    -0.044 A 
ATOM      7  C   UNL     1       7.480   0.617  -2.356  1.00  0.00     0.008 A 
ATOM      8  C   UNL     1       7.040  -1.182  -0.849  1.00  0.00     0.054 A 
ATOM      9  C   UNL     1       8.349  -0.213  -3.041  1.00  0.00     0.051 A 
ATOM     10  C   UNL     1       7.920  -2.017  -1.545  1.00  0.00     0.166 A 
ATOM     11  C   UNL     1       8.579  -1.528  -2.650  1.00  0.00     0.165 A 
ATOM     12  O   UNL     1       8.313  -3.326  -1.366  1.00  0.00    -0.454 OA
ATOM     13  O   UNL     1       9.373  -2.558  -3.132  1.00  0.00    -0.454 OA
ATOM     14  C   UNL     1       9.303  -3.687  -2.294  1.00  0.00     0.468 C 
ENDBRANCH   5   6
ENDBRANCH   1   5
TORSDOF 3
ENDMDL
MODEL 5
REMARK VINA RESULT:      -7.1      1.951      2.530
REMARK SMILES CC(=O)CCc1ccc2c(c1)OCO2
REMARK SMILES IDX 4 1 2 2 1 3 3 4 5 5 6 6 7 7 11 8 8 9 10 10 9 11 12 12 14 13
REMARK SMILES IDX 13 14
REMARK H PARENT
REMARK Flexibility Score: inf
ROOT
ATOM      1  C   UNL     1       6.926   0.915   1.219  1.00  0.00     0.080 C 
ENDROOT
BRANCH   1   2
ATOM      2  C   UNL     1       5.477   1.155   1.468  1.00  0.00     0.130 C 
ATOM      3  C   UNL     1       4.701   2.144   0.672  1.00  0.00     0.087 C 
ATOM      4  O   UNL     1       4.880   0.541   2.338  1.00  0.00    -0.300 OA
ENDBRANCH   1   2
BRANCH   1   5
ATOM      5  C   UNL     1       7.262   1.055  -0.252  1.00  0.00     0.043 C 
BRANCH   5   6
ATOM      6  C   UNL     1       7.602  -0.244  -0.860  1.00  0.00    -0.044 A 
ATOM      7  C   UNL     1       7.605  -0.425  -2.248  1.00  0.00     0.008 A 
ATOM      8  C   UNL     1       7.928  -1.311  -0.054  1.00  0.00     0.054 A 
ATOM      9  C   UNL     1       7.933  -1.666  -2.762  1.00  0.00     0.051 A 
ATOM     10  C   UNL     1       8.260  -2.563  -0.578  1.00  0.00     0.166 A 
ATOM     11  C   UNL     1       8.262  -2.743  -1.944  1.00  0.00     0.165 A 
ATOM     12  O   UNL     1       8.614  -3.762   0.004  1.00  0.00    -0.454 OA
ATOM     13  O   UNL     1       8.622  -4.061  -2.174  1.00  0.00    -0.454 OA
ATOM     14  C   UNL     1       8.942  -4.718  -0.971  1.00  0.00     0.468 C 
ENDBRANCH   5   6
ENDBRANCH   1   5
TORSDOF 3
ENDMDL
