@<TRIPOS>MOLECULE
/home/cewinharhar/GITHUB/reincatalyze/data/processed/docking_pred/2023-May-30-2130_sub9_nm5_bs15_s42_ex16_mel10_mts10000_k50_ec05_g099_lra3e-4_lrc3e-3/bef029ec7f2d3d0301694813bb63cef4e6663bb8_ligand_9.pdbqt
 14 15 0 0 0
SMALL
GASTEIGER

@<TRIPOS>ATOM
      1  C          6.9260    0.9150    1.2190 C.3     1  UNL1        0.0800
      2  C          5.4770    1.1550    1.4680 C.2     1  UNL1        0.1300
      3  C          4.7010    2.1440    0.6720 C.3     1  UNL1        0.0870
      4  O          4.8800    0.5410    2.3380 O.2     1  UNL1       -0.3000
      5  C          7.2620    1.0550   -0.2520 C.3     1  UNL1        0.0430
      6  C          7.6020   -0.2440   -0.8600 C.2     1  UNL1       -0.0440
      7  C          7.6050   -0.4250   -2.2480 C.2     1  UNL1        0.0080
      8  C          7.9280   -1.3110   -0.0540 C.2     1  UNL1        0.0540
      9  C          7.9330   -1.6660   -2.7620 C.2     1  UNL1        0.0510
     10  C          8.2600   -2.5630   -0.5780 C.2     1  UNL1        0.1660
     11  C          8.2620   -2.7430   -1.9440 C.2     1  UNL1        0.1650
     12  O          8.6140   -3.7620    0.0040 O.2     1  UNL1       -0.4540
     13  O          8.6220   -4.0610   -2.1740 O.2     1  UNL1       -0.4540
     14  C          8.9420   -4.7180   -0.9710 C.3     1  UNL1        0.4680
@<TRIPOS>BOND
     1     9     7    1
     2     9    11    2
     3     7     6    2
     4    13    11    1
     5    13    14    1
     6    11    10    1
     7    14    12    1
     8     6     5    1
     9     6     8    1
    10    10     8    2
    11    10    12    1
    12     5     1    1
    13     3     2    1
    14     1     2    1
    15     2     4    2
