@<TRIPOS>MOLECULE
/home/cewinharhar/GITHUB/reincatalyze/data/processed/docking_pred/2023-May-30-2130_sub9_nm5_bs15_s42_ex16_mel10_mts10000_k50_ec05_g099_lra3e-4_lrc3e-3/bef029ec7f2d3d0301694813bb63cef4e6663bb8_ligand_9.pdbqt
 14 15 0 0 0
SMALL
GASTEIGER

@<TRIPOS>ATOM
      1  C          6.3740    1.2060    0.9480 C.3     1  UNL1        0.0800
      2  C          5.6360    0.3760    1.9410 C.2     1  UNL1        0.1300
      3  C          6.2350   -0.8500    2.5330 C.3     1  UNL1        0.0870
      4  O          4.5100    0.6820    2.3000 O.2     1  UNL1       -0.3000
      5  C          5.8720    0.9540   -0.4600 C.3     1  UNL1        0.0430
      6  C          6.8090    0.1190   -1.2330 C.2     1  UNL1       -0.0440
      7  C          7.4800    0.6170   -2.3560 C.2     1  UNL1        0.0080
      8  C          7.0400   -1.1820   -0.8490 C.2     1  UNL1        0.0540
      9  C          8.3490   -0.2130   -3.0410 C.2     1  UNL1        0.0510
     10  C          7.9200   -2.0170   -1.5450 C.2     1  UNL1        0.1660
     11  C          8.5790   -1.5280   -2.6500 C.2     1  UNL1        0.1650
     12  O          8.3130   -3.3260   -1.3660 O.2     1  UNL1       -0.4540
     13  O          9.3730   -2.5580   -3.1320 O.2     1  UNL1       -0.4540
     14  C          9.3030   -3.6870   -2.2940 C.3     1  UNL1        0.4680
@<TRIPOS>BOND
     1    13    11    1
     2    13    14    1
     3     9    11    2
     4     9     7    1
     5    11    10    1
     6     7     6    2
     7    14    12    1
     8    10    12    1
     9    10     8    2
    10     6     8    1
    11     6     5    1
    12     5     1    1
    13     1     2    1
    14     2     4    2
    15     2     3    1
