@<TRIPOS>MOLECULE
/home/cewinharhar/GITHUB/reincatalyze/data/processed/docking_pred/2023-May-30-2130_sub9_nm5_bs15_s42_ex16_mel10_mts10000_k50_ec05_g099_lra3e-4_lrc3e-3/bef029ec7f2d3d0301694813bb63cef4e6663bb8_ligand_9.pdbqt
 14 15 0 0 0
SMALL
GASTEIGER

@<TRIPOS>ATOM
      1  C          5.7040    1.3600   -0.2830 C.3     1  UNL1        0.0800
      2  C          5.0890    1.2740    1.0710 C.2     1  UNL1        0.1300
      3  C          5.3950    0.1510    1.9970 C.3     1  UNL1        0.0870
      4  O          4.3100    2.1290    1.4610 O.2     1  UNL1       -0.3000
      5  C          7.2000    1.1210   -0.2240 C.3     1  UNL1        0.0430
      6  C          7.5710   -0.1700   -0.8290 C.2     1  UNL1       -0.0440
      7  C          7.6090   -0.3450   -2.2180 C.2     1  UNL1        0.0080
      8  C          7.8930   -1.2360   -0.0200 C.2     1  UNL1        0.0540
      9  C          7.9650   -1.5800   -2.7290 C.2     1  UNL1        0.0510
     10  C          8.2530   -2.4820   -0.5410 C.2     1  UNL1        0.1660
     11  C          8.2890   -2.6560   -1.9070 C.2     1  UNL1        0.1650
     12  O          8.6090   -3.6780    0.0440 O.2     1  UNL1       -0.4540
     13  O          8.6720   -3.9680   -2.1340 O.2     1  UNL1       -0.4540
     14  C          8.9730   -4.6260   -0.9270 C.3     1  UNL1        0.4680
@<TRIPOS>BOND
     1     9     7    1
     2     9    11    2
     3     7     6    2
     4    13    11    1
     5    13    14    1
     6    11    10    1
     7    14    12    1
     8     6     5    1
     9     6     8    1
    10    10     8    2
    11    10    12    1
    12     1     5    1
    13     1     2    1
    14     2     4    2
    15     2     3    1
