MODEL 1
REMARK VINA RESULT:      -7.6      0.000      0.000
REMARK SMILES CC(=O)CCc1ccc2c(c1)OCO2
REMARK SMILES IDX 4 1 2 2 1 3 3 4 5 5 6 6 7 7 11 8 8 9 10 10 9 11 12 12 14 13
REMARK SMILES IDX 13 14
REMARK H PARENT
REMARK Flexibility Score: inf
ROOT
ATOM      1  C   UNL     1       5.530   1.940   1.257  1.00  0.00     0.080 C 
ENDROOT
BRANCH   1   2
ATOM      2  C   UNL     1       5.113   0.720   2.002  1.00  0.00     0.130 C 
ATOM      3  C   UNL     1       6.032  -0.435   2.189  1.00  0.00     0.087 C 
ATOM      4  O   UNL     1       3.995   0.632   2.485  1.00  0.00    -0.300 OA
ENDBRANCH   1   2
BRANCH   1   5
ATOM      5  C   UNL     1       5.403   1.740  -0.240  1.00  0.00     0.043 C 
BRANCH   5   6
ATOM      6  C   UNL     1       6.569   1.032  -0.798  1.00  0.00    -0.044 A 
ATOM      7  C   UNL     1       7.878   1.454  -0.537  1.00  0.00     0.008 A 
ATOM      8  C   UNL     1       6.378  -0.075  -1.594  1.00  0.00     0.054 A 
ATOM      9  C   UNL     1       8.933   0.749  -1.087  1.00  0.00     0.051 A 
ATOM     10  C   UNL     1       7.448  -0.785  -2.147  1.00  0.00     0.166 A 
ATOM     11  C   UNL     1       8.736  -0.369  -1.892  1.00  0.00     0.165 A 
ATOM     12  O   UNL     1       7.519  -1.898  -2.958  1.00  0.00    -0.454 OA
ATOM     13  O   UNL     1       9.580  -1.245  -2.557  1.00  0.00    -0.454 OA
ATOM     14  C   UNL     1       8.853  -2.282  -3.171  1.00  0.00     0.468 C 
ENDBRANCH   5   6
ENDBRANCH   1   5
TORSDOF 3
ENDMDL
MODEL 2
REMARK VINA RESULT:      -7.5      1.937      2.393
REMARK SMILES CC(=O)CCc1ccc2c(c1)OCO2
REMARK SMILES IDX 4 1 2 2 1 3 3 4 5 5 6 6 7 7 11 8 8 9 10 10 9 11 12 12 14 13
REMARK SMILES IDX 13 14
REMARK H PARENT
REMARK Flexibility Score: inf
ROOT
ATOM      1  C   UNL     1       5.718   1.246  -0.311  1.00  0.00     0.080 C 
ENDROOT
BRANCH   1   2
ATOM      2  C   UNL     1       5.144   1.235   1.063  1.00  0.00     0.130 C 
ATOM      3  C   UNL     1       5.404   0.117   2.009  1.00  0.00     0.087 C 
ATOM      4  O   UNL     1       4.438   2.150   1.455  1.00  0.00    -0.300 OA
ENDBRANCH   1   2
BRANCH   1   5
ATOM      5  C   UNL     1       7.223   1.066  -0.281  1.00  0.00     0.043 C 
BRANCH   5   6
ATOM      6  C   UNL     1       7.632  -0.216  -0.881  1.00  0.00    -0.044 A 
ATOM      7  C   UNL     1       7.774  -0.366  -2.265  1.00  0.00     0.008 A 
ATOM      8  C   UNL     1       7.886  -1.299  -0.069  1.00  0.00     0.054 A 
ATOM      9  C   UNL     1       8.162  -1.593  -2.771  1.00  0.00     0.051 A 
ATOM     10  C   UNL     1       8.278  -2.537  -0.585  1.00  0.00     0.166 A 
ATOM     11  C   UNL     1       8.417  -2.686  -1.947  1.00  0.00     0.165 A 
ATOM     12  O   UNL     1       8.583  -3.746   0.003  1.00  0.00    -0.454 OA
ATOM     13  O   UNL     1       8.810  -3.996  -2.170  1.00  0.00    -0.454 OA
ATOM     14  C   UNL     1       9.015  -4.678  -0.955  1.00  0.00     0.468 C 
ENDBRANCH   5   6
ENDBRANCH   1   5
TORSDOF 3
ENDMDL
MODEL 3
REMARK VINA RESULT:      -7.2      2.073      2.614
REMARK SMILES CC(=O)CCc1ccc2c(c1)OCO2
REMARK SMILES IDX 4 1 2 2 1 3 3 4 5 5 6 6 7 7 11 8 8 9 10 10 9 11 12 12 14 13
REMARK SMILES IDX 13 14
REMARK H PARENT
REMARK Flexibility Score: inf
ROOT
ATOM      1  C   UNL     1       5.547   0.018   1.966  1.00  0.00     0.080 C 
ENDROOT
BRANCH   1   2
ATOM      2  C   UNL     1       4.652   1.165   1.649  1.00  0.00     0.130 C 
ATOM      3  C   UNL     1       4.948   2.101   0.532  1.00  0.00     0.087 C 
ATOM      4  O   UNL     1       3.642   1.371   2.303  1.00  0.00    -0.300 OA
ENDBRANCH   1   2
BRANCH   1   5
ATOM      5  C   UNL     1       6.962   0.275   1.485  1.00  0.00     0.043 C 
BRANCH   5   6
ATOM      6  C   UNL     1       7.367  -0.685   0.442  1.00  0.00    -0.044 A 
ATOM      7  C   UNL     1       7.258  -0.377  -0.919  1.00  0.00     0.008 A 
ATOM      8  C   UNL     1       7.868  -1.915   0.804  1.00  0.00     0.054 A 
ATOM      9  C   UNL     1       7.655  -1.317  -1.853  1.00  0.00     0.051 A 
ATOM     10  C   UNL     1       8.268  -2.861  -0.145  1.00  0.00     0.166 A 
ATOM     11  C   UNL     1       8.160  -2.559  -1.484  1.00  0.00     0.165 A 
ATOM     12  O   UNL     1       8.788  -4.133  -0.041  1.00  0.00    -0.454 OA
ATOM     13  O   UNL     1       8.623  -3.664  -2.182  1.00  0.00    -0.454 OA
ATOM     14  C   UNL     1       9.115  -4.649  -1.305  1.00  0.00     0.468 C 
ENDBRANCH   5   6
ENDBRANCH   1   5
TORSDOF 3
ENDMDL
MODEL 4
REMARK VINA RESULT:      -7.1      1.253      1.466
REMARK SMILES CC(=O)CCc1ccc2c(c1)OCO2
REMARK SMILES IDX 4 1 2 2 1 3 3 4 5 5 6 6 7 7 11 8 8 9 10 10 9 11 12 12 14 13
REMARK SMILES IDX 13 14
REMARK H PARENT
REMARK Flexibility Score: inf
ROOT
ATOM      1  C   UNL     1       6.377   1.191   0.932  1.00  0.00     0.080 C 
ENDROOT
BRANCH   1   2
ATOM      2  C   UNL     1       5.658   0.370   1.946  1.00  0.00     0.130 C 
ATOM      3  C   UNL     1       6.262  -0.858   2.527  1.00  0.00     0.087 C 
ATOM      4  O   UNL     1       4.543   0.685   2.330  1.00  0.00    -0.300 OA
ENDBRANCH   1   2
BRANCH   1   5
ATOM      5  C   UNL     1       5.864   0.913  -0.467  1.00  0.00     0.043 C 
BRANCH   5   6
ATOM      6  C   UNL     1       6.812   0.096  -1.244  1.00  0.00    -0.044 A 
ATOM      7  C   UNL     1       7.491   0.616  -2.352  1.00  0.00     0.008 A 
ATOM      8  C   UNL     1       7.046  -1.211  -0.880  1.00  0.00     0.054 A 
ATOM      9  C   UNL     1       8.370  -0.198  -3.043  1.00  0.00     0.051 A 
ATOM     10  C   UNL     1       7.936  -2.029  -1.582  1.00  0.00     0.166 A 
ATOM     11  C   UNL     1       8.603  -1.518  -2.673  1.00  0.00     0.165 A 
ATOM     12  O   UNL     1       8.333  -3.340  -1.421  1.00  0.00    -0.454 OA
ATOM     13  O   UNL     1       9.406  -2.536  -3.164  1.00  0.00    -0.454 OA
ATOM     14  C   UNL     1       9.334  -3.680  -2.347  1.00  0.00     0.468 C 
ENDBRANCH   5   6
ENDBRANCH   1   5
TORSDOF 3
ENDMDL
MODEL 5
REMARK VINA RESULT:      -7.1      1.966      2.533
REMARK SMILES CC(=O)CCc1ccc2c(c1)OCO2
REMARK SMILES IDX 4 1 2 2 1 3 3 4 5 5 6 6 7 7 11 8 8 9 10 10 9 11 12 12 14 13
REMARK SMILES IDX 13 14
REMARK H PARENT
REMARK Flexibility Score: inf
ROOT
ATOM      1  C   UNL     1       6.887   0.902   1.200  1.00  0.00     0.080 C 
ENDROOT
BRANCH   1   2
ATOM      2  C   UNL     1       5.426   1.158   1.343  1.00  0.00     0.130 C 
ATOM      3  C   UNL     1       4.719   2.144   0.484  1.00  0.00     0.087 C 
ATOM      4  O   UNL     1       4.764   0.562   2.177  1.00  0.00    -0.300 OA
ENDBRANCH   1   2
BRANCH   1   5
ATOM      5  C   UNL     1       7.335   1.060  -0.239  1.00  0.00     0.043 C 
BRANCH   5   6
ATOM      6  C   UNL     1       7.696  -0.234  -0.844  1.00  0.00    -0.044 A 
ATOM      7  C   UNL     1       7.806  -0.390  -2.231  1.00  0.00     0.008 A 
ATOM      8  C   UNL     1       7.937  -1.322  -0.035  1.00  0.00     0.054 A 
ATOM      9  C   UNL     1       8.149  -1.629  -2.741  1.00  0.00     0.051 A 
ATOM     10  C   UNL     1       8.284  -2.572  -0.557  1.00  0.00     0.166 A 
ATOM     11  C   UNL     1       8.391  -2.726  -1.921  1.00  0.00     0.165 A 
ATOM     12  O   UNL     1       8.568  -3.788   0.028  1.00  0.00    -0.454 OA
ATOM     13  O   UNL     1       8.743  -4.048  -2.148  1.00  0.00    -0.454 OA
ATOM     14  C   UNL     1       8.954  -4.733  -0.937  1.00  0.00     0.468 C 
ENDBRANCH   5   6
ENDBRANCH   1   5
TORSDOF 3
ENDMDL
