MODEL 1
REMARK VINA RESULT:      -7.6      0.000      0.000
REMARK SMILES CC(=O)CCc1ccc2c(c1)OCO2
REMARK SMILES IDX 4 1 2 2 1 3 3 4 5 5 6 6 7 7 11 8 8 9 10 10 9 11 12 12 14 13
REMARK SMILES IDX 13 14
REMARK H PARENT
REMARK Flexibility Score: inf
ROOT
ATOM      1  C   UNL     1       5.567   1.912   1.290  1.00  0.00     0.080 C 
ENDROOT
BRANCH   1   2
ATOM      2  C   UNL     1       5.116   0.696   2.023  1.00  0.00     0.130 C 
ATOM      3  C   UNL     1       6.005  -0.482   2.205  1.00  0.00     0.087 C 
ATOM      4  O   UNL     1       3.994   0.632   2.499  1.00  0.00    -0.300 OA
ENDBRANCH   1   2
BRANCH   1   5
ATOM      5  C   UNL     1       5.433   1.732  -0.209  1.00  0.00     0.043 C 
BRANCH   5   6
ATOM      6  C   UNL     1       6.593   1.026  -0.781  1.00  0.00    -0.044 A 
ATOM      7  C   UNL     1       7.903   1.463  -0.552  1.00  0.00     0.008 A 
ATOM      8  C   UNL     1       6.396  -0.092  -1.559  1.00  0.00     0.054 A 
ATOM      9  C   UNL     1       8.953   0.759  -1.114  1.00  0.00     0.051 A 
ATOM     10  C   UNL     1       7.460  -0.800  -2.124  1.00  0.00     0.166 A 
ATOM     11  C   UNL     1       8.749  -0.370  -1.900  1.00  0.00     0.165 A 
ATOM     12  O   UNL     1       7.524  -1.923  -2.922  1.00  0.00    -0.454 OA
ATOM     13  O   UNL     1       9.587  -1.248  -2.572  1.00  0.00    -0.454 OA
ATOM     14  C   UNL     1       8.857  -2.299  -3.158  1.00  0.00     0.468 C 
ENDBRANCH   5   6
ENDBRANCH   1   5
TORSDOF 3
ENDMDL
MODEL 2
REMARK VINA RESULT:      -7.4      1.934      2.427
REMARK SMILES CC(=O)CCc1ccc2c(c1)OCO2
REMARK SMILES IDX 4 1 2 2 1 3 3 4 5 5 6 6 7 7 11 8 8 9 10 10 9 11 12 12 14 13
REMARK SMILES IDX 13 14
REMARK H PARENT
REMARK Flexibility Score: inf
ROOT
ATOM      1  C   UNL     1       5.730   1.239  -0.322  1.00  0.00     0.080 C 
ENDROOT
BRANCH   1   2
ATOM      2  C   UNL     1       5.169   1.203   1.057  1.00  0.00     0.130 C 
ATOM      3  C   UNL     1       5.348   0.021   1.943  1.00  0.00     0.087 C 
ATOM      4  O   UNL     1       4.541   2.150   1.503  1.00  0.00    -0.300 OA
ENDBRANCH   1   2
BRANCH   1   5
ATOM      5  C   UNL     1       7.232   1.031  -0.311  1.00  0.00     0.043 C 
BRANCH   5   6
ATOM      6  C   UNL     1       7.608  -0.265  -0.903  1.00  0.00    -0.044 A 
ATOM      7  C   UNL     1       7.663  -0.450  -2.289  1.00  0.00     0.008 A 
ATOM      8  C   UNL     1       7.918  -1.326  -0.082  1.00  0.00     0.054 A 
ATOM      9  C   UNL     1       8.024  -1.689  -2.787  1.00  0.00     0.051 A 
ATOM     10  C   UNL     1       8.283  -2.576  -0.590  1.00  0.00     0.166 A 
ATOM     11  C   UNL     1       8.336  -2.759  -1.954  1.00  0.00     0.165 A 
ATOM     12  O   UNL     1       8.630  -3.769   0.008  1.00  0.00    -0.454 OA
ATOM     13  O   UNL     1       8.720  -4.074  -2.167  1.00  0.00    -0.454 OA
ATOM     14  C   UNL     1       9.004  -4.724  -0.952  1.00  0.00     0.468 C 
ENDBRANCH   5   6
ENDBRANCH   1   5
TORSDOF 3
ENDMDL
MODEL 3
REMARK VINA RESULT:      -7.2      2.040      2.619
REMARK SMILES CC(=O)CCc1ccc2c(c1)OCO2
REMARK SMILES IDX 4 1 2 2 1 3 3 4 5 5 6 6 7 7 11 8 8 9 10 10 9 11 12 12 14 13
REMARK SMILES IDX 13 14
REMARK H PARENT
REMARK Flexibility Score: inf
ROOT
ATOM      1  C   UNL     1       5.393  -0.081   2.012  1.00  0.00     0.080 C 
ENDROOT
BRANCH   1   2
ATOM      2  C   UNL     1       4.560   1.130   1.773  1.00  0.00     0.130 C 
ATOM      3  C   UNL     1       4.911   2.124   0.723  1.00  0.00     0.087 C 
ATOM      4  O   UNL     1       3.558   1.343   2.436  1.00  0.00    -0.300 OA
ENDBRANCH   1   2
BRANCH   1   5
ATOM      5  C   UNL     1       6.837   0.157   1.620  1.00  0.00     0.043 C 
BRANCH   5   6
ATOM      6  C   UNL     1       7.271  -0.756   0.548  1.00  0.00    -0.044 A 
ATOM      7  C   UNL     1       7.153  -0.409  -0.803  1.00  0.00     0.008 A 
ATOM      8  C   UNL     1       7.809  -1.981   0.872  1.00  0.00     0.054 A 
ATOM      9  C   UNL     1       7.577  -1.307  -1.765  1.00  0.00     0.051 A 
ATOM     10  C   UNL     1       8.237  -2.885  -0.105  1.00  0.00     0.166 A 
ATOM     11  C   UNL     1       8.120  -2.545  -1.435  1.00  0.00     0.165 A 
ATOM     12  O   UNL     1       8.796  -4.144  -0.041  1.00  0.00    -0.454 OA
ATOM     13  O   UNL     1       8.615  -3.613  -2.167  1.00  0.00    -0.454 OA
ATOM     14  C   UNL     1       9.138  -4.610  -1.321  1.00  0.00     0.468 C 
ENDBRANCH   5   6
ENDBRANCH   1   5
TORSDOF 3
ENDMDL
MODEL 4
REMARK VINA RESULT:      -7.1      1.248      1.455
REMARK SMILES CC(=O)CCc1ccc2c(c1)OCO2
REMARK SMILES IDX 4 1 2 2 1 3 3 4 5 5 6 6 7 7 11 8 8 9 10 10 9 11 12 12 14 13
REMARK SMILES IDX 13 14
REMARK H PARENT
REMARK Flexibility Score: inf
ROOT
ATOM      1  C   UNL     1       6.376   1.169   0.955  1.00  0.00     0.080 C 
ENDROOT
BRANCH   1   2
ATOM      2  C   UNL     1       5.637   0.355   1.961  1.00  0.00     0.130 C 
ATOM      3  C   UNL     1       6.226  -0.876   2.554  1.00  0.00     0.087 C 
ATOM      4  O   UNL     1       4.519   0.677   2.329  1.00  0.00    -0.300 OA
ENDBRANCH   1   2
BRANCH   1   5
ATOM      5  C   UNL     1       5.867   0.904  -0.448  1.00  0.00     0.043 C 
BRANCH   5   6
ATOM      6  C   UNL     1       6.812   0.086  -1.228  1.00  0.00    -0.044 A 
ATOM      7  C   UNL     1       7.484   0.603  -2.342  1.00  0.00     0.008 A 
ATOM      8  C   UNL     1       7.051  -1.219  -0.859  1.00  0.00     0.054 A 
ATOM      9  C   UNL     1       8.361  -0.212  -3.034  1.00  0.00     0.051 A 
ATOM     10  C   UNL     1       7.939  -2.038  -1.562  1.00  0.00     0.166 A 
ATOM     11  C   UNL     1       8.599  -1.531  -2.658  1.00  0.00     0.165 A 
ATOM     12  O   UNL     1       8.340  -3.347  -1.398  1.00  0.00    -0.454 OA
ATOM     13  O   UNL     1       9.401  -2.549  -3.150  1.00  0.00    -0.454 OA
ATOM     14  C   UNL     1       9.336  -3.689  -2.327  1.00  0.00     0.468 C 
ENDBRANCH   5   6
ENDBRANCH   1   5
TORSDOF 3
ENDMDL
MODEL 5
REMARK VINA RESULT:      -6.8      1.182      5.174
REMARK SMILES CC(=O)CCc1ccc2c(c1)OCO2
REMARK SMILES IDX 4 1 2 2 1 3 3 4 5 5 6 6 7 7 11 8 8 9 10 10 9 11 12 12 14 13
REMARK SMILES IDX 13 14
REMARK H PARENT
REMARK Flexibility Score: inf
ROOT
ATOM      1  C   UNL     1       8.341   0.244  -2.584  1.00  0.00     0.080 C 
ENDROOT
BRANCH   1   2
ATOM      2  C   UNL     1       8.011  -1.203  -2.705  1.00  0.00     0.130 C 
ATOM      3  C   UNL     1       9.055  -2.219  -3.011  1.00  0.00     0.087 C 
ATOM      4  O   UNL     1       6.867  -1.600  -2.557  1.00  0.00    -0.300 OA
ENDBRANCH   1   2
BRANCH   1   5
ATOM      5  C   UNL     1       8.853   0.578  -1.197  1.00  0.00     0.043 C 
BRANCH   5   6
ATOM      6  C   UNL     1       7.798   0.441  -0.177  1.00  0.00    -0.044 A 
ATOM      7  C   UNL     1       7.878  -0.522   0.835  1.00  0.00     0.008 A 
ATOM      8  C   UNL     1       6.705   1.277  -0.210  1.00  0.00     0.054 A 
ATOM      9  C   UNL     1       6.858  -0.604   1.765  1.00  0.00     0.051 A 
ATOM     10  C   UNL     1       5.677   1.191   0.734  1.00  0.00     0.166 A 
ATOM     11  C   UNL     1       5.754   0.242   1.729  1.00  0.00     0.165 A 
ATOM     12  O   UNL     1       4.505   1.894   0.913  1.00  0.00    -0.454 OA
ATOM     13  O   UNL     1       4.616   0.385   2.507  1.00  0.00    -0.454 OA
ATOM     14  C   UNL     1       3.841   1.480   2.079  1.00  0.00     0.468 C 
ENDBRANCH   5   6
ENDBRANCH   1   5
TORSDOF 3
ENDMDL
