@<TRIPOS>MOLECULE
/home/cewinharhar/GITHUB/reincatalyze/data/processed/docking_pred/2023-May-30-2130_sub9_nm5_bs15_s42_ex16_mel10_mts10000_k50_ec05_g099_lra3e-4_lrc3e-3/c054a7f490e8e5c171bc57af56a9ae5cb4d717f8_ligand_9.pdbqt
 14 15 0 0 0
SMALL
GASTEIGER

@<TRIPOS>ATOM
      1  C          5.4460   -0.0270    2.0210 C.3     1  UNL1        0.0800
      2  C          4.5730    1.1530    1.7660 C.2     1  UNL1        0.1300
      3  C          4.8880    2.1420    0.7010 C.3     1  UNL1        0.0870
      4  O          3.5660    1.3420    2.4300 O.2     1  UNL1       -0.3000
      5  C          6.8710    0.2370    1.5740 C.3     1  UNL1        0.0430
      6  C          7.2940   -0.7000    0.5170 C.2     1  UNL1       -0.0440
      7  C          7.1710   -0.3780   -0.8390 C.2     1  UNL1        0.0080
      8  C          7.8260   -1.9210    0.8620 C.2     1  UNL1        0.0540
      9  C          7.5860   -1.2960   -1.7870 C.2     1  UNL1        0.0510
     10  C          8.2440   -2.8460   -0.1000 C.2     1  UNL1        0.1660
     11  C          8.1230   -2.5310   -1.4350 C.2     1  UNL1        0.1650
     12  O          8.7950   -4.1070   -0.0140 O.2     1  UNL1       -0.4540
     13  O          8.6080   -3.6150   -2.1490 O.2     1  UNL1       -0.4540
     14  C          9.1290   -4.5990   -1.2870 C.3     1  UNL1        0.4680
@<TRIPOS>BOND
     1    13    11    1
     2    13    14    1
     3     9    11    2
     4     9     7    1
     5    11    10    1
     6    14    12    1
     7     7     6    2
     8    10    12    1
     9    10     8    2
    10     6     8    1
    11     6     5    1
    12     3     2    1
    13     5     1    1
    14     2     1    1
    15     2     4    2
