@<TRIPOS>MOLECULE
/home/cewinharhar/GITHUB/reincatalyze/data/processed/docking_pred/2023-May-30-2130_sub9_nm5_bs15_s42_ex16_mel10_mts10000_k50_ec05_g099_lra3e-4_lrc3e-3/c054a7f490e8e5c171bc57af56a9ae5cb4d717f8_ligand_9.pdbqt
 14 15 0 0 0
SMALL
GASTEIGER

@<TRIPOS>ATOM
      1  C          8.3330    0.1920   -2.6750 C.3     1  UNL1        0.0800
      2  C          8.0560   -1.2690   -2.7630 C.2     1  UNL1        0.1300
      3  C          9.1380   -2.2540   -3.0320 C.3     1  UNL1        0.0870
      4  O          6.9250   -1.7020   -2.6170 O.2     1  UNL1       -0.3000
      5  C          8.8600    0.5710   -1.3050 C.3     1  UNL1        0.0430
      6  C          7.8270    0.4270   -0.2640 C.2     1  UNL1       -0.0440
      7  C          7.9350   -0.5360    0.7470 C.2     1  UNL1        0.0080
      8  C          6.7280    1.2550   -0.2740 C.2     1  UNL1        0.0540
      9  C          6.9350   -0.6240    1.6980 C.2     1  UNL1        0.0510
     10  C          5.7200    1.1620    0.6910 C.2     1  UNL1        0.1660
     11  C          5.8250    0.2140    1.6850 C.2     1  UNL1        0.1650
     12  O          4.5470    1.8570    0.8940 O.2     1  UNL1       -0.4540
     13  O          4.7020    0.3500    2.4870 O.2     1  UNL1       -0.4540
     14  C          3.9110    1.4390    2.0740 C.3     1  UNL1        0.4680
@<TRIPOS>BOND
     1     3     2    1
     2     2     1    1
     3     2     4    2
     4     1     5    1
     5     5     6    1
     6     8     6    2
     7     8    10    1
     8     6     7    1
     9    10    12    1
    10    10    11    2
    11     7     9    2
    12    12    14    1
    13    11     9    1
    14    11    13    1
    15    14    13    1
