MODEL 1
REMARK VINA RESULT:      -7.6      0.000      0.000
REMARK SMILES CC(=O)CCc1ccc2c(c1)OCO2
REMARK SMILES IDX 4 1 2 2 1 3 3 4 5 5 6 6 7 7 11 8 8 9 10 10 9 11 12 12 14 13
REMARK SMILES IDX 13 14
REMARK H PARENT
REMARK Flexibility Score: inf
ROOT
ATOM      1  C   UNL     1       5.541   1.914   1.268  1.00  0.00     0.080 C 
ENDROOT
BRANCH   1   2
ATOM      2  C   UNL     1       5.086   0.705   2.010  1.00  0.00     0.130 C 
ATOM      3  C   UNL     1       5.963  -0.484   2.179  1.00  0.00     0.087 C 
ATOM      4  O   UNL     1       3.970   0.655   2.502  1.00  0.00    -0.300 OA
ENDBRANCH   1   2
BRANCH   1   5
ATOM      5  C   UNL     1       5.409   1.722  -0.230  1.00  0.00     0.043 C 
BRANCH   5   6
ATOM      6  C   UNL     1       6.576   1.023  -0.797  1.00  0.00    -0.044 A 
ATOM      7  C   UNL     1       7.882   1.471  -0.566  1.00  0.00     0.008 A 
ATOM      8  C   UNL     1       6.390  -0.100  -1.570  1.00  0.00     0.054 A 
ATOM      9  C   UNL     1       8.939   0.773  -1.123  1.00  0.00     0.051 A 
ATOM     10  C   UNL     1       7.461  -0.802  -2.130  1.00  0.00     0.166 A 
ATOM     11  C   UNL     1       8.746  -0.361  -1.905  1.00  0.00     0.165 A 
ATOM     12  O   UNL     1       7.536  -1.927  -2.923  1.00  0.00    -0.454 OA
ATOM     13  O   UNL     1       9.592  -1.235  -2.570  1.00  0.00    -0.454 OA
ATOM     14  C   UNL     1       8.872  -2.294  -3.154  1.00  0.00     0.468 C 
ENDBRANCH   5   6
ENDBRANCH   1   5
TORSDOF 3
ENDMDL
MODEL 2
REMARK VINA RESULT:      -7.3      1.895      2.393
REMARK SMILES CC(=O)CCc1ccc2c(c1)OCO2
REMARK SMILES IDX 4 1 2 2 1 3 3 4 5 5 6 6 7 7 11 8 8 9 10 10 9 11 12 12 14 13
REMARK SMILES IDX 13 14
REMARK H PARENT
REMARK Flexibility Score: inf
ROOT
ATOM      1  C   UNL     1       5.815   1.413  -0.361  1.00  0.00     0.080 C 
ENDROOT
BRANCH   1   2
ATOM      2  C   UNL     1       5.141   1.357   0.966  1.00  0.00     0.130 C 
ATOM      3  C   UNL     1       5.509   0.341   1.987  1.00  0.00     0.087 C 
ATOM      4  O   UNL     1       4.259   2.150   1.254  1.00  0.00    -0.300 OA
ENDBRANCH   1   2
BRANCH   1   5
ATOM      5  C   UNL     1       7.293   1.101  -0.241  1.00  0.00     0.043 C 
BRANCH   5   6
ATOM      6  C   UNL     1       7.632  -0.189  -0.868  1.00  0.00    -0.044 A 
ATOM      7  C   UNL     1       7.635  -0.350  -2.258  1.00  0.00     0.008 A 
ATOM      8  C   UNL     1       7.958  -1.268  -0.077  1.00  0.00     0.054 A 
ATOM      9  C   UNL     1       7.963  -1.584  -2.790  1.00  0.00     0.051 A 
ATOM     10  C   UNL     1       8.289  -2.513  -0.619  1.00  0.00     0.166 A 
ATOM     11  C   UNL     1       8.291  -2.672  -1.987  1.00  0.00     0.165 A 
ATOM     12  O   UNL     1       8.642  -3.720  -0.055  1.00  0.00    -0.454 OA
ATOM     13  O   UNL     1       8.650  -3.988  -2.237  1.00  0.00    -0.454 OA
ATOM     14  C   UNL     1       8.970  -4.662  -1.043  1.00  0.00     0.468 C 
ENDBRANCH   5   6
ENDBRANCH   1   5
TORSDOF 3
ENDMDL
MODEL 3
REMARK VINA RESULT:      -7.2      2.042      2.606
REMARK SMILES CC(=O)CCc1ccc2c(c1)OCO2
REMARK SMILES IDX 4 1 2 2 1 3 3 4 5 5 6 6 7 7 11 8 8 9 10 10 9 11 12 12 14 13
REMARK SMILES IDX 13 14
REMARK H PARENT
REMARK Flexibility Score: inf
ROOT
ATOM      1  C   UNL     1       5.446  -0.027   2.021  1.00  0.00     0.080 C 
ENDROOT
BRANCH   1   2
ATOM      2  C   UNL     1       4.573   1.153   1.766  1.00  0.00     0.130 C 
ATOM      3  C   UNL     1       4.888   2.142   0.701  1.00  0.00     0.087 C 
ATOM      4  O   UNL     1       3.566   1.342   2.430  1.00  0.00    -0.300 OA
ENDBRANCH   1   2
BRANCH   1   5
ATOM      5  C   UNL     1       6.871   0.237   1.574  1.00  0.00     0.043 C 
BRANCH   5   6
ATOM      6  C   UNL     1       7.294  -0.700   0.517  1.00  0.00    -0.044 A 
ATOM      7  C   UNL     1       7.171  -0.378  -0.839  1.00  0.00     0.008 A 
ATOM      8  C   UNL     1       7.826  -1.921   0.862  1.00  0.00     0.054 A 
ATOM      9  C   UNL     1       7.586  -1.296  -1.787  1.00  0.00     0.051 A 
ATOM     10  C   UNL     1       8.244  -2.846  -0.100  1.00  0.00     0.166 A 
ATOM     11  C   UNL     1       8.123  -2.531  -1.435  1.00  0.00     0.165 A 
ATOM     12  O   UNL     1       8.795  -4.107  -0.014  1.00  0.00    -0.454 OA
ATOM     13  O   UNL     1       8.608  -3.615  -2.149  1.00  0.00    -0.454 OA
ATOM     14  C   UNL     1       9.129  -4.599  -1.287  1.00  0.00     0.468 C 
ENDBRANCH   5   6
ENDBRANCH   1   5
TORSDOF 3
ENDMDL
MODEL 4
REMARK VINA RESULT:      -7.0      1.245      1.442
REMARK SMILES CC(=O)CCc1ccc2c(c1)OCO2
REMARK SMILES IDX 4 1 2 2 1 3 3 4 5 5 6 6 7 7 11 8 8 9 10 10 9 11 12 12 14 13
REMARK SMILES IDX 13 14
REMARK H PARENT
REMARK Flexibility Score: inf
ROOT
ATOM      1  C   UNL     1       6.317   1.226   0.887  1.00  0.00     0.080 C 
ENDROOT
BRANCH   1   2
ATOM      2  C   UNL     1       5.640   0.384   1.912  1.00  0.00     0.130 C 
ATOM      3  C   UNL     1       6.281  -0.840   2.463  1.00  0.00     0.087 C 
ATOM      4  O   UNL     1       4.532   0.676   2.331  1.00  0.00    -0.300 OA
ENDBRANCH   1   2
BRANCH   1   5
ATOM      5  C   UNL     1       5.813   0.909  -0.507  1.00  0.00     0.043 C 
BRANCH   5   6
ATOM      6  C   UNL     1       6.779   0.093  -1.265  1.00  0.00    -0.044 A 
ATOM      7  C   UNL     1       7.477   0.614  -2.360  1.00  0.00     0.008 A 
ATOM      8  C   UNL     1       7.009  -1.212  -0.894  1.00  0.00     0.054 A 
ATOM      9  C   UNL     1       8.372  -0.198  -3.033  1.00  0.00     0.051 A 
ATOM     10  C   UNL     1       7.916  -2.028  -1.577  1.00  0.00     0.166 A 
ATOM     11  C   UNL     1       8.602  -1.517  -2.655  1.00  0.00     0.165 A 
ATOM     12  O   UNL     1       8.314  -3.337  -1.406  1.00  0.00    -0.454 OA
ATOM     13  O   UNL     1       9.417  -2.533  -3.130  1.00  0.00    -0.454 OA
ATOM     14  C   UNL     1       9.333  -3.676  -2.312  1.00  0.00     0.468 C 
ENDBRANCH   5   6
ENDBRANCH   1   5
TORSDOF 3
ENDMDL
MODEL 5
REMARK VINA RESULT:      -6.7      1.189      5.175
REMARK SMILES CC(=O)CCc1ccc2c(c1)OCO2
REMARK SMILES IDX 4 1 2 2 1 3 3 4 5 5 6 6 7 7 11 8 8 9 10 10 9 11 12 12 14 13
REMARK SMILES IDX 13 14
REMARK H PARENT
REMARK Flexibility Score: inf
ROOT
ATOM      1  C   UNL     1       8.333   0.192  -2.675  1.00  0.00     0.080 C 
ENDROOT
BRANCH   1   2
ATOM      2  C   UNL     1       8.056  -1.269  -2.763  1.00  0.00     0.130 C 
ATOM      3  C   UNL     1       9.138  -2.254  -3.032  1.00  0.00     0.087 C 
ATOM      4  O   UNL     1       6.925  -1.702  -2.617  1.00  0.00    -0.300 OA
ENDBRANCH   1   2
BRANCH   1   5
ATOM      5  C   UNL     1       8.860   0.571  -1.305  1.00  0.00     0.043 C 
BRANCH   5   6
ATOM      6  C   UNL     1       7.827   0.427  -0.264  1.00  0.00    -0.044 A 
ATOM      7  C   UNL     1       7.935  -0.536   0.747  1.00  0.00     0.008 A 
ATOM      8  C   UNL     1       6.728   1.255  -0.274  1.00  0.00     0.054 A 
ATOM      9  C   UNL     1       6.935  -0.624   1.698  1.00  0.00     0.051 A 
ATOM     10  C   UNL     1       5.720   1.162   0.691  1.00  0.00     0.166 A 
ATOM     11  C   UNL     1       5.825   0.214   1.685  1.00  0.00     0.165 A 
ATOM     12  O   UNL     1       4.547   1.857   0.894  1.00  0.00    -0.454 OA
ATOM     13  O   UNL     1       4.702   0.350   2.487  1.00  0.00    -0.454 OA
ATOM     14  C   UNL     1       3.911   1.439   2.074  1.00  0.00     0.468 C 
ENDBRANCH   5   6
ENDBRANCH   1   5
TORSDOF 3
ENDMDL
