@<TRIPOS>MOLECULE
/home/cewinharhar/GITHUB/reincatalyze/data/processed/docking_pred/2023-May-30-2130_sub9_nm5_bs15_s42_ex16_mel10_mts10000_k50_ec05_g099_lra3e-4_lrc3e-3/c054a7f490e8e5c171bc57af56a9ae5cb4d717f8_ligand_9.pdbqt
 14 15 0 0 0
SMALL
GASTEIGER

@<TRIPOS>ATOM
      1  C          6.3170    1.2260    0.8870 C.3     1  UNL1        0.0800
      2  C          5.6400    0.3840    1.9120 C.2     1  UNL1        0.1300
      3  C          6.2810   -0.8400    2.4630 C.3     1  UNL1        0.0870
      4  O          4.5320    0.6760    2.3310 O.2     1  UNL1       -0.3000
      5  C          5.8130    0.9090   -0.5070 C.3     1  UNL1        0.0430
      6  C          6.7790    0.0930   -1.2650 C.2     1  UNL1       -0.0440
      7  C          7.4770    0.6140   -2.3600 C.2     1  UNL1        0.0080
      8  C          7.0090   -1.2120   -0.8940 C.2     1  UNL1        0.0540
      9  C          8.3720   -0.1980   -3.0330 C.2     1  UNL1        0.0510
     10  C          7.9160   -2.0280   -1.5770 C.2     1  UNL1        0.1660
     11  C          8.6020   -1.5170   -2.6550 C.2     1  UNL1        0.1650
     12  O          8.3140   -3.3370   -1.4060 O.2     1  UNL1       -0.4540
     13  O          9.4170   -2.5330   -3.1300 O.2     1  UNL1       -0.4540
     14  C          9.3330   -3.6760   -2.3120 C.3     1  UNL1        0.4680
@<TRIPOS>BOND
     1    13    11    1
     2    13    14    1
     3     9    11    2
     4     9     7    1
     5    11    10    1
     6     7     6    2
     7    14    12    1
     8    10    12    1
     9    10     8    2
    10     6     8    1
    11     6     5    1
    12     5     1    1
    13     1     2    1
    14     2     4    2
    15     2     3    1
