@<TRIPOS>MOLECULE
/home/cewinharhar/GITHUB/reincatalyze/data/processed/docking_pred/2023-May-30-2130_sub9_nm5_bs15_s42_ex16_mel10_mts10000_k50_ec05_g099_lra3e-4_lrc3e-3/c1e407d4abf657a23e7fbbacfb8eba162f3b2d32_ligand_9.pdbqt
 14 15 0 0 0
SMALL
GASTEIGER

@<TRIPOS>ATOM
      1  C          5.8770    1.3480   -0.2970 C.3     1  UNL1        0.0800
      2  C          5.2680    1.1620    1.0490 C.2     1  UNL1        0.1300
      3  C          5.6080   -0.0050    1.9060 C.3     1  UNL1        0.0870
      4  O          4.4650    1.9690    1.4900 O.2     1  UNL1       -0.3000
      5  C          7.3910    1.3060   -0.2270 C.3     1  UNL1        0.0430
      6  C          7.9450    0.1940   -1.0200 C.2     1  UNL1       -0.0440
      7  C          7.3340   -0.2370   -2.2030 C.2     1  UNL1        0.0080
      8  C          9.0910   -0.4400   -0.5980 C.2     1  UNL1        0.0540
      9  C          7.9000   -1.2850   -2.9060 C.2     1  UNL1        0.0510
     10  C          9.6590   -1.4990   -1.3130 C.2     1  UNL1        0.1660
     11  C          9.0580   -1.9250   -2.4760 C.2     1  UNL1        0.1650
     12  O         10.7750   -2.2810   -1.1050 O.2     1  UNL1       -0.4540
     13  O          9.8260   -2.9710   -2.9640 O.2     1  UNL1       -0.4540
     14  C         10.9740   -3.1700   -2.1740 C.3     1  UNL1        0.4680
@<TRIPOS>BOND
     1    13    11    1
     2    13    14    1
     3     9    11    2
     4     9     7    1
     5    11    10    1
     6     7     6    2
     7    14    12    1
     8    10    12    1
     9    10     8    2
    10     6     8    1
    11     6     5    1
    12     1     5    1
    13     1     2    1
    14     2     4    2
    15     2     3    1
