@<TRIPOS>MOLECULE
/home/cewinharhar/GITHUB/reincatalyze/data/processed/docking_pred/2023-May-30-2130_sub9_nm5_bs15_s42_ex16_mel10_mts10000_k50_ec05_g099_lra3e-4_lrc3e-3/c1e407d4abf657a23e7fbbacfb8eba162f3b2d32_ligand_9.pdbqt
 14 15 0 0 0
SMALL
GASTEIGER

@<TRIPOS>ATOM
      1  C          5.8360    1.6240    0.8760 C.3     1  UNL1        0.0800
      2  C          5.3720    0.6130    1.8670 C.2     1  UNL1        0.1300
      3  C          6.2070   -0.5630    2.2310 C.3     1  UNL1        0.0870
      4  O          4.2850    0.7220    2.4120 O.2     1  UNL1       -0.3000
      5  C          5.7530    1.0870   -0.5390 C.3     1  UNL1        0.0430
      6  C          7.0050    0.4260   -0.9470 C.2     1  UNL1       -0.0440
      7  C          8.2520    1.0260   -0.7400 C.2     1  UNL1        0.0080
      8  C          6.9590   -0.8130   -1.5450 C.2     1  UNL1        0.0540
      9  C          9.3940    0.3580   -1.1430 C.2     1  UNL1        0.0510
     10  C          8.1160   -1.4850   -1.9500 C.2     1  UNL1        0.1660
     11  C          9.3440   -0.8940   -1.7470 C.2     1  UNL1        0.1650
     12  O          8.3310   -2.7040   -2.5560 O.2     1  UNL1       -0.4540
     13  O         10.2970   -1.7730   -2.2380 O.2     1  UNL1       -0.4540
     14  C          9.7050   -2.9720   -2.6780 C.3     1  UNL1        0.4680
@<TRIPOS>BOND
     1    14    12    1
     2    14    13    1
     3    12    10    1
     4    13    11    1
     5    10    11    2
     6    10     8    1
     7    11     9    1
     8     8     6    2
     9     9     7    2
    10     6     7    1
    11     6     5    1
    12     5     1    1
    13     1     2    1
    14     2     3    1
    15     2     4    2
