@<TRIPOS>MOLECULE
/home/cewinharhar/GITHUB/reincatalyze/data/processed/docking_pred/2023-May-30-2130_sub9_nm5_bs15_s42_ex16_mel10_mts10000_k50_ec05_g099_lra3e-4_lrc3e-3/c1e407d4abf657a23e7fbbacfb8eba162f3b2d32_ligand_9.pdbqt
 14 15 0 0 0
SMALL
GASTEIGER

@<TRIPOS>ATOM
      1  C          6.1120   -0.4080    1.7810 C.3     1  UNL1        0.0800
      2  C          5.1070    0.6890    1.7250 C.2     1  UNL1        0.1300
      3  C          5.1610    1.7450    0.6790 C.3     1  UNL1        0.0870
      4  O          4.2040    0.7540    2.5430 O.2     1  UNL1       -0.3000
      5  C          6.4240   -0.9400    0.3960 C.3     1  UNL1        0.0430
      6  C          7.8550   -0.8090    0.0690 C.2     1  UNL1       -0.0440
      7  C          8.3400    0.2710   -0.6780 C.2     1  UNL1        0.0080
      8  C          8.7450   -1.7640    0.5050 C.2     1  UNL1        0.0540
      9  C          9.6930    0.3420   -0.9530 C.2     1  UNL1        0.0510
     10  C         10.1120   -1.6870    0.2250 C.2     1  UNL1        0.1660
     11  C         10.5900   -0.6250   -0.5110 C.2     1  UNL1        0.1650
     12  O         11.1830   -2.4960    0.5400 O.2     1  UNL1       -0.4540
     13  O         11.9590   -0.8060   -0.6330 O.2     1  UNL1       -0.4540
     14  C         12.3900   -1.9310    0.0950 C.3     1  UNL1        0.4680
@<TRIPOS>BOND
     1     9     7    1
     2     9    11    2
     3     7     6    2
     4    13    11    1
     5    13    14    1
     6    11    10    1
     7     6     5    1
     8     6     8    1
     9    14    12    1
    10    10     8    2
    11    10    12    1
    12     5     1    1
    13     3     2    1
    14     2     1    1
    15     2     4    2
