@<TRIPOS>MOLECULE
/home/cewinharhar/GITHUB/reincatalyze/data/processed/docking_pred/2023-May-30-2130_sub9_nm5_bs15_s42_ex16_mel10_mts10000_k50_ec05_g099_lra3e-4_lrc3e-3/c1e407d4abf657a23e7fbbacfb8eba162f3b2d32_ligand_9.pdbqt
 14 15 0 0 0
SMALL
GASTEIGER

@<TRIPOS>ATOM
      1  C          6.8330    0.3550    0.9920 C.3     1  UNL1        0.0800
      2  C          5.5250    0.9860    1.3250 C.2     1  UNL1        0.1300
      3  C          4.9610    2.0920    0.5060 C.3     1  UNL1        0.0870
      4  O          4.8750    0.6110    2.2870 O.2     1  UNL1       -0.3000
      5  C          7.4220    0.9450   -0.2740 C.3     1  UNL1        0.0430
      6  C          8.0840   -0.0820   -1.0980 C.2     1  UNL1       -0.0440
      7  C          7.6850   -0.3330   -2.4160 C.2     1  UNL1        0.0080
      8  C          9.1230   -0.8150   -0.5700 C.2     1  UNL1        0.0540
      9  C          8.3450   -1.3090   -3.1420 C.2     1  UNL1        0.0510
     10  C          9.7860   -1.7990   -1.3090 C.2     1  UNL1        0.1660
     11  C          9.3940   -2.0490   -2.6050 C.2     1  UNL1        0.1650
     12  O         10.8300   -2.6510   -1.0140 O.2     1  UNL1       -0.4540
     13  O         10.2140   -3.0580   -3.0850 O.2     1  UNL1       -0.4540
     14  C         11.1970   -3.4060   -2.1400 C.3     1  UNL1        0.4680
@<TRIPOS>BOND
     1     9    11    2
     2     9     7    1
     3    13    11    1
     4    13    14    1
     5    11    10    1
     6     7     6    2
     7    14    12    1
     8    10    12    1
     9    10     8    2
    10     6     8    1
    11     6     5    1
    12     5     1    1
    13     3     2    1
    14     1     2    1
    15     2     4    2
