@<TRIPOS>MOLECULE
/home/cewinharhar/GITHUB/reincatalyze/data/processed/docking_pred/2023-May-30-2130_sub9_nm5_bs15_s42_ex16_mel10_mts10000_k50_ec05_g099_lra3e-4_lrc3e-3/c1e407d4abf657a23e7fbbacfb8eba162f3b2d32_ligand_9.pdbqt
 14 15 0 0 0
SMALL
GASTEIGER

@<TRIPOS>ATOM
      1  C          6.6100    0.1350    1.8070 C.3     1  UNL1        0.0800
      2  C          5.3240    0.8690    1.6460 C.2     1  UNL1        0.1300
      3  C          5.1160    1.8470    0.5450 C.3     1  UNL1        0.0870
      4  O          4.3980    0.6870    2.4190 O.2     1  UNL1       -0.3000
      5  C          6.4720   -1.3150    1.3870 C.3     1  UNL1        0.0430
      6  C          7.2310   -1.6020    0.1570 C.2     1  UNL1       -0.0440
      7  C          6.8550   -1.0630   -1.0790 C.2     1  UNL1        0.0080
      8  C          8.3390   -2.4170    0.2130 C.2     1  UNL1        0.0540
      9  C          7.6060   -1.3670   -2.2000 C.2     1  UNL1        0.0510
     10  C          9.0950   -2.7200   -0.9230 C.2     1  UNL1        0.1660
     11  C          8.7250   -2.1910   -2.1400 C.2     1  UNL1        0.1650
     12  O         10.2200   -3.4920   -1.1250 O.2     1  UNL1       -0.4540
     13  O          9.6410   -2.6530   -3.0730 O.2     1  UNL1       -0.4540
     14  C         10.6570   -3.4080   -2.4570 C.3     1  UNL1        0.4680
@<TRIPOS>BOND
     1    13    14    1
     2    13    11    1
     3    14    12    1
     4     9    11    2
     5     9     7    1
     6    11    10    1
     7    12    10    1
     8     7     6    2
     9    10     8    2
    10     6     8    1
    11     6     5    1
    12     3     2    1
    13     5     1    1
    14     2     1    1
    15     2     4    2
