MODEL 1
REMARK VINA RESULT:      -8.3      0.000      0.000
REMARK SMILES CC(=O)CCc1ccc2c(c1)OCO2
REMARK SMILES IDX 4 1 2 2 1 3 3 4 5 5 6 6 7 7 11 8 8 9 10 10 9 11 12 12 14 13
REMARK SMILES IDX 13 14
REMARK H PARENT
REMARK Flexibility Score: inf
ROOT
ATOM      1  C   UNL     1       5.836   1.624   0.876  1.00  0.00     0.080 C 
ENDROOT
BRANCH   1   2
ATOM      2  C   UNL     1       5.372   0.613   1.867  1.00  0.00     0.130 C 
ATOM      3  C   UNL     1       6.207  -0.563   2.231  1.00  0.00     0.087 C 
ATOM      4  O   UNL     1       4.285   0.722   2.412  1.00  0.00    -0.300 OA
ENDBRANCH   1   2
BRANCH   1   5
ATOM      5  C   UNL     1       5.753   1.087  -0.539  1.00  0.00     0.043 C 
BRANCH   5   6
ATOM      6  C   UNL     1       7.005   0.426  -0.947  1.00  0.00    -0.044 A 
ATOM      7  C   UNL     1       8.252   1.026  -0.740  1.00  0.00     0.008 A 
ATOM      8  C   UNL     1       6.959  -0.813  -1.545  1.00  0.00     0.054 A 
ATOM      9  C   UNL     1       9.394   0.358  -1.143  1.00  0.00     0.051 A 
ATOM     10  C   UNL     1       8.116  -1.485  -1.950  1.00  0.00     0.166 A 
ATOM     11  C   UNL     1       9.344  -0.894  -1.747  1.00  0.00     0.165 A 
ATOM     12  O   UNL     1       8.331  -2.704  -2.556  1.00  0.00    -0.454 OA
ATOM     13  O   UNL     1      10.297  -1.773  -2.238  1.00  0.00    -0.454 OA
ATOM     14  C   UNL     1       9.705  -2.972  -2.678  1.00  0.00     0.468 C 
ENDBRANCH   5   6
ENDBRANCH   1   5
TORSDOF 3
ENDMDL
MODEL 2
REMARK VINA RESULT:      -7.8      1.080      1.781
REMARK SMILES CC(=O)CCc1ccc2c(c1)OCO2
REMARK SMILES IDX 4 1 2 2 1 3 3 4 5 5 6 6 7 7 11 8 8 9 10 10 9 11 12 12 14 13
REMARK SMILES IDX 13 14
REMARK H PARENT
REMARK Flexibility Score: inf
ROOT
ATOM      1  C   UNL     1       5.877   1.348  -0.297  1.00  0.00     0.080 C 
ENDROOT
BRANCH   1   2
ATOM      2  C   UNL     1       5.268   1.162   1.049  1.00  0.00     0.130 C 
ATOM      3  C   UNL     1       5.608  -0.005   1.906  1.00  0.00     0.087 C 
ATOM      4  O   UNL     1       4.465   1.969   1.490  1.00  0.00    -0.300 OA
ENDBRANCH   1   2
BRANCH   1   5
ATOM      5  C   UNL     1       7.391   1.306  -0.227  1.00  0.00     0.043 C 
BRANCH   5   6
ATOM      6  C   UNL     1       7.945   0.194  -1.020  1.00  0.00    -0.044 A 
ATOM      7  C   UNL     1       7.334  -0.237  -2.203  1.00  0.00     0.008 A 
ATOM      8  C   UNL     1       9.091  -0.440  -0.598  1.00  0.00     0.054 A 
ATOM      9  C   UNL     1       7.900  -1.285  -2.906  1.00  0.00     0.051 A 
ATOM     10  C   UNL     1       9.659  -1.499  -1.313  1.00  0.00     0.166 A 
ATOM     11  C   UNL     1       9.058  -1.925  -2.476  1.00  0.00     0.165 A 
ATOM     12  O   UNL     1      10.775  -2.281  -1.105  1.00  0.00    -0.454 OA
ATOM     13  O   UNL     1       9.826  -2.971  -2.964  1.00  0.00    -0.454 OA
ATOM     14  C   UNL     1      10.974  -3.170  -2.174  1.00  0.00     0.468 C 
ENDBRANCH   5   6
ENDBRANCH   1   5
TORSDOF 3
ENDMDL
MODEL 3
REMARK VINA RESULT:      -7.6      1.257      2.016
REMARK SMILES CC(=O)CCc1ccc2c(c1)OCO2
REMARK SMILES IDX 4 1 2 2 1 3 3 4 5 5 6 6 7 7 11 8 8 9 10 10 9 11 12 12 14 13
REMARK SMILES IDX 13 14
REMARK H PARENT
REMARK Flexibility Score: inf
ROOT
ATOM      1  C   UNL     1       6.833   0.355   0.992  1.00  0.00     0.080 C 
ENDROOT
BRANCH   1   2
ATOM      2  C   UNL     1       5.525   0.986   1.325  1.00  0.00     0.130 C 
ATOM      3  C   UNL     1       4.961   2.092   0.506  1.00  0.00     0.087 C 
ATOM      4  O   UNL     1       4.875   0.611   2.287  1.00  0.00    -0.300 OA
ENDBRANCH   1   2
BRANCH   1   5
ATOM      5  C   UNL     1       7.422   0.945  -0.274  1.00  0.00     0.043 C 
BRANCH   5   6
ATOM      6  C   UNL     1       8.084  -0.082  -1.098  1.00  0.00    -0.044 A 
ATOM      7  C   UNL     1       7.685  -0.333  -2.416  1.00  0.00     0.008 A 
ATOM      8  C   UNL     1       9.123  -0.815  -0.570  1.00  0.00     0.054 A 
ATOM      9  C   UNL     1       8.345  -1.309  -3.142  1.00  0.00     0.051 A 
ATOM     10  C   UNL     1       9.786  -1.799  -1.309  1.00  0.00     0.166 A 
ATOM     11  C   UNL     1       9.394  -2.049  -2.605  1.00  0.00     0.165 A 
ATOM     12  O   UNL     1      10.830  -2.651  -1.014  1.00  0.00    -0.454 OA
ATOM     13  O   UNL     1      10.214  -3.058  -3.085  1.00  0.00    -0.454 OA
ATOM     14  C   UNL     1      11.197  -3.406  -2.140  1.00  0.00     0.468 C 
ENDBRANCH   5   6
ENDBRANCH   1   5
TORSDOF 3
ENDMDL
MODEL 4
REMARK VINA RESULT:      -7.5      1.405      2.161
REMARK SMILES CC(=O)CCc1ccc2c(c1)OCO2
REMARK SMILES IDX 4 1 2 2 1 3 3 4 5 5 6 6 7 7 11 8 8 9 10 10 9 11 12 12 14 13
REMARK SMILES IDX 13 14
REMARK H PARENT
REMARK Flexibility Score: inf
ROOT
ATOM      1  C   UNL     1       6.610   0.135   1.807  1.00  0.00     0.080 C 
ENDROOT
BRANCH   1   2
ATOM      2  C   UNL     1       5.324   0.869   1.646  1.00  0.00     0.130 C 
ATOM      3  C   UNL     1       5.116   1.847   0.545  1.00  0.00     0.087 C 
ATOM      4  O   UNL     1       4.398   0.687   2.419  1.00  0.00    -0.300 OA
ENDBRANCH   1   2
BRANCH   1   5
ATOM      5  C   UNL     1       6.472  -1.315   1.387  1.00  0.00     0.043 C 
BRANCH   5   6
ATOM      6  C   UNL     1       7.231  -1.602   0.157  1.00  0.00    -0.044 A 
ATOM      7  C   UNL     1       6.855  -1.063  -1.079  1.00  0.00     0.008 A 
ATOM      8  C   UNL     1       8.339  -2.417   0.213  1.00  0.00     0.054 A 
ATOM      9  C   UNL     1       7.606  -1.367  -2.200  1.00  0.00     0.051 A 
ATOM     10  C   UNL     1       9.095  -2.720  -0.923  1.00  0.00     0.166 A 
ATOM     11  C   UNL     1       8.725  -2.191  -2.140  1.00  0.00     0.165 A 
ATOM     12  O   UNL     1      10.220  -3.492  -1.125  1.00  0.00    -0.454 OA
ATOM     13  O   UNL     1       9.641  -2.653  -3.073  1.00  0.00    -0.454 OA
ATOM     14  C   UNL     1      10.657  -3.408  -2.457  1.00  0.00     0.468 C 
ENDBRANCH   5   6
ENDBRANCH   1   5
TORSDOF 3
ENDMDL
MODEL 5
REMARK VINA RESULT:      -7.4      1.919      2.444
REMARK SMILES CC(=O)CCc1ccc2c(c1)OCO2
REMARK SMILES IDX 4 1 2 2 1 3 3 4 5 5 6 6 7 7 11 8 8 9 10 10 9 11 12 12 14 13
REMARK SMILES IDX 13 14
REMARK H PARENT
REMARK Flexibility Score: inf
ROOT
ATOM      1  C   UNL     1       6.112  -0.408   1.781  1.00  0.00     0.080 C 
ENDROOT
BRANCH   1   2
ATOM      2  C   UNL     1       5.107   0.689   1.725  1.00  0.00     0.130 C 
ATOM      3  C   UNL     1       5.161   1.745   0.679  1.00  0.00     0.087 C 
ATOM      4  O   UNL     1       4.204   0.754   2.543  1.00  0.00    -0.300 OA
ENDBRANCH   1   2
BRANCH   1   5
ATOM      5  C   UNL     1       6.424  -0.940   0.396  1.00  0.00     0.043 C 
BRANCH   5   6
ATOM      6  C   UNL     1       7.855  -0.809   0.069  1.00  0.00    -0.044 A 
ATOM      7  C   UNL     1       8.340   0.271  -0.678  1.00  0.00     0.008 A 
ATOM      8  C   UNL     1       8.745  -1.764   0.505  1.00  0.00     0.054 A 
ATOM      9  C   UNL     1       9.693   0.342  -0.953  1.00  0.00     0.051 A 
ATOM     10  C   UNL     1      10.112  -1.687   0.225  1.00  0.00     0.166 A 
ATOM     11  C   UNL     1      10.590  -0.625  -0.511  1.00  0.00     0.165 A 
ATOM     12  O   UNL     1      11.183  -2.496   0.540  1.00  0.00    -0.454 OA
ATOM     13  O   UNL     1      11.959  -0.806  -0.633  1.00  0.00    -0.454 OA
ATOM     14  C   UNL     1      12.390  -1.931   0.095  1.00  0.00     0.468 C 
ENDBRANCH   5   6
ENDBRANCH   1   5
TORSDOF 3
ENDMDL
