@<TRIPOS>MOLECULE
/home/cewinharhar/GITHUB/reincatalyze/data/processed/docking_pred/2023-May-30-2130_sub9_nm5_bs15_s42_ex16_mel10_mts10000_k50_ec05_g099_lra3e-4_lrc3e-3/c2b16f598521213e119e3a09a49f7e8c9c89cc3b_ligand_9.pdbqt
 14 15 0 0 0
SMALL
GASTEIGER

@<TRIPOS>ATOM
      1  C          5.5660    1.8800    1.2860 C.3     1  UNL1        0.0800
      2  C          5.1180    0.6620    2.0180 C.2     1  UNL1        0.1300
      3  C          6.0100   -0.5140    2.1960 C.3     1  UNL1        0.0870
      4  O          3.9960    0.5950    2.4940 O.2     1  UNL1       -0.3000
      5  C          5.4270    1.7030   -0.2130 C.3     1  UNL1        0.0430
      6  C          6.5880    1.0010   -0.7900 C.2     1  UNL1       -0.0440
      7  C          7.8970    1.4400   -0.5620 C.2     1  UNL1        0.0080
      8  C          6.3910   -0.1150   -1.5710 C.2     1  UNL1        0.0540
      9  C          8.9470    0.7400   -1.1290 C.2     1  UNL1        0.0510
     10  C          7.4560   -0.8190   -2.1410 C.2     1  UNL1        0.1660
     11  C          8.7450   -0.3880   -1.9180 C.2     1  UNL1        0.1650
     12  O          7.5200   -1.9390   -2.9420 O.2     1  UNL1       -0.4540
     13  O          9.5820   -1.2610   -2.5940 O.2     1  UNL1       -0.4540
     14  C          8.8530   -2.3120   -3.1820 C.3     1  UNL1        0.4680
@<TRIPOS>BOND
     1    14    12    1
     2    14    13    1
     3    12    10    1
     4    13    11    1
     5    10    11    2
     6    10     8    1
     7    11     9    1
     8     8     6    2
     9     9     7    2
    10     6     7    1
    11     6     5    1
    12     5     1    1
    13     1     2    1
    14     2     3    1
    15     2     4    2
