@<TRIPOS>MOLECULE
/home/cewinharhar/GITHUB/reincatalyze/data/processed/docking_pred/2023-May-30-2130_sub9_nm5_bs15_s42_ex16_mel10_mts10000_k50_ec05_g099_lra3e-4_lrc3e-3/c2bbe2b0b698b4c34a14c6b9d782c5d04fb4e97c_ligand_9.pdbqt
 14 15 0 0 0
SMALL
GASTEIGER

@<TRIPOS>ATOM
      1  C          5.6290    0.0810    1.9590 C.3     1  UNL1        0.0800
      2  C          4.6920    1.1860    1.6140 C.2     1  UNL1        0.1300
      3  C          4.9660    2.1190    0.4880 C.3     1  UNL1        0.0870
      4  O          3.6650    1.3590    2.2500 O.2     1  UNL1       -0.3000
      5  C          7.0190    0.3480    1.4170 C.3     1  UNL1        0.0430
      6  C          7.4050   -0.6380    0.3930 C.2     1  UNL1       -0.0440
      7  C          7.2900   -0.3600   -0.9740 C.2     1  UNL1        0.0080
      8  C          7.8960   -1.8650    0.7780 C.2     1  UNL1        0.0540
      9  C          7.6690   -1.3240   -1.8900 C.2     1  UNL1        0.0510
     10  C          8.2780   -2.8370   -0.1520 C.2     1  UNL1        0.1660
     11  C          8.1630   -2.5640   -1.4970 C.2     1  UNL1        0.1650
     12  O          8.7850   -4.1120   -0.0230 O.2     1  UNL1       -0.4540
     13  O          8.6080   -3.6890   -2.1730 O.2     1  UNL1       -0.4540
     14  C          9.0970   -4.6600   -1.2790 C.3     1  UNL1        0.4680
@<TRIPOS>BOND
     1    13    11    1
     2    13    14    1
     3     9    11    2
     4     9     7    1
     5    11    10    1
     6    14    12    1
     7     7     6    2
     8    10    12    1
     9    10     8    2
    10     6     8    1
    11     6     5    1
    12     3     2    1
    13     5     1    1
    14     2     1    1
    15     2     4    2
