@<TRIPOS>MOLECULE
/home/cewinharhar/GITHUB/reincatalyze/data/processed/docking_pred/2023-May-30-2130_sub9_nm5_bs15_s42_ex16_mel10_mts10000_k50_ec05_g099_lra3e-4_lrc3e-3/c61eb663c2c3330cf201d691d278f59eb7eebd68_ligand_9.pdbqt
 14 15 0 0 0
SMALL
GASTEIGER

@<TRIPOS>ATOM
      1  C          5.5540    1.9080    1.2960 C.3     1  UNL1        0.0800
      2  C          5.0910    0.6910    2.0180 C.2     1  UNL1        0.1300
      3  C          5.9660   -0.5020    2.1770 C.3     1  UNL1        0.0870
      4  O          3.9730    0.6370    2.5030 O.2     1  UNL1       -0.3000
      5  C          5.4230    1.7410   -0.2050 C.3     1  UNL1        0.0430
      6  C          6.5830    1.0370   -0.7800 C.2     1  UNL1       -0.0440
      7  C          7.8930    1.4710   -0.5460 C.2     1  UNL1        0.0080
      8  C          6.3850   -0.0770   -1.5640 C.2     1  UNL1        0.0540
      9  C          8.9430    0.7690   -1.1110 C.2     1  UNL1        0.0510
     10  C          7.4500   -0.7830   -2.1320 C.2     1  UNL1        0.1660
     11  C          8.7390   -0.3560   -1.9040 C.2     1  UNL1        0.1650
     12  O          7.5130   -1.9010   -2.9370 O.2     1  UNL1       -0.4540
     13  O          9.5760   -1.2310   -2.5790 O.2     1  UNL1       -0.4540
     14  C          8.8460   -2.2780   -3.1720 C.3     1  UNL1        0.4680
@<TRIPOS>BOND
     1    14    12    1
     2    14    13    1
     3    12    10    1
     4    13    11    1
     5    10    11    2
     6    10     8    1
     7    11     9    1
     8     8     6    2
     9     9     7    2
    10     6     7    1
    11     6     5    1
    12     5     1    1
    13     1     2    1
    14     2     3    1
    15     2     4    2
