@<TRIPOS>MOLECULE
/home/cewinharhar/GITHUB/reincatalyze/data/processed/docking_pred/2023-May-30-2130_sub9_nm5_bs15_s42_ex16_mel10_mts10000_k50_ec05_g099_lra3e-4_lrc3e-3/c61eb663c2c3330cf201d691d278f59eb7eebd68_ligand_9.pdbqt
 14 15 0 0 0
SMALL
GASTEIGER

@<TRIPOS>ATOM
      1  C          6.3710    1.2020    0.9430 C.3     1  UNL1        0.0800
      2  C          5.6500    0.3720    1.9490 C.2     1  UNL1        0.1300
      3  C          6.2590   -0.8550    2.5290 C.3     1  UNL1        0.0870
      4  O          4.5310    0.6770    2.3270 O.2     1  UNL1       -0.3000
      5  C          5.8570    0.9380   -0.4580 C.3     1  UNL1        0.0430
      6  C          6.7970    0.1140   -1.2390 C.2     1  UNL1       -0.0440
      7  C          7.4590    0.6230   -2.3620 C.2     1  UNL1        0.0080
      8  C          7.0400   -1.1870   -0.8620 C.2     1  UNL1        0.0540
      9  C          8.3310   -0.1960   -3.0560 C.2     1  UNL1        0.0510
     10  C          7.9230   -2.0110   -1.5660 C.2     1  UNL1        0.1660
     11  C          8.5730   -1.5120   -2.6720 C.2     1  UNL1        0.1650
     12  O          8.3260   -3.3190   -1.3960 O.2     1  UNL1       -0.4540
     13  O          9.3720   -2.5330   -3.1630 O.2     1  UNL1       -0.4540
     14  C          9.3150   -3.6670   -2.3300 C.3     1  UNL1        0.4680
@<TRIPOS>BOND
     1    13    11    1
     2    13    14    1
     3     9    11    2
     4     9     7    1
     5    11    10    1
     6     7     6    2
     7    14    12    1
     8    10    12    1
     9    10     8    2
    10     6     8    1
    11     6     5    1
    12     5     1    1
    13     1     2    1
    14     2     4    2
    15     2     3    1
