@<TRIPOS>MOLECULE
/home/cewinharhar/GITHUB/reincatalyze/data/processed/docking_pred/2023-May-30-2130_sub9_nm5_bs15_s42_ex16_mel10_mts10000_k50_ec05_g099_lra3e-4_lrc3e-3/c61eb663c2c3330cf201d691d278f59eb7eebd68_ligand_9.pdbqt
 14 15 0 0 0
SMALL
GASTEIGER

@<TRIPOS>ATOM
      1  C          5.7360    1.3100   -0.2970 C.3     1  UNL1        0.0800
      2  C          5.1260    1.2470    1.0610 C.2     1  UNL1        0.1300
      3  C          5.3540    0.0890    1.9660 C.3     1  UNL1        0.0870
      4  O          4.4150    2.1500    1.4710 O.2     1  UNL1       -0.3000
      5  C          7.2320    1.0720   -0.2390 C.3     1  UNL1        0.0430
      6  C          7.6040   -0.2160   -0.8510 C.2     1  UNL1       -0.0440
      7  C          7.6270   -0.3890   -2.2390 C.2     1  UNL1        0.0080
      8  C          7.9410   -1.2800   -0.0460 C.2     1  UNL1        0.0540
      9  C          7.9860   -1.6210   -2.7560 C.2     1  UNL1        0.0510
     10  C          8.3030   -2.5240   -0.5730 C.2     1  UNL1        0.1660
     11  C          8.3250   -2.6950   -1.9400 C.2     1  UNL1        0.1650
     12  O          8.6740   -3.7180    0.0060 O.2     1  UNL1       -0.4540
     13  O          8.7140   -4.0050   -2.1730 O.2     1  UNL1       -0.4540
     14  C          9.0330   -4.6630   -0.9700 C.3     1  UNL1        0.4680
@<TRIPOS>BOND
     1     9     7    1
     2     9    11    2
     3     7     6    2
     4    13    11    1
     5    13    14    1
     6    11    10    1
     7    14    12    1
     8     6     5    1
     9     6     8    1
    10    10     8    2
    11    10    12    1
    12     1     5    1
    13     1     2    1
    14     2     4    2
    15     2     3    1
