@<TRIPOS>MOLECULE
/home/cewinharhar/GITHUB/reincatalyze/data/processed/docking_pred/2023-May-30-2130_sub9_nm5_bs15_s42_ex16_mel10_mts10000_k50_ec05_g099_lra3e-4_lrc3e-3/c8a10dea28a77dd5a54e6b3bff917c6d12aef46d_ligand_9.pdbqt
 14 15 0 0 0
SMALL
GASTEIGER

@<TRIPOS>ATOM
      1  C          5.7140    1.2370   -0.3080 C.3     1  UNL1        0.0800
      2  C          5.1460    1.2110    1.0690 C.2     1  UNL1        0.1300
      3  C          5.3800    0.0650    1.9880 C.3     1  UNL1        0.0870
      4  O          4.4670    2.1350    1.4840 O.2     1  UNL1       -0.3000
      5  C          7.2170    1.0450   -0.2870 C.3     1  UNL1        0.0430
      6  C          7.6120   -0.2400   -0.8930 C.2     1  UNL1       -0.0440
      7  C          7.7230   -0.3930   -2.2800 C.2     1  UNL1        0.0080
      8  C          7.8830   -1.3200   -0.0850 C.2     1  UNL1        0.0540
      9  C          8.0990   -1.6220   -2.7910 C.2     1  UNL1        0.0510
     10  C          8.2630   -2.5610   -0.6070 C.2     1  UNL1        0.1660
     11  C          8.3710   -2.7120   -1.9710 C.2     1  UNL1        0.1650
     12  O          8.5800   -3.7690   -0.0230 O.2     1  UNL1       -0.4540
     13  O          8.7570   -4.0240   -2.1990 O.2     1  UNL1       -0.4540
     14  C          8.9890   -4.7030   -0.9880 C.3     1  UNL1        0.4680
@<TRIPOS>BOND
     1     9     7    1
     2     9    11    2
     3     7     6    2
     4    13    11    1
     5    13    14    1
     6    11    10    1
     7    14    12    1
     8     6     5    1
     9     6     8    1
    10    10     8    2
    11    10    12    1
    12     1     5    1
    13     1     2    1
    14     2     4    2
    15     2     3    1
