@<TRIPOS>MOLECULE
/home/cewinharhar/GITHUB/reincatalyze/data/processed/docking_pred/2023-May-30-2130_sub9_nm5_bs15_s42_ex16_mel10_mts10000_k50_ec05_g099_lra3e-4_lrc3e-3/c8a10dea28a77dd5a54e6b3bff917c6d12aef46d_ligand_9.pdbqt
 14 15 0 0 0
SMALL
GASTEIGER

@<TRIPOS>ATOM
      1  C          5.5090    1.9250    1.2560 C.3     1  UNL1        0.0800
      2  C          5.0810    0.7050    1.9960 C.2     1  UNL1        0.1300
      3  C          5.9860   -0.4630    2.1650 C.3     1  UNL1        0.0870
      4  O          3.9670    0.6290    2.4870 O.2     1  UNL1       -0.3000
      5  C          5.3890    1.7300   -0.2430 C.3     1  UNL1        0.0430
      6  C          6.5580    1.0250   -0.7980 C.2     1  UNL1       -0.0440
      7  C          7.8650    1.4520   -0.5340 C.2     1  UNL1        0.0080
      8  C          6.3730   -0.0820   -1.5940 C.2     1  UNL1        0.0540
      9  C          8.9230    0.7510   -1.0820 C.2     1  UNL1        0.0510
     10  C          7.4460   -0.7880   -2.1450 C.2     1  UNL1        0.1660
     11  C          8.7320   -0.3680   -1.8870 C.2     1  UNL1        0.1650
     12  O          7.5220   -1.9010   -2.9560 O.2     1  UNL1       -0.4540
     13  O          9.5800   -1.2410   -2.5510 O.2     1  UNL1       -0.4540
     14  C          8.8580   -2.2810   -3.1660 C.3     1  UNL1        0.4680
@<TRIPOS>BOND
     1    14    12    1
     2    14    13    1
     3    12    10    1
     4    13    11    1
     5    10    11    2
     6    10     8    1
     7    11     9    1
     8     8     6    2
     9     9     7    2
    10     6     7    1
    11     6     5    1
    12     5     1    1
    13     1     2    1
    14     2     3    1
    15     2     4    2
