@<TRIPOS>MOLECULE
/home/cewinharhar/GITHUB/reincatalyze/data/processed/docking_pred/2023-May-30-2130_sub9_nm5_bs15_s42_ex16_mel10_mts10000_k50_ec05_g099_lra3e-4_lrc3e-3/ca2511eb0ea692a115cf18c67ef7ccdfaa736476_ligand_9.pdbqt
 14 15 0 0 0
SMALL
GASTEIGER

@<TRIPOS>ATOM
      1  C          5.7480    1.5720   -0.2270 C.3     1  UNL1        0.0800
      2  C          5.0960    1.3500    1.0940 C.2     1  UNL1        0.1300
      3  C          5.4170    0.1670    1.9350 C.3     1  UNL1        0.0870
      4  O          4.2720    2.1400    1.5260 O.2     1  UNL1       -0.3000
      5  C          7.2360    1.2890   -0.1590 C.3     1  UNL1        0.0430
      6  C          7.5820    0.0230   -0.8300 C.2     1  UNL1       -0.0440
      7  C          7.5980   -0.0880   -2.2250 C.2     1  UNL1        0.0080
      8  C          7.9020   -1.0830   -0.0760 C.2     1  UNL1        0.0540
      9  C          7.9320   -1.3010   -2.7990 C.2     1  UNL1        0.0510
     10  C          8.2390   -2.3080   -0.6600 C.2     1  UNL1        0.1660
     11  C          8.2540   -2.4170   -2.0330 C.2     1  UNL1        0.1650
     12  O          8.5890   -3.5340   -0.1370 O.2     1  UNL1       -0.4540
     13  O          8.6170   -3.7220   -2.3270 O.2     1  UNL1       -0.4540
     14  C          8.9280   -4.4400   -1.1560 C.3     1  UNL1        0.4680
@<TRIPOS>BOND
     1     9     7    1
     2     9    11    2
     3    13    11    1
     4    13    14    1
     5     7     6    2
     6    11    10    1
     7    14    12    1
     8     6     5    1
     9     6     8    1
    10    10    12    1
    11    10     8    2
    12     1     5    1
    13     1     2    1
    14     2     4    2
    15     2     3    1
