@<TRIPOS>MOLECULE
/home/cewinharhar/GITHUB/reincatalyze/data/processed/docking_pred/2023-May-30-2130_sub9_nm5_bs15_s42_ex16_mel10_mts10000_k50_ec05_g099_lra3e-4_lrc3e-3/cb79d4b49cb2e7af28552c4e2a37cc688e9725fc_ligand_9.pdbqt
 14 15 0 0 0
SMALL
GASTEIGER

@<TRIPOS>ATOM
      1  C          5.7040    1.3350   -0.2490 C.3     1  UNL1        0.0800
      2  C          5.1010    1.2460    1.1100 C.2     1  UNL1        0.1300
      3  C          5.3970    0.1100    2.0230 C.3     1  UNL1        0.0870
      4  O          4.3400    2.1100    1.5150 O.2     1  UNL1       -0.3000
      5  C          7.2020    1.1070   -0.2020 C.3     1  UNL1        0.0430
      6  C          7.5800   -0.1760   -0.8210 C.2     1  UNL1       -0.0440
      7  C          7.6440   -0.3300   -2.2100 C.2     1  UNL1        0.0080
      8  C          7.8810   -1.2560   -0.0220 C.2     1  UNL1        0.0540
      9  C          8.0050   -1.5580   -2.7340 C.2     1  UNL1        0.0510
     10  C          8.2460   -2.4950   -0.5560 C.2     1  UNL1        0.1660
     11  C          8.3080   -2.6470   -1.9230 C.2     1  UNL1        0.1650
     12  O          8.5860   -3.7020    0.0170 O.2     1  UNL1       -0.4540
     13  O          8.6900   -3.9580   -2.1630 O.2     1  UNL1       -0.4540
     14  C          8.9650   -4.6360   -0.9610 C.3     1  UNL1        0.4680
@<TRIPOS>BOND
     1     9     7    1
     2     9    11    2
     3     7     6    2
     4    13    11    1
     5    13    14    1
     6    11    10    1
     7    14    12    1
     8     6     5    1
     9     6     8    1
    10    10     8    2
    11    10    12    1
    12     1     5    1
    13     1     2    1
    14     2     4    2
    15     2     3    1
