@<TRIPOS>MOLECULE
/home/cewinharhar/GITHUB/reincatalyze/data/processed/docking_pred/2023-May-30-2130_sub9_nm5_bs15_s42_ex16_mel10_mts10000_k50_ec05_g099_lra3e-4_lrc3e-3/cc4a81c85f0f72a0e9860fd8246284f5ccc1e781_ligand_9.pdbqt
 14 15 0 0 0
SMALL
GASTEIGER

@<TRIPOS>ATOM
      1  C          5.5000    1.9130    1.2460 C.3     1  UNL1        0.0800
      2  C          5.0510    0.7070    1.9960 C.2     1  UNL1        0.1300
      3  C          5.9210   -0.4900    2.1440 C.3     1  UNL1        0.0870
      4  O          3.9480    0.6670    2.5160 O.2     1  UNL1       -0.3000
      5  C          5.3740    1.7080   -0.2510 C.3     1  UNL1        0.0430
      6  C          6.5510    1.0170   -0.8090 C.2     1  UNL1       -0.0440
      7  C          7.8520    1.4700   -0.5640 C.2     1  UNL1        0.0080
      8  C          6.3770   -0.1050   -1.5880 C.2     1  UNL1        0.0540
      9  C          8.9170    0.7810   -1.1130 C.2     1  UNL1        0.0510
     10  C          7.4580   -0.7990   -2.1400 C.2     1  UNL1        0.1660
     11  C          8.7380   -0.3520   -1.9010 C.2     1  UNL1        0.1650
     12  O          7.5460   -1.9210   -2.9370 O.2     1  UNL1       -0.4540
     13  O          9.5950   -1.2190   -2.5620 O.2     1  UNL1       -0.4540
     14  C          8.8860   -2.2800   -3.1560 C.3     1  UNL1        0.4680
@<TRIPOS>BOND
     1    14    12    1
     2    14    13    1
     3    12    10    1
     4    13    11    1
     5    10    11    2
     6    10     8    1
     7    11     9    1
     8     8     6    2
     9     9     7    2
    10     6     7    1
    11     6     5    1
    12     5     1    1
    13     1     2    1
    14     2     3    1
    15     2     4    2
