MODEL 1
REMARK VINA RESULT:      -7.8      0.000      0.000
REMARK SMILES CC(=O)CCc1ccc2c(c1)OCO2
REMARK SMILES IDX 4 1 2 2 1 3 3 4 5 5 6 6 7 7 11 8 8 9 10 10 9 11 12 12 14 13
REMARK SMILES IDX 13 14
REMARK H PARENT
REMARK Flexibility Score: inf
ROOT
ATOM      1  C   UNL     1       5.490   1.948   1.256  1.00  0.00     0.080 C 
ENDROOT
BRANCH   1   2
ATOM      2  C   UNL     1       5.039   0.736   1.995  1.00  0.00     0.130 C 
ATOM      3  C   UNL     1       5.915  -0.456   2.149  1.00  0.00     0.087 C 
ATOM      4  O   UNL     1       3.929   0.686   2.499  1.00  0.00    -0.300 OA
ENDBRANCH   1   2
BRANCH   1   5
ATOM      5  C   UNL     1       5.372   1.754  -0.243  1.00  0.00     0.043 C 
BRANCH   5   6
ATOM      6  C   UNL     1       6.543   1.050  -0.796  1.00  0.00    -0.044 A 
ATOM      7  C   UNL     1       7.849   1.479  -0.531  1.00  0.00     0.008 A 
ATOM      8  C   UNL     1       6.360  -0.057  -1.592  1.00  0.00     0.054 A 
ATOM      9  C   UNL     1       8.909   0.778  -1.076  1.00  0.00     0.051 A 
ATOM     10  C   UNL     1       7.435  -0.763  -2.141  1.00  0.00     0.166 A 
ATOM     11  C   UNL     1       8.720  -0.341  -1.881  1.00  0.00     0.165 A 
ATOM     12  O   UNL     1       7.513  -1.876  -2.951  1.00  0.00    -0.454 OA
ATOM     13  O   UNL     1       9.569  -1.214  -2.543  1.00  0.00    -0.454 OA
ATOM     14  C   UNL     1       8.849  -2.255  -3.159  1.00  0.00     0.468 C 
ENDBRANCH   5   6
ENDBRANCH   1   5
TORSDOF 3
ENDMDL
MODEL 2
REMARK VINA RESULT:      -7.5      1.942      2.433
REMARK SMILES CC(=O)CCc1ccc2c(c1)OCO2
REMARK SMILES IDX 4 1 2 2 1 3 3 4 5 5 6 6 7 7 11 8 8 9 10 10 9 11 12 12 14 13
REMARK SMILES IDX 13 14
REMARK H PARENT
REMARK Flexibility Score: inf
ROOT
ATOM      1  C   UNL     1       5.808   1.239  -0.302  1.00  0.00     0.080 C 
ENDROOT
BRANCH   1   2
ATOM      2  C   UNL     1       5.279   1.188   1.089  1.00  0.00     0.130 C 
ATOM      3  C   UNL     1       5.420  -0.028   1.934  1.00  0.00     0.087 C 
ATOM      4  O   UNL     1       4.709   2.150   1.579  1.00  0.00    -0.300 OA
ENDBRANCH   1   2
BRANCH   1   5
ATOM      5  C   UNL     1       7.313   1.057  -0.325  1.00  0.00     0.043 C 
BRANCH   5   6
ATOM      6  C   UNL     1       7.698  -0.235  -0.920  1.00  0.00    -0.044 A 
ATOM      7  C   UNL     1       7.807  -0.401  -2.305  1.00  0.00     0.008 A 
ATOM      8  C   UNL     1       7.960  -1.311  -0.102  1.00  0.00     0.054 A 
ATOM      9  C   UNL     1       8.173  -1.637  -2.806  1.00  0.00     0.051 A 
ATOM     10  C   UNL     1       8.330  -2.559  -0.614  1.00  0.00     0.166 A 
ATOM     11  C   UNL     1       8.437  -2.723  -1.977  1.00  0.00     0.165 A 
ATOM     12  O   UNL     1       8.638  -3.764  -0.019  1.00  0.00    -0.454 OA
ATOM     13  O   UNL     1       8.813  -4.039  -2.193  1.00  0.00    -0.454 OA
ATOM     14  C   UNL     1       9.040  -4.710  -0.976  1.00  0.00     0.468 C 
ENDBRANCH   5   6
ENDBRANCH   1   5
TORSDOF 3
ENDMDL
MODEL 3
REMARK VINA RESULT:      -7.3      2.119      2.648
REMARK SMILES CC(=O)CCc1ccc2c(c1)OCO2
REMARK SMILES IDX 4 1 2 2 1 3 3 4 5 5 6 6 7 7 11 8 8 9 10 10 9 11 12 12 14 13
REMARK SMILES IDX 13 14
REMARK H PARENT
REMARK Flexibility Score: inf
ROOT
ATOM      1  C   UNL     1       5.739  -0.016   1.999  1.00  0.00     0.080 C 
ENDROOT
BRANCH   1   2
ATOM      2  C   UNL     1       4.769   1.074   1.700  1.00  0.00     0.130 C 
ATOM      3  C   UNL     1       5.016   2.063   0.617  1.00  0.00     0.087 C 
ATOM      4  O   UNL     1       3.736   1.187   2.340  1.00  0.00    -0.300 OA
ENDBRANCH   1   2
BRANCH   1   5
ATOM      5  C   UNL     1       7.100   0.279   1.401  1.00  0.00     0.043 C 
BRANCH   5   6
ATOM      6  C   UNL     1       7.472  -0.712   0.375  1.00  0.00    -0.044 A 
ATOM      7  C   UNL     1       7.349  -0.434  -0.991  1.00  0.00     0.008 A 
ATOM      8  C   UNL     1       7.957  -1.942   0.758  1.00  0.00     0.054 A 
ATOM      9  C   UNL     1       7.715  -1.402  -1.908  1.00  0.00     0.051 A 
ATOM     10  C   UNL     1       8.326  -2.917  -0.173  1.00  0.00     0.166 A 
ATOM     11  C   UNL     1       8.204  -2.645  -1.517  1.00  0.00     0.165 A 
ATOM     12  O   UNL     1       8.825  -4.196  -0.047  1.00  0.00    -0.454 OA
ATOM     13  O   UNL     1       8.636  -3.773  -2.196  1.00  0.00    -0.454 OA
ATOM     14  C   UNL     1       9.124  -4.747  -1.304  1.00  0.00     0.468 C 
ENDBRANCH   5   6
ENDBRANCH   1   5
TORSDOF 3
ENDMDL
MODEL 4
REMARK VINA RESULT:      -7.2      1.257      1.468
REMARK SMILES CC(=O)CCc1ccc2c(c1)OCO2
REMARK SMILES IDX 4 1 2 2 1 3 3 4 5 5 6 6 7 7 11 8 8 9 10 10 9 11 12 12 14 13
REMARK SMILES IDX 13 14
REMARK H PARENT
REMARK Flexibility Score: inf
ROOT
ATOM      1  C   UNL     1       6.343   1.230   0.919  1.00  0.00     0.080 C 
ENDROOT
BRANCH   1   2
ATOM      2  C   UNL     1       5.651   0.396   1.941  1.00  0.00     0.130 C 
ATOM      3  C   UNL     1       6.270  -0.840   2.490  1.00  0.00     0.087 C 
ATOM      4  O   UNL     1       4.547   0.705   2.360  1.00  0.00    -0.300 OA
ENDBRANCH   1   2
BRANCH   1   5
ATOM      5  C   UNL     1       5.830   0.930  -0.475  1.00  0.00     0.043 C 
BRANCH   5   6
ATOM      6  C   UNL     1       6.786   0.116  -1.246  1.00  0.00    -0.044 A 
ATOM      7  C   UNL     1       7.475   0.640  -2.346  1.00  0.00     0.008 A 
ATOM      8  C   UNL     1       7.018  -1.191  -0.882  1.00  0.00     0.054 A 
ATOM      9  C   UNL     1       8.361  -0.171  -3.031  1.00  0.00     0.051 A 
ATOM     10  C   UNL     1       7.915  -2.007  -1.578  1.00  0.00     0.166 A 
ATOM     11  C   UNL     1       8.592  -1.493  -2.662  1.00  0.00     0.165 A 
ATOM     12  O   UNL     1       8.313  -3.317  -1.417  1.00  0.00    -0.454 OA
ATOM     13  O   UNL     1       9.400  -2.508  -3.148  1.00  0.00    -0.454 OA
ATOM     14  C   UNL     1       9.322  -3.654  -2.334  1.00  0.00     0.468 C 
ENDBRANCH   5   6
ENDBRANCH   1   5
TORSDOF 3
ENDMDL
MODEL 5
REMARK VINA RESULT:      -6.9      1.243      1.754
REMARK SMILES CC(=O)CCc1ccc2c(c1)OCO2
REMARK SMILES IDX 4 1 2 2 1 3 3 4 5 5 6 6 7 7 11 8 8 9 10 10 9 11 12 12 14 13
REMARK SMILES IDX 13 14
REMARK H PARENT
REMARK Flexibility Score: inf
ROOT
ATOM      1  C   UNL     1       5.367  -0.143   1.955  1.00  0.00     0.080 C 
ENDROOT
BRANCH   1   2
ATOM      2  C   UNL     1       4.472   1.041   1.821  1.00  0.00     0.130 C 
ATOM      3  C   UNL     1       4.732   2.107   0.817  1.00  0.00     0.087 C 
ATOM      4  O   UNL     1       3.492   1.169   2.536  1.00  0.00    -0.300 OA
ENDBRANCH   1   2
BRANCH   1   5
ATOM      5  C   UNL     1       6.826   0.261   1.890  1.00  0.00     0.043 C 
BRANCH   5   6
ATOM      6  C   UNL     1       7.431  -0.079   0.590  1.00  0.00    -0.044 A 
ATOM      7  C   UNL     1       7.926   0.908  -0.269  1.00  0.00     0.008 A 
ATOM      8  C   UNL     1       7.518  -1.397   0.203  1.00  0.00     0.054 A 
ATOM      9  C   UNL     1       8.483   0.529  -1.477  1.00  0.00     0.051 A 
ATOM     10  C   UNL     1       8.083  -1.775  -1.019  1.00  0.00     0.166 A 
ATOM     11  C   UNL     1       8.569  -0.804  -1.866  1.00  0.00     0.165 A 
ATOM     12  O   UNL     1       8.282  -2.998  -1.624  1.00  0.00    -0.454 OA
ATOM     13  O   UNL     1       9.063  -1.458  -2.984  1.00  0.00    -0.454 OA
ATOM     14  C   UNL     1       8.983  -2.855  -2.832  1.00  0.00     0.468 C 
ENDBRANCH   5   6
ENDBRANCH   1   5
TORSDOF 3
ENDMDL
