@<TRIPOS>MOLECULE
/home/cewinharhar/GITHUB/reincatalyze/data/processed/docking_pred/2023-May-30-2130_sub9_nm5_bs15_s42_ex16_mel10_mts10000_k50_ec05_g099_lra3e-4_lrc3e-3/cfcc95f4f76461c4d394d3c7424702b9c56cb13e_ligand_9.pdbqt
 14 15 0 0 0
SMALL
GASTEIGER

@<TRIPOS>ATOM
      1  C          5.8080    1.2390   -0.3020 C.3     1  UNL1        0.0800
      2  C          5.2790    1.1880    1.0890 C.2     1  UNL1        0.1300
      3  C          5.4200   -0.0280    1.9340 C.3     1  UNL1        0.0870
      4  O          4.7090    2.1500    1.5790 O.2     1  UNL1       -0.3000
      5  C          7.3130    1.0570   -0.3250 C.3     1  UNL1        0.0430
      6  C          7.6980   -0.2350   -0.9200 C.2     1  UNL1       -0.0440
      7  C          7.8070   -0.4010   -2.3050 C.2     1  UNL1        0.0080
      8  C          7.9600   -1.3110   -0.1020 C.2     1  UNL1        0.0540
      9  C          8.1730   -1.6370   -2.8060 C.2     1  UNL1        0.0510
     10  C          8.3300   -2.5590   -0.6140 C.2     1  UNL1        0.1660
     11  C          8.4370   -2.7230   -1.9770 C.2     1  UNL1        0.1650
     12  O          8.6380   -3.7640   -0.0190 O.2     1  UNL1       -0.4540
     13  O          8.8130   -4.0390   -2.1930 O.2     1  UNL1       -0.4540
     14  C          9.0400   -4.7100   -0.9760 C.3     1  UNL1        0.4680
@<TRIPOS>BOND
     1     9     7    1
     2     9    11    2
     3     7     6    2
     4    13    11    1
     5    13    14    1
     6    11    10    1
     7    14    12    1
     8     6     5    1
     9     6     8    1
    10    10     8    2
    11    10    12    1
    12     5     1    1
    13     1     2    1
    14     2     4    2
    15     2     3    1
