@<TRIPOS>MOLECULE
/home/cewinharhar/GITHUB/reincatalyze/data/processed/docking_pred/2023-May-30-2130_sub9_nm5_bs15_s42_ex16_mel10_mts10000_k50_ec05_g099_lra3e-4_lrc3e-3/cfcc95f4f76461c4d394d3c7424702b9c56cb13e_ligand_9.pdbqt
 14 15 0 0 0
SMALL
GASTEIGER

@<TRIPOS>ATOM
      1  C          5.4900    1.9480    1.2560 C.3     1  UNL1        0.0800
      2  C          5.0390    0.7360    1.9950 C.2     1  UNL1        0.1300
      3  C          5.9150   -0.4560    2.1490 C.3     1  UNL1        0.0870
      4  O          3.9290    0.6860    2.4990 O.2     1  UNL1       -0.3000
      5  C          5.3720    1.7540   -0.2430 C.3     1  UNL1        0.0430
      6  C          6.5430    1.0500   -0.7960 C.2     1  UNL1       -0.0440
      7  C          7.8490    1.4790   -0.5310 C.2     1  UNL1        0.0080
      8  C          6.3600   -0.0570   -1.5920 C.2     1  UNL1        0.0540
      9  C          8.9090    0.7780   -1.0760 C.2     1  UNL1        0.0510
     10  C          7.4350   -0.7630   -2.1410 C.2     1  UNL1        0.1660
     11  C          8.7200   -0.3410   -1.8810 C.2     1  UNL1        0.1650
     12  O          7.5130   -1.8760   -2.9510 O.2     1  UNL1       -0.4540
     13  O          9.5690   -1.2140   -2.5430 O.2     1  UNL1       -0.4540
     14  C          8.8490   -2.2550   -3.1590 C.3     1  UNL1        0.4680
@<TRIPOS>BOND
     1    14    12    1
     2    14    13    1
     3    12    10    1
     4    13    11    1
     5    10    11    2
     6    10     8    1
     7    11     9    1
     8     8     6    2
     9     9     7    2
    10     6     7    1
    11     6     5    1
    12     5     1    1
    13     1     2    1
    14     2     3    1
    15     2     4    2
