@<TRIPOS>MOLECULE
/home/cewinharhar/GITHUB/reincatalyze/data/processed/docking_pred/2023-May-30-2130_sub9_nm5_bs15_s42_ex16_mel10_mts10000_k50_ec05_g099_lra3e-4_lrc3e-3/cfcc95f4f76461c4d394d3c7424702b9c56cb13e_ligand_9.pdbqt
 14 15 0 0 0
SMALL
GASTEIGER

@<TRIPOS>ATOM
      1  C          5.7390   -0.0160    1.9990 C.3     1  UNL1        0.0800
      2  C          4.7690    1.0740    1.7000 C.2     1  UNL1        0.1300
      3  C          5.0160    2.0630    0.6170 C.3     1  UNL1        0.0870
      4  O          3.7360    1.1870    2.3400 O.2     1  UNL1       -0.3000
      5  C          7.1000    0.2790    1.4010 C.3     1  UNL1        0.0430
      6  C          7.4720   -0.7120    0.3750 C.2     1  UNL1       -0.0440
      7  C          7.3490   -0.4340   -0.9910 C.2     1  UNL1        0.0080
      8  C          7.9570   -1.9420    0.7580 C.2     1  UNL1        0.0540
      9  C          7.7150   -1.4020   -1.9080 C.2     1  UNL1        0.0510
     10  C          8.3260   -2.9170   -0.1730 C.2     1  UNL1        0.1660
     11  C          8.2040   -2.6450   -1.5170 C.2     1  UNL1        0.1650
     12  O          8.8250   -4.1960   -0.0470 O.2     1  UNL1       -0.4540
     13  O          8.6360   -3.7730   -2.1960 O.2     1  UNL1       -0.4540
     14  C          9.1240   -4.7470   -1.3040 C.3     1  UNL1        0.4680
@<TRIPOS>BOND
     1    13    11    1
     2    13    14    1
     3     9    11    2
     4     9     7    1
     5    11    10    1
     6    14    12    1
     7     7     6    2
     8    10    12    1
     9    10     8    2
    10     6     8    1
    11     6     5    1
    12     3     2    1
    13     5     1    1
    14     2     1    1
    15     2     4    2
