@<TRIPOS>MOLECULE
/home/cewinharhar/GITHUB/reincatalyze/data/processed/docking_pred/2023-May-30-2130_sub9_nm5_bs15_s42_ex16_mel10_mts10000_k50_ec05_g099_lra3e-4_lrc3e-3/cfcc95f4f76461c4d394d3c7424702b9c56cb13e_ligand_9.pdbqt
 14 15 0 0 0
SMALL
GASTEIGER

@<TRIPOS>ATOM
      1  C          6.3430    1.2300    0.9190 C.3     1  UNL1        0.0800
      2  C          5.6510    0.3960    1.9410 C.2     1  UNL1        0.1300
      3  C          6.2700   -0.8400    2.4900 C.3     1  UNL1        0.0870
      4  O          4.5470    0.7050    2.3600 O.2     1  UNL1       -0.3000
      5  C          5.8300    0.9300   -0.4750 C.3     1  UNL1        0.0430
      6  C          6.7860    0.1160   -1.2460 C.2     1  UNL1       -0.0440
      7  C          7.4750    0.6400   -2.3460 C.2     1  UNL1        0.0080
      8  C          7.0180   -1.1910   -0.8820 C.2     1  UNL1        0.0540
      9  C          8.3610   -0.1710   -3.0310 C.2     1  UNL1        0.0510
     10  C          7.9150   -2.0070   -1.5780 C.2     1  UNL1        0.1660
     11  C          8.5920   -1.4930   -2.6620 C.2     1  UNL1        0.1650
     12  O          8.3130   -3.3170   -1.4170 O.2     1  UNL1       -0.4540
     13  O          9.4000   -2.5080   -3.1480 O.2     1  UNL1       -0.4540
     14  C          9.3220   -3.6540   -2.3340 C.3     1  UNL1        0.4680
@<TRIPOS>BOND
     1    13    11    1
     2    13    14    1
     3     9    11    2
     4     9     7    1
     5    11    10    1
     6     7     6    2
     7    14    12    1
     8    10    12    1
     9    10     8    2
    10     6     8    1
    11     6     5    1
    12     5     1    1
    13     1     2    1
    14     2     4    2
    15     2     3    1
