@<TRIPOS>MOLECULE
/home/cewinharhar/GITHUB/reincatalyze/data/processed/docking_pred/2023-May-30-2130_sub9_nm5_bs15_s42_ex16_mel10_mts10000_k50_ec05_g099_lra3e-4_lrc3e-3/d0b377ce7413ba2d0a06352180e6db5bf746794c_ligand_9.pdbqt
 14 15 0 0 0
SMALL
GASTEIGER

@<TRIPOS>ATOM
      1  C          5.3990   -0.0800    2.0130 C.3     1  UNL1        0.0800
      2  C          4.5680    1.1330    1.7770 C.2     1  UNL1        0.1300
      3  C          4.9130    2.1230    0.7220 C.3     1  UNL1        0.0870
      4  O          3.5720    1.3510    2.4470 O.2     1  UNL1       -0.3000
      5  C          6.8440    0.1580    1.6210 C.3     1  UNL1        0.0430
      6  C          7.2790   -0.7600    0.5540 C.2     1  UNL1       -0.0440
      7  C          7.1530   -0.4230   -0.7990 C.2     1  UNL1        0.0080
      8  C          7.8270   -1.9790    0.8840 C.2     1  UNL1        0.0540
      9  C          7.5790   -1.3250   -1.7570 C.2     1  UNL1        0.0510
     10  C          8.2570   -2.8860   -0.0890 C.2     1  UNL1        0.1660
     11  C          8.1320   -2.5570   -1.4200 C.2     1  UNL1        0.1650
     12  O          8.8240   -4.1410   -0.0180 O.2     1  UNL1       -0.4540
     13  O          8.6310   -3.6260   -2.1470 O.2     1  UNL1       -0.4540
     14  C          9.1640   -4.6140   -1.2960 C.3     1  UNL1        0.4680
@<TRIPOS>BOND
     1    13    11    1
     2    13    14    1
     3     9    11    2
     4     9     7    1
     5    11    10    1
     6    14    12    1
     7     7     6    2
     8    10    12    1
     9    10     8    2
    10     6     8    1
    11     6     5    1
    12     3     2    1
    13     5     1    1
    14     2     1    1
    15     2     4    2
