@<TRIPOS>MOLECULE
/home/cewinharhar/GITHUB/reincatalyze/data/processed/docking_pred/2023-May-30-2130_sub9_nm5_bs15_s42_ex16_mel10_mts10000_k50_ec05_g099_lra3e-4_lrc3e-3/d17de8b65df071edc80e577bc10846f04a34e0dd_ligand_9.pdbqt
 14 15 0 0 0
SMALL
GASTEIGER

@<TRIPOS>ATOM
      1  C          5.6760    0.1060    1.9630 C.3     1  UNL1        0.0800
      2  C          4.7250    1.2000    1.6190 C.2     1  UNL1        0.1300
      3  C          4.9950    2.1480    0.5060 C.3     1  UNL1        0.0870
      4  O          3.6900    1.3500    2.2480 O.2     1  UNL1       -0.3000
      5  C          7.0570    0.3790    1.3990 C.3     1  UNL1        0.0430
      6  C          7.4360   -0.6130    0.3770 C.2     1  UNL1       -0.0440
      7  C          7.3340   -0.3320   -0.9900 C.2     1  UNL1        0.0080
      8  C          7.9060   -1.8470    0.7660 C.2     1  UNL1        0.0540
      9  C          7.7050   -1.3020   -1.9040 C.2     1  UNL1        0.0510
     10  C          8.2810   -2.8230   -0.1620 C.2     1  UNL1        0.1660
     11  C          8.1790   -2.5490   -1.5080 C.2     1  UNL1        0.1650
     12  O          8.7690   -4.1060   -0.0300 O.2     1  UNL1       -0.4540
     13  O          8.6130   -3.6800   -2.1810 O.2     1  UNL1       -0.4540
     14  C          9.0810   -4.6580   -1.2840 C.3     1  UNL1        0.4680
@<TRIPOS>BOND
     1    13    11    1
     2    13    14    1
     3     9    11    2
     4     9     7    1
     5    11    10    1
     6    14    12    1
     7     7     6    2
     8    10    12    1
     9    10     8    2
    10     6     8    1
    11     6     5    1
    12     3     2    1
    13     5     1    1
    14     2     1    1
    15     2     4    2
