@<TRIPOS>MOLECULE
/home/cewinharhar/GITHUB/reincatalyze/data/processed/docking_pred/2023-May-30-2130_sub9_nm5_bs15_s42_ex16_mel10_mts10000_k50_ec05_g099_lra3e-4_lrc3e-3/d17de8b65df071edc80e577bc10846f04a34e0dd_ligand_9.pdbqt
 14 15 0 0 0
SMALL
GASTEIGER

@<TRIPOS>ATOM
      1  C          5.3240   -0.0870    1.9660 C.3     1  UNL1        0.0800
      2  C          4.4520    1.1080    1.7880 C.2     1  UNL1        0.1300
      3  C          4.7490    2.1450    0.7640 C.3     1  UNL1        0.0870
      4  O          3.4630    1.2710    2.4830 O.2     1  UNL1       -0.3000
      5  C          6.7910    0.2890    1.9130 C.3     1  UNL1        0.0430
      6  C          7.3970   -0.0540    0.6140 C.2     1  UNL1       -0.0440
      7  C          7.9020    0.9320   -0.2420 C.2     1  UNL1        0.0080
      8  C          7.4750   -1.3710    0.2250 C.2     1  UNL1        0.0540
      9  C          8.4610    0.5500   -1.4480 C.2     1  UNL1        0.0510
     10  C          8.0410   -1.7520   -0.9960 C.2     1  UNL1        0.1660
     11  C          8.5380   -0.7830   -1.8390 C.2     1  UNL1        0.1650
     12  O          8.2330   -2.9750   -1.6020 O.2     1  UNL1       -0.4540
     13  O          9.0300   -1.4380   -2.9570 O.2     1  UNL1       -0.4540
     14  C          8.9390   -2.8350   -2.8080 C.3     1  UNL1        0.4680
@<TRIPOS>BOND
     1    13    14    1
     2    13    11    1
     3    14    12    1
     4    11     9    2
     5    11    10    1
     6    12    10    1
     7     9     7    1
     8    10     8    2
     9     7     6    2
    10     8     6    1
    11     6     5    1
    12     3     2    1
    13     2     1    1
    14     2     4    2
    15     5     1    1
