MODEL 1
REMARK VINA RESULT:      -7.6      0.000      0.000
REMARK SMILES CC(=O)CCc1ccc2c(c1)OCO2
REMARK SMILES IDX 4 1 2 2 1 3 3 4 5 5 6 6 7 7 11 8 8 9 10 10 9 11 12 12 14 13
REMARK SMILES IDX 13 14
REMARK H PARENT
REMARK Flexibility Score: inf
ROOT
ATOM      1  C   UNL     1       5.547   1.893   1.279  1.00  0.00     0.080 C 
ENDROOT
BRANCH   1   2
ATOM      2  C   UNL     1       5.098   0.673   2.005  1.00  0.00     0.130 C 
ATOM      3  C   UNL     1       5.984  -0.511   2.166  1.00  0.00     0.087 C 
ATOM      4  O   UNL     1       3.981   0.610   2.493  1.00  0.00    -0.300 OA
ENDBRANCH   1   2
BRANCH   1   5
ATOM      5  C   UNL     1       5.416   1.720  -0.222  1.00  0.00     0.043 C 
BRANCH   5   6
ATOM      6  C   UNL     1       6.581   1.021  -0.794  1.00  0.00    -0.044 A 
ATOM      7  C   UNL     1       7.889   1.457  -0.554  1.00  0.00     0.008 A 
ATOM      8  C   UNL     1       6.389  -0.089  -1.585  1.00  0.00     0.054 A 
ATOM      9  C   UNL     1       8.943   0.761  -1.117  1.00  0.00     0.051 A 
ATOM     10  C   UNL     1       7.458  -0.790  -2.151  1.00  0.00     0.166 A 
ATOM     11  C   UNL     1       8.745  -0.361  -1.916  1.00  0.00     0.165 A 
ATOM     12  O   UNL     1       7.528  -1.904  -2.960  1.00  0.00    -0.454 OA
ATOM     13  O   UNL     1       9.587  -1.230  -2.591  1.00  0.00    -0.454 OA
ATOM     14  C   UNL     1       8.862  -2.277  -3.192  1.00  0.00     0.468 C 
ENDBRANCH   5   6
ENDBRANCH   1   5
TORSDOF 3
ENDMDL
MODEL 2
REMARK VINA RESULT:      -7.5      1.932      2.372
REMARK SMILES CC(=O)CCc1ccc2c(c1)OCO2
REMARK SMILES IDX 4 1 2 2 1 3 3 4 5 5 6 6 7 7 11 8 8 9 10 10 9 11 12 12 14 13
REMARK SMILES IDX 13 14
REMARK H PARENT
REMARK Flexibility Score: inf
ROOT
ATOM      1  C   UNL     1       5.753   1.408  -0.270  1.00  0.00     0.080 C 
ENDROOT
BRANCH   1   2
ATOM      2  C   UNL     1       5.161   1.280   1.091  1.00  0.00     0.130 C 
ATOM      3  C   UNL     1       5.432   0.098   1.952  1.00  0.00     0.087 C 
ATOM      4  O   UNL     1       4.431   2.149   1.541  1.00  0.00    -0.300 OA
ENDBRANCH   1   2
BRANCH   1   5
ATOM      5  C   UNL     1       7.251   1.173  -0.243  1.00  0.00     0.043 C 
BRANCH   5   6
ATOM      6  C   UNL     1       7.611  -0.127  -0.835  1.00  0.00    -0.044 A 
ATOM      7  C   UNL     1       7.668  -0.311  -2.222  1.00  0.00     0.008 A 
ATOM      8  C   UNL     1       7.902  -1.193  -0.015  1.00  0.00     0.054 A 
ATOM      9  C   UNL     1       8.013  -1.554  -2.720  1.00  0.00     0.051 A 
ATOM     10  C   UNL     1       8.251  -2.448  -0.524  1.00  0.00     0.166 A 
ATOM     11  C   UNL     1       8.306  -2.630  -1.887  1.00  0.00     0.165 A 
ATOM     12  O   UNL     1       8.578  -3.646   0.074  1.00  0.00    -0.454 OA
ATOM     13  O   UNL     1       8.672  -3.950  -2.101  1.00  0.00    -0.454 OA
ATOM     14  C   UNL     1       8.943  -4.605  -0.885  1.00  0.00     0.468 C 
ENDBRANCH   5   6
ENDBRANCH   1   5
TORSDOF 3
ENDMDL
MODEL 3
REMARK VINA RESULT:      -7.2      2.079      2.593
REMARK SMILES CC(=O)CCc1ccc2c(c1)OCO2
REMARK SMILES IDX 4 1 2 2 1 3 3 4 5 5 6 6 7 7 11 8 8 9 10 10 9 11 12 12 14 13
REMARK SMILES IDX 13 14
REMARK H PARENT
REMARK Flexibility Score: inf
ROOT
ATOM      1  C   UNL     1       5.676   0.106   1.963  1.00  0.00     0.080 C 
ENDROOT
BRANCH   1   2
ATOM      2  C   UNL     1       4.725   1.200   1.619  1.00  0.00     0.130 C 
ATOM      3  C   UNL     1       4.995   2.148   0.506  1.00  0.00     0.087 C 
ATOM      4  O   UNL     1       3.690   1.350   2.248  1.00  0.00    -0.300 OA
ENDBRANCH   1   2
BRANCH   1   5
ATOM      5  C   UNL     1       7.057   0.379   1.399  1.00  0.00     0.043 C 
BRANCH   5   6
ATOM      6  C   UNL     1       7.436  -0.613   0.377  1.00  0.00    -0.044 A 
ATOM      7  C   UNL     1       7.334  -0.332  -0.990  1.00  0.00     0.008 A 
ATOM      8  C   UNL     1       7.906  -1.847   0.766  1.00  0.00     0.054 A 
ATOM      9  C   UNL     1       7.705  -1.302  -1.904  1.00  0.00     0.051 A 
ATOM     10  C   UNL     1       8.281  -2.823  -0.162  1.00  0.00     0.166 A 
ATOM     11  C   UNL     1       8.179  -2.549  -1.508  1.00  0.00     0.165 A 
ATOM     12  O   UNL     1       8.769  -4.106  -0.030  1.00  0.00    -0.454 OA
ATOM     13  O   UNL     1       8.613  -3.680  -2.181  1.00  0.00    -0.454 OA
ATOM     14  C   UNL     1       9.081  -4.658  -1.284  1.00  0.00     0.468 C 
ENDBRANCH   5   6
ENDBRANCH   1   5
TORSDOF 3
ENDMDL
MODEL 4
REMARK VINA RESULT:      -7.1      1.258      1.467
REMARK SMILES CC(=O)CCc1ccc2c(c1)OCO2
REMARK SMILES IDX 4 1 2 2 1 3 3 4 5 5 6 6 7 7 11 8 8 9 10 10 9 11 12 12 14 13
REMARK SMILES IDX 13 14
REMARK H PARENT
REMARK Flexibility Score: inf
ROOT
ATOM      1  C   UNL     1       6.392   1.165   0.965  1.00  0.00     0.080 C 
ENDROOT
BRANCH   1   2
ATOM      2  C   UNL     1       5.638   0.346   1.955  1.00  0.00     0.130 C 
ATOM      3  C   UNL     1       6.213  -0.894   2.541  1.00  0.00     0.087 C 
ATOM      4  O   UNL     1       4.519   0.672   2.315  1.00  0.00    -0.300 OA
ENDBRANCH   1   2
BRANCH   1   5
ATOM      5  C   UNL     1       5.890   0.925  -0.445  1.00  0.00     0.043 C 
BRANCH   5   6
ATOM      6  C   UNL     1       6.827   0.098  -1.225  1.00  0.00    -0.044 A 
ATOM      7  C   UNL     1       7.495   0.606  -2.345  1.00  0.00     0.008 A 
ATOM      8  C   UNL     1       7.060  -1.206  -0.851  1.00  0.00     0.054 A 
ATOM      9  C   UNL     1       8.364  -0.217  -3.038  1.00  0.00     0.051 A 
ATOM     10  C   UNL     1       7.940  -2.034  -1.555  1.00  0.00     0.166 A 
ATOM     11  C   UNL     1       8.597  -1.535  -2.658  1.00  0.00     0.165 A 
ATOM     12  O   UNL     1       8.335  -3.344  -1.387  1.00  0.00    -0.454 OA
ATOM     13  O   UNL     1       9.391  -2.560  -3.149  1.00  0.00    -0.454 OA
ATOM     14  C   UNL     1       9.324  -3.696  -2.320  1.00  0.00     0.468 C 
ENDBRANCH   5   6
ENDBRANCH   1   5
TORSDOF 3
ENDMDL
MODEL 5
REMARK VINA RESULT:      -6.8      1.257      1.748
REMARK SMILES CC(=O)CCc1ccc2c(c1)OCO2
REMARK SMILES IDX 4 1 2 2 1 3 3 4 5 5 6 6 7 7 11 8 8 9 10 10 9 11 12 12 14 13
REMARK SMILES IDX 13 14
REMARK H PARENT
REMARK Flexibility Score: inf
ROOT
ATOM      1  C   UNL     1       5.324  -0.087   1.966  1.00  0.00     0.080 C 
ENDROOT
BRANCH   1   2
ATOM      2  C   UNL     1       4.452   1.108   1.788  1.00  0.00     0.130 C 
ATOM      3  C   UNL     1       4.749   2.145   0.764  1.00  0.00     0.087 C 
ATOM      4  O   UNL     1       3.463   1.271   2.483  1.00  0.00    -0.300 OA
ENDBRANCH   1   2
BRANCH   1   5
ATOM      5  C   UNL     1       6.791   0.289   1.913  1.00  0.00     0.043 C 
BRANCH   5   6
ATOM      6  C   UNL     1       7.397  -0.054   0.614  1.00  0.00    -0.044 A 
ATOM      7  C   UNL     1       7.902   0.932  -0.242  1.00  0.00     0.008 A 
ATOM      8  C   UNL     1       7.475  -1.371   0.225  1.00  0.00     0.054 A 
ATOM      9  C   UNL     1       8.461   0.550  -1.448  1.00  0.00     0.051 A 
ATOM     10  C   UNL     1       8.041  -1.752  -0.996  1.00  0.00     0.166 A 
ATOM     11  C   UNL     1       8.538  -0.783  -1.839  1.00  0.00     0.165 A 
ATOM     12  O   UNL     1       8.233  -2.975  -1.602  1.00  0.00    -0.454 OA
ATOM     13  O   UNL     1       9.030  -1.438  -2.957  1.00  0.00    -0.454 OA
ATOM     14  C   UNL     1       8.939  -2.835  -2.808  1.00  0.00     0.468 C 
ENDBRANCH   5   6
ENDBRANCH   1   5
TORSDOF 3
ENDMDL
