@<TRIPOS>MOLECULE
/home/cewinharhar/GITHUB/reincatalyze/data/processed/docking_pred/2023-May-30-2130_sub9_nm5_bs15_s42_ex16_mel10_mts10000_k50_ec05_g099_lra3e-4_lrc3e-3/d29de17412cd01c0ee6022e9d720ef028927a1a9_ligand_9.pdbqt
 14 15 0 0 0
SMALL
GASTEIGER

@<TRIPOS>ATOM
      1  C          8.0980   -2.5310   -3.5320 C.3     1  UNL1        0.0800
      2  C          9.2170   -3.5040   -3.3880 C.2     1  UNL1        0.1300
      3  C          8.9730   -4.9700   -3.3190 C.3     1  UNL1        0.0870
      4  O         10.3740   -3.1220   -3.3210 O.2     1  UNL1       -0.3000
      5  C          8.4820   -1.1670   -2.9940 C.3     1  UNL1        0.0430
      6  C          7.7090   -0.8170   -1.7890 C.2     1  UNL1       -0.0440
      7  C          7.7500   -1.6090   -0.6360 C.2     1  UNL1        0.0080
      8  C          6.9250    0.3140   -1.7860 C.2     1  UNL1        0.0540
      9  C          7.0040   -1.2310    0.4650 C.2     1  UNL1        0.0510
     10  C          6.1730    0.6930   -0.6690 C.2     1  UNL1        0.1660
     11  C          6.2130   -0.0860    0.4650 C.2     1  UNL1        0.1650
     12  O          5.3300    1.7550   -0.4210 O.2     1  UNL1       -0.4540
     13  O          5.3850    0.5200    1.3970 O.2     1  UNL1       -0.4540
     14  C          4.8760    1.7380    0.9080 C.3     1  UNL1        0.4680
@<TRIPOS>BOND
     1     1     2    1
     2     1     5    1
     3     2     4    2
     4     2     3    1
     5     5     6    1
     6     6     8    2
     7     6     7    1
     8     8    10    1
     9    10    12    1
    10    10    11    2
    11     7     9    2
    12    12    14    1
    13     9    11    1
    14    11    13    1
    15    14    13    1
