@<TRIPOS>MOLECULE
/home/cewinharhar/GITHUB/reincatalyze/data/processed/docking_pred/2023-May-30-2130_sub9_nm5_bs15_s42_ex16_mel10_mts10000_k50_ec05_g099_lra3e-4_lrc3e-3/d29de17412cd01c0ee6022e9d720ef028927a1a9_ligand_9.pdbqt
 14 15 0 0 0
SMALL
GASTEIGER

@<TRIPOS>ATOM
      1  C          5.8770   -0.4370    1.6630 C.3     1  UNL1        0.0800
      2  C          4.9470    0.7250    1.7240 C.2     1  UNL1        0.1300
      3  C          5.0780    1.8790    0.7950 C.3     1  UNL1        0.0870
      4  O          4.0440    0.7620    2.5440 O.2     1  UNL1       -0.3000
      5  C          7.2920    0.0070    1.3480 C.3     1  UNL1        0.0430
      6  C          7.6810   -0.3430   -0.0290 C.2     1  UNL1       -0.0440
      7  C          8.0200    0.6390   -0.9670 C.2     1  UNL1        0.0080
      8  C          7.7170   -1.6650   -0.4130 C.2     1  UNL1        0.0540
      9  C          8.3780    0.2510   -2.2460 C.2     1  UNL1        0.0510
     10  C          8.0800   -2.0520   -1.7070 C.2     1  UNL1        0.1660
     11  C          8.4130   -1.0860   -2.6310 C.2     1  UNL1        0.1650
     12  O          8.1910   -3.2800   -2.3240 O.2     1  UNL1       -0.4540
     13  O          8.7250   -1.7480   -3.8080 O.2     1  UNL1       -0.4540
     14  C          8.6850   -3.1440   -3.6320 C.3     1  UNL1        0.4680
@<TRIPOS>BOND
     1    13    14    1
     2    13    11    1
     3    14    12    1
     4    11     9    2
     5    11    10    1
     6    12    10    1
     7     9     7    1
     8    10     8    2
     9     7     6    2
    10     8     6    1
    11     6     5    1
    12     3     2    1
    13     5     1    1
    14     1     2    1
    15     2     4    2
