@<TRIPOS>MOLECULE
/home/cewinharhar/GITHUB/reincatalyze/data/processed/docking_pred/2023-May-30-2130_sub9_nm5_bs15_s42_ex16_mel10_mts10000_k50_ec05_g099_lra3e-4_lrc3e-3/d29de17412cd01c0ee6022e9d720ef028927a1a9_ligand_9.pdbqt
 14 15 0 0 0
SMALL
GASTEIGER

@<TRIPOS>ATOM
      1  C          8.1130   -2.5310   -3.6290 C.3     1  UNL1        0.0800
      2  C          9.2150   -3.5130   -3.4310 C.2     1  UNL1        0.1300
      3  C          8.9530   -4.9750   -3.3460 C.3     1  UNL1        0.0870
      4  O         10.3740   -3.1420   -3.3310 O.2     1  UNL1       -0.3000
      5  C          8.5110   -1.1510   -3.1460 C.3     1  UNL1        0.0430
      6  C          7.7420   -0.7440   -1.9570 C.2     1  UNL1       -0.0440
      7  C          6.8750    0.3540   -1.9840 C.2     1  UNL1        0.0080
      8  C          7.8700   -1.4560   -0.7860 C.2     1  UNL1        0.0540
      9  C          6.1780    0.6880   -0.8370 C.2     1  UNL1        0.0510
     10  C          7.1630   -1.1150    0.3710 C.2     1  UNL1        0.1660
     11  C          6.3100   -0.0330    0.3450 C.2     1  UNL1        0.1650
     12  O          7.1180   -1.6550    1.6390 O.2     1  UNL1       -0.4540
     13  O          5.7530    0.0680    1.6100 O.2     1  UNL1       -0.4540
     14  C          6.1680   -0.9940    2.4350 C.3     1  UNL1        0.4680
@<TRIPOS>BOND
     1     1     2    1
     2     1     5    1
     3     2     3    1
     4     2     4    2
     5     5     6    1
     6     7     6    2
     7     7     9    1
     8     6     8    1
     9     9    11    2
    10     8    10    2
    11    11    10    1
    12    11    13    1
    13    10    12    1
    14    13    14    1
    15    12    14    1
