@<TRIPOS>MOLECULE
/home/cewinharhar/GITHUB/reincatalyze/data/processed/docking_pred/2023-May-30-2130_sub9_nm5_bs15_s42_ex16_mel10_mts10000_k50_ec05_g099_lra3e-4_lrc3e-3/d3a7bace4d7284fd134c29c8ba069397c7215f06_ligand_9.pdbqt
 14 15 0 0 0
SMALL
GASTEIGER

@<TRIPOS>ATOM
      1  C          6.8210    0.8940    1.4570 C.3     1  UNL1        0.0800
      2  C          5.3670    1.2130    1.4960 C.2     1  UNL1        0.1300
      3  C          4.7460    2.1490    0.5210 C.3     1  UNL1        0.0870
      4  O          4.6370    0.7110    2.3360 O.2     1  UNL1       -0.3000
      5  C          7.3980    1.1220    0.0740 C.3     1  UNL1        0.0430
      6  C          7.6780   -0.1490   -0.6180 C.2     1  UNL1       -0.0440
      7  C          7.6210   -0.2530   -2.0120 C.2     1  UNL1        0.0080
      8  C          8.0060   -1.2670    0.1150 C.2     1  UNL1        0.0540
      9  C          7.8940   -1.4720   -2.6060 C.2     1  UNL1        0.0510
     10  C          8.2830   -2.4960   -0.4900 C.2     1  UNL1        0.1660
     11  C          8.2250   -2.6000   -1.8620 C.2     1  UNL1        0.1650
     12  O          8.6270   -3.7340    0.0110 O.2     1  UNL1       -0.4540
     13  O          8.5400   -3.9120   -2.1790 O.2     1  UNL1       -0.4540
     14  C          8.8900   -4.6430   -1.0280 C.3     1  UNL1        0.4680
@<TRIPOS>BOND
     1     9     7    1
     2     9    11    2
     3    13    11    1
     4    13    14    1
     5     7     6    2
     6    11    10    1
     7    14    12    1
     8     6     5    1
     9     6     8    1
    10    10    12    1
    11    10     8    2
    12     5     1    1
    13     3     2    1
    14     1     2    1
    15     2     4    2
