MODEL 1
REMARK VINA RESULT:      -7.6      0.000      0.000
REMARK SMILES CC(=O)CCc1ccc2c(c1)OCO2
REMARK SMILES IDX 4 1 2 2 1 3 3 4 5 5 6 6 7 7 11 8 8 9 10 10 9 11 12 12 14 13
REMARK SMILES IDX 13 14
REMARK H PARENT
REMARK Flexibility Score: inf
ROOT
ATOM      1  C   UNL     1       5.546   1.916   1.274  1.00  0.00     0.080 C 
ENDROOT
BRANCH   1   2
ATOM      2  C   UNL     1       5.106   0.700   2.014  1.00  0.00     0.130 C 
ATOM      3  C   UNL     1       6.005  -0.472   2.194  1.00  0.00     0.087 C 
ATOM      4  O   UNL     1       3.987   0.630   2.496  1.00  0.00    -0.300 OA
ENDBRANCH   1   2
BRANCH   1   5
ATOM      5  C   UNL     1       5.413   1.727  -0.224  1.00  0.00     0.043 C 
BRANCH   5   6
ATOM      6  C   UNL     1       6.578   1.024  -0.791  1.00  0.00    -0.044 A 
ATOM      7  C   UNL     1       7.886   1.453  -0.541  1.00  0.00     0.008 A 
ATOM      8  C   UNL     1       6.386  -0.085  -1.584  1.00  0.00     0.054 A 
ATOM      9  C   UNL     1       8.940   0.754  -1.100  1.00  0.00     0.051 A 
ATOM     10  C   UNL     1       7.455  -0.789  -2.146  1.00  0.00     0.166 A 
ATOM     11  C   UNL     1       8.743  -0.366  -1.902  1.00  0.00     0.165 A 
ATOM     12  O   UNL     1       7.525  -1.902  -2.956  1.00  0.00    -0.454 OA
ATOM     13  O   UNL     1       9.585  -1.238  -2.573  1.00  0.00    -0.454 OA
ATOM     14  C   UNL     1       8.859  -2.280  -3.180  1.00  0.00     0.468 C 
ENDBRANCH   5   6
ENDBRANCH   1   5
TORSDOF 3
ENDMDL
MODEL 2
REMARK VINA RESULT:      -7.3      1.954      2.459
REMARK SMILES CC(=O)CCc1ccc2c(c1)OCO2
REMARK SMILES IDX 4 1 2 2 1 3 3 4 5 5 6 6 7 7 11 8 8 9 10 10 9 11 12 12 14 13
REMARK SMILES IDX 13 14
REMARK H PARENT
REMARK Flexibility Score: inf
ROOT
ATOM      1  C   UNL     1       5.747   1.134  -0.343  1.00  0.00     0.080 C 
ENDROOT
BRANCH   1   2
ATOM      2  C   UNL     1       5.257   1.160   1.064  1.00  0.00     0.130 C 
ATOM      3  C   UNL     1       5.419  -0.008   1.969  1.00  0.00     0.087 C 
ATOM      4  O   UNL     1       4.703   2.150   1.516  1.00  0.00    -0.300 OA
ENDBRANCH   1   2
BRANCH   1   5
ATOM      5  C   UNL     1       7.255   0.987  -0.397  1.00  0.00     0.043 C 
BRANCH   5   6
ATOM      6  C   UNL     1       7.657  -0.308  -0.974  1.00  0.00    -0.044 A 
ATOM      7  C   UNL     1       7.784  -0.487  -2.356  1.00  0.00     0.008 A 
ATOM      8  C   UNL     1       7.920  -1.373  -0.143  1.00  0.00     0.054 A 
ATOM      9  C   UNL     1       8.166  -1.725  -2.840  1.00  0.00     0.051 A 
ATOM     10  C   UNL     1       8.307  -2.622  -0.637  1.00  0.00     0.166 A 
ATOM     11  C   UNL     1       8.430  -2.800  -1.997  1.00  0.00     0.165 A 
ATOM     12  O   UNL     1       8.619  -3.819  -0.026  1.00  0.00    -0.454 OA
ATOM     13  O   UNL     1       8.821  -4.115  -2.195  1.00  0.00    -0.454 OA
ATOM     14  C   UNL     1       9.039  -4.771  -0.969  1.00  0.00     0.468 C 
ENDBRANCH   5   6
ENDBRANCH   1   5
TORSDOF 3
ENDMDL
MODEL 3
REMARK VINA RESULT:      -7.2      2.059      2.634
REMARK SMILES CC(=O)CCc1ccc2c(c1)OCO2
REMARK SMILES IDX 4 1 2 2 1 3 3 4 5 5 6 6 7 7 11 8 8 9 10 10 9 11 12 12 14 13
REMARK SMILES IDX 13 14
REMARK H PARENT
REMARK Flexibility Score: inf
ROOT
ATOM      1  C   UNL     1       5.397  -0.070   2.031  1.00  0.00     0.080 C 
ENDROOT
BRANCH   1   2
ATOM      2  C   UNL     1       4.547   1.126   1.773  1.00  0.00     0.130 C 
ATOM      3  C   UNL     1       4.892   2.115   0.717  1.00  0.00     0.087 C 
ATOM      4  O   UNL     1       3.536   1.329   2.425  1.00  0.00    -0.300 OA
ENDBRANCH   1   2
BRANCH   1   5
ATOM      5  C   UNL     1       6.836   0.179   1.624  1.00  0.00     0.043 C 
BRANCH   5   6
ATOM      6  C   UNL     1       7.269  -0.741   0.558  1.00  0.00    -0.044 A 
ATOM      7  C   UNL     1       7.150  -0.403  -0.795  1.00  0.00     0.008 A 
ATOM      8  C   UNL     1       7.807  -1.964   0.889  1.00  0.00     0.054 A 
ATOM      9  C   UNL     1       7.575  -1.307  -1.752  1.00  0.00     0.051 A 
ATOM     10  C   UNL     1       8.235  -2.874  -0.082  1.00  0.00     0.166 A 
ATOM     11  C   UNL     1       8.118  -2.543  -1.414  1.00  0.00     0.165 A 
ATOM     12  O   UNL     1       8.794  -4.132  -0.010  1.00  0.00    -0.454 OA
ATOM     13  O   UNL     1       8.613  -3.615  -2.139  1.00  0.00    -0.454 OA
ATOM     14  C   UNL     1       9.136  -4.607  -1.287  1.00  0.00     0.468 C 
ENDBRANCH   5   6
ENDBRANCH   1   5
TORSDOF 3
ENDMDL
MODEL 4
REMARK VINA RESULT:      -7.0      1.262      1.479
REMARK SMILES CC(=O)CCc1ccc2c(c1)OCO2
REMARK SMILES IDX 4 1 2 2 1 3 3 4 5 5 6 6 7 7 11 8 8 9 10 10 9 11 12 12 14 13
REMARK SMILES IDX 13 14
REMARK H PARENT
REMARK Flexibility Score: inf
ROOT
ATOM      1  C   UNL     1       6.403   1.166   0.957  1.00  0.00     0.080 C 
ENDROOT
BRANCH   1   2
ATOM      2  C   UNL     1       5.643   0.347   1.943  1.00  0.00     0.130 C 
ATOM      3  C   UNL     1       6.215  -0.892   2.535  1.00  0.00     0.087 C 
ATOM      4  O   UNL     1       4.521   0.672   2.295  1.00  0.00    -0.300 OA
ENDBRANCH   1   2
BRANCH   1   5
ATOM      5  C   UNL     1       5.904   0.931  -0.455  1.00  0.00     0.043 C 
BRANCH   5   6
ATOM      6  C   UNL     1       6.837   0.095  -1.232  1.00  0.00    -0.044 A 
ATOM      7  C   UNL     1       7.510   0.595  -2.353  1.00  0.00     0.008 A 
ATOM      8  C   UNL     1       7.062  -1.209  -0.854  1.00  0.00     0.054 A 
ATOM      9  C   UNL     1       8.374  -0.235  -3.042  1.00  0.00     0.051 A 
ATOM     10  C   UNL     1       7.937  -2.045  -1.554  1.00  0.00     0.166 A 
ATOM     11  C   UNL     1       8.598  -1.553  -2.658  1.00  0.00     0.165 A 
ATOM     12  O   UNL     1       8.323  -3.357  -1.382  1.00  0.00    -0.454 OA
ATOM     13  O   UNL     1       9.386  -2.585  -3.145  1.00  0.00    -0.454 OA
ATOM     14  C   UNL     1       9.311  -3.718  -2.313  1.00  0.00     0.468 C 
ENDBRANCH   5   6
ENDBRANCH   1   5
TORSDOF 3
ENDMDL
MODEL 5
REMARK VINA RESULT:      -7.0      1.950      2.533
REMARK SMILES CC(=O)CCc1ccc2c(c1)OCO2
REMARK SMILES IDX 4 1 2 2 1 3 3 4 5 5 6 6 7 7 11 8 8 9 10 10 9 11 12 12 14 13
REMARK SMILES IDX 13 14
REMARK H PARENT
REMARK Flexibility Score: inf
ROOT
ATOM      1  C   UNL     1       6.867   0.859   1.184  1.00  0.00     0.080 C 
ENDROOT
BRANCH   1   2
ATOM      2  C   UNL     1       5.413   1.146   1.333  1.00  0.00     0.130 C 
ATOM      3  C   UNL     1       4.724   2.149   0.478  1.00  0.00     0.087 C 
ATOM      4  O   UNL     1       4.742   0.562   2.168  1.00  0.00    -0.300 OA
ENDBRANCH   1   2
BRANCH   1   5
ATOM      5  C   UNL     1       7.317   1.030  -0.254  1.00  0.00     0.043 C 
BRANCH   5   6
ATOM      6  C   UNL     1       7.681  -0.260  -0.869  1.00  0.00    -0.044 A 
ATOM      7  C   UNL     1       7.785  -0.406  -2.257  1.00  0.00     0.008 A 
ATOM      8  C   UNL     1       7.927  -1.352  -0.069  1.00  0.00     0.054 A 
ATOM      9  C   UNL     1       8.131  -1.640  -2.778  1.00  0.00     0.051 A 
ATOM     10  C   UNL     1       8.277  -2.597  -0.600  1.00  0.00     0.166 A 
ATOM     11  C   UNL     1       8.379  -2.742  -1.966  1.00  0.00     0.165 A 
ATOM     12  O   UNL     1       8.566  -3.816  -0.025  1.00  0.00    -0.454 OA
ATOM     13  O   UNL     1       8.734  -4.061  -2.203  1.00  0.00    -0.454 OA
ATOM     14  C   UNL     1       8.952  -4.754  -0.997  1.00  0.00     0.468 C 
ENDBRANCH   5   6
ENDBRANCH   1   5
TORSDOF 3
ENDMDL
