@<TRIPOS>MOLECULE
/home/cewinharhar/GITHUB/reincatalyze/data/processed/docking_pred/2023-May-30-2130_sub9_nm5_bs15_s42_ex16_mel10_mts10000_k50_ec05_g099_lra3e-4_lrc3e-3/d4292dbdc665c4d20b6271b363b9823f318ec372_ligand_9.pdbqt
 14 15 0 0 0
SMALL
GASTEIGER

@<TRIPOS>ATOM
      1  C          6.4030    1.1660    0.9570 C.3     1  UNL1        0.0800
      2  C          5.6430    0.3470    1.9430 C.2     1  UNL1        0.1300
      3  C          6.2150   -0.8920    2.5350 C.3     1  UNL1        0.0870
      4  O          4.5210    0.6720    2.2950 O.2     1  UNL1       -0.3000
      5  C          5.9040    0.9310   -0.4550 C.3     1  UNL1        0.0430
      6  C          6.8370    0.0950   -1.2320 C.2     1  UNL1       -0.0440
      7  C          7.5100    0.5950   -2.3530 C.2     1  UNL1        0.0080
      8  C          7.0620   -1.2090   -0.8540 C.2     1  UNL1        0.0540
      9  C          8.3740   -0.2350   -3.0420 C.2     1  UNL1        0.0510
     10  C          7.9370   -2.0450   -1.5540 C.2     1  UNL1        0.1660
     11  C          8.5980   -1.5530   -2.6580 C.2     1  UNL1        0.1650
     12  O          8.3230   -3.3570   -1.3820 O.2     1  UNL1       -0.4540
     13  O          9.3860   -2.5850   -3.1450 O.2     1  UNL1       -0.4540
     14  C          9.3110   -3.7180   -2.3130 C.3     1  UNL1        0.4680
@<TRIPOS>BOND
     1    13    11    1
     2    13    14    1
     3     9    11    2
     4     9     7    1
     5    11    10    1
     6     7     6    2
     7    14    12    1
     8    10    12    1
     9    10     8    2
    10     6     8    1
    11     6     5    1
    12     5     1    1
    13     1     2    1
    14     2     4    2
    15     2     3    1
