@<TRIPOS>MOLECULE
/home/cewinharhar/GITHUB/reincatalyze/data/processed/docking_pred/2023-May-30-2130_sub9_nm5_bs15_s42_ex16_mel10_mts10000_k50_ec05_g099_lra3e-4_lrc3e-3/d4292dbdc665c4d20b6271b363b9823f318ec372_ligand_9.pdbqt
 14 15 0 0 0
SMALL
GASTEIGER

@<TRIPOS>ATOM
      1  C          5.7470    1.1340   -0.3430 C.3     1  UNL1        0.0800
      2  C          5.2570    1.1600    1.0640 C.2     1  UNL1        0.1300
      3  C          5.4190   -0.0080    1.9690 C.3     1  UNL1        0.0870
      4  O          4.7030    2.1500    1.5160 O.2     1  UNL1       -0.3000
      5  C          7.2550    0.9870   -0.3970 C.3     1  UNL1        0.0430
      6  C          7.6570   -0.3080   -0.9740 C.2     1  UNL1       -0.0440
      7  C          7.7840   -0.4870   -2.3560 C.2     1  UNL1        0.0080
      8  C          7.9200   -1.3730   -0.1430 C.2     1  UNL1        0.0540
      9  C          8.1660   -1.7250   -2.8400 C.2     1  UNL1        0.0510
     10  C          8.3070   -2.6220   -0.6370 C.2     1  UNL1        0.1660
     11  C          8.4300   -2.8000   -1.9970 C.2     1  UNL1        0.1650
     12  O          8.6190   -3.8190   -0.0260 O.2     1  UNL1       -0.4540
     13  O          8.8210   -4.1150   -2.1950 O.2     1  UNL1       -0.4540
     14  C          9.0390   -4.7710   -0.9690 C.3     1  UNL1        0.4680
@<TRIPOS>BOND
     1     9     7    1
     2     9    11    2
     3     7     6    2
     4    13    11    1
     5    13    14    1
     6    11    10    1
     7     6     5    1
     8     6     8    1
     9    14    12    1
    10    10     8    2
    11    10    12    1
    12     5     1    1
    13     1     2    1
    14     2     4    2
    15     2     3    1
