@<TRIPOS>MOLECULE
/home/cewinharhar/GITHUB/reincatalyze/data/processed/docking_pred/2023-May-30-2130_sub9_nm5_bs15_s42_ex16_mel10_mts10000_k50_ec05_g099_lra3e-4_lrc3e-3/d4292dbdc665c4d20b6271b363b9823f318ec372_ligand_9.pdbqt
 14 15 0 0 0
SMALL
GASTEIGER

@<TRIPOS>ATOM
      1  C          6.8670    0.8590    1.1840 C.3     1  UNL1        0.0800
      2  C          5.4130    1.1460    1.3330 C.2     1  UNL1        0.1300
      3  C          4.7240    2.1490    0.4780 C.3     1  UNL1        0.0870
      4  O          4.7420    0.5620    2.1680 O.2     1  UNL1       -0.3000
      5  C          7.3170    1.0300   -0.2540 C.3     1  UNL1        0.0430
      6  C          7.6810   -0.2600   -0.8690 C.2     1  UNL1       -0.0440
      7  C          7.7850   -0.4060   -2.2570 C.2     1  UNL1        0.0080
      8  C          7.9270   -1.3520   -0.0690 C.2     1  UNL1        0.0540
      9  C          8.1310   -1.6400   -2.7780 C.2     1  UNL1        0.0510
     10  C          8.2770   -2.5970   -0.6000 C.2     1  UNL1        0.1660
     11  C          8.3790   -2.7420   -1.9660 C.2     1  UNL1        0.1650
     12  O          8.5660   -3.8160   -0.0250 O.2     1  UNL1       -0.4540
     13  O          8.7340   -4.0610   -2.2030 O.2     1  UNL1       -0.4540
     14  C          8.9520   -4.7540   -0.9970 C.3     1  UNL1        0.4680
@<TRIPOS>BOND
     1     9     7    1
     2     9    11    2
     3     7     6    2
     4    13    11    1
     5    13    14    1
     6    11    10    1
     7    14    12    1
     8     6     5    1
     9     6     8    1
    10    10     8    2
    11    10    12    1
    12     5     1    1
    13     3     2    1
    14     1     2    1
    15     2     4    2
