@<TRIPOS>MOLECULE
/home/cewinharhar/GITHUB/reincatalyze/data/processed/docking_pred/2023-May-30-2130_sub9_nm5_bs15_s42_ex16_mel10_mts10000_k50_ec05_g099_lra3e-4_lrc3e-3/d475abeaf77d1f7cad9c775310647ad941a1fd31_ligand_9.pdbqt
 14 15 0 0 0
SMALL
GASTEIGER

@<TRIPOS>ATOM
      1  C          5.7120    1.3050   -0.2930 C.3     1  UNL1        0.0800
      2  C          5.1290    1.2430    1.0760 C.2     1  UNL1        0.1300
      3  C          5.3710    0.0850    1.9770 C.3     1  UNL1        0.0870
      4  O          4.4300    2.1490    1.5010 O.2     1  UNL1       -0.3000
      5  C          7.2140    1.1000   -0.2610 C.3     1  UNL1        0.0430
      6  C          7.6040   -0.1850   -0.8690 C.2     1  UNL1       -0.0440
      7  C          7.6970   -0.3400   -2.2570 C.2     1  UNL1        0.0080
      8  C          7.8870   -1.2630   -0.0620 C.2     1  UNL1        0.0540
      9  C          8.0680   -1.5690   -2.7710 C.2     1  UNL1        0.0510
     10  C          8.2630   -2.5030   -0.5870 C.2     1  UNL1        0.1660
     11  C          8.3540   -2.6580   -1.9520 C.2     1  UNL1        0.1650
     12  O          8.5900   -3.7100   -0.0050 O.2     1  UNL1       -0.4540
     13  O          8.7400   -3.9690   -2.1830 O.2     1  UNL1       -0.4540
     14  C          8.9890   -4.6450   -0.9730 C.3     1  UNL1        0.4680
@<TRIPOS>BOND
     1     9     7    1
     2     9    11    2
     3     7     6    2
     4    13    11    1
     5    13    14    1
     6    11    10    1
     7    14    12    1
     8     6     5    1
     9     6     8    1
    10    10     8    2
    11    10    12    1
    12     1     5    1
    13     1     2    1
    14     2     4    2
    15     2     3    1
