@<TRIPOS>MOLECULE
/home/cewinharhar/GITHUB/reincatalyze/data/processed/docking_pred/2023-May-30-2130_sub9_nm5_bs15_s42_ex16_mel10_mts10000_k50_ec05_g099_lra3e-4_lrc3e-3/d475abeaf77d1f7cad9c775310647ad941a1fd31_ligand_9.pdbqt
 14 15 0 0 0
SMALL
GASTEIGER

@<TRIPOS>ATOM
      1  C          8.3780    0.2080   -2.5700 C.3     1  UNL1        0.0800
      2  C          8.0680   -1.2400   -2.7290 C.2     1  UNL1        0.1300
      3  C          9.1260   -2.2350   -3.0470 C.3     1  UNL1        0.0870
      4  O          6.9270   -1.6540   -2.6020 O.2     1  UNL1       -0.3000
      5  C          8.8880    0.5120   -1.1750 C.3     1  UNL1        0.0430
      6  C          7.8230    0.3850   -0.1640 C.2     1  UNL1       -0.0440
      7  C          7.8810   -0.5840    0.8440 C.2     1  UNL1        0.0080
      8  C          6.7420    1.2360   -0.2020 C.2     1  UNL1        0.0540
      9  C          6.8520   -0.6560    1.7660 C.2     1  UNL1        0.0510
     10  C          5.7050    1.1600    0.7330 C.2     1  UNL1        0.1660
     11  C          5.7610    0.2060    1.7240 C.2     1  UNL1        0.1650
     12  O          4.5410    1.8790    0.9050 O.2     1  UNL1       -0.4540
     13  O          4.6180    0.3610    2.4940 O.2     1  UNL1       -0.4540
     14  C          3.8630    1.4680    2.0650 C.3     1  UNL1        0.4680
@<TRIPOS>BOND
     1     3     2    1
     2     2     4    2
     3     2     1    1
     4     1     5    1
     5     5     6    1
     6     8     6    2
     7     8    10    1
     8     6     7    1
     9    10    12    1
    10    10    11    2
    11     7     9    2
    12    12    14    1
    13    11     9    1
    14    11    13    1
    15    14    13    1
