@<TRIPOS>MOLECULE
/home/cewinharhar/GITHUB/reincatalyze/data/processed/docking_pred/2023-May-30-2130_sub9_nm5_bs15_s42_ex16_mel10_mts10000_k50_ec05_g099_lra3e-4_lrc3e-3/d475abeaf77d1f7cad9c775310647ad941a1fd31_ligand_9.pdbqt
 14 15 0 0 0
SMALL
GASTEIGER

@<TRIPOS>ATOM
      1  C          6.3850    1.1960    0.9360 C.3     1  UNL1        0.0800
      2  C          5.6550    0.3840    1.9490 C.2     1  UNL1        0.1300
      3  C          6.2480   -0.8480    2.5360 C.3     1  UNL1        0.0870
      4  O          4.5410    0.7080    2.3290 O.2     1  UNL1       -0.3000
      5  C          5.8720    0.9210   -0.4630 C.3     1  UNL1        0.0430
      6  C          6.8170    0.0970   -1.2390 C.2     1  UNL1       -0.0440
      7  C          7.4970    0.6110   -2.3490 C.2     1  UNL1        0.0080
      8  C          7.0460   -1.2090   -0.8690 C.2     1  UNL1        0.0540
      9  C          8.3720   -0.2090   -3.0380 C.2     1  UNL1        0.0510
     10  C          7.9330   -2.0330   -1.5690 C.2     1  UNL1        0.1660
     11  C          8.6010   -1.5290   -2.6620 C.2     1  UNL1        0.1650
     12  O          8.3260   -3.3440   -1.4040 O.2     1  UNL1       -0.4540
     13  O          9.3990   -2.5510   -3.1510 O.2     1  UNL1       -0.4540
     14  C          9.3240   -3.6920   -2.3290 C.3     1  UNL1        0.4680
@<TRIPOS>BOND
     1    13    11    1
     2    13    14    1
     3     9    11    2
     4     9     7    1
     5    11    10    1
     6     7     6    2
     7    14    12    1
     8    10    12    1
     9    10     8    2
    10     6     8    1
    11     6     5    1
    12     5     1    1
    13     1     2    1
    14     2     4    2
    15     2     3    1
