@<TRIPOS>MOLECULE
/home/cewinharhar/GITHUB/reincatalyze/data/processed/docking_pred/2023-May-30-2130_sub9_nm5_bs15_s42_ex16_mel10_mts10000_k50_ec05_g099_lra3e-4_lrc3e-3/d475abeaf77d1f7cad9c775310647ad941a1fd31_ligand_9.pdbqt
 14 15 0 0 0
SMALL
GASTEIGER

@<TRIPOS>ATOM
      1  C          5.4000   -0.0720    1.9990 C.3     1  UNL1        0.0800
      2  C          4.5730    1.1450    1.7670 C.2     1  UNL1        0.1300
      3  C          4.9140    2.1300    0.7070 C.3     1  UNL1        0.0870
      4  O          3.5850    1.3690    2.4470 O.2     1  UNL1       -0.3000
      5  C          6.8450    0.1610    1.6040 C.3     1  UNL1        0.0430
      6  C          7.2740   -0.7570    0.5330 C.2     1  UNL1       -0.0440
      7  C          7.1440   -0.4170   -0.8190 C.2     1  UNL1        0.0080
      8  C          7.8180   -1.9780    0.8580 C.2     1  UNL1        0.0540
      9  C          7.5640   -1.3180   -1.7800 C.2     1  UNL1        0.0510
     10  C          8.2420   -2.8850   -0.1180 C.2     1  UNL1        0.1660
     11  C          8.1140   -2.5530   -1.4480 C.2     1  UNL1        0.1650
     12  O          8.8050   -4.1420   -0.0510 O.2     1  UNL1       -0.4540
     13  O          8.6070   -3.6230   -2.1780 O.2     1  UNL1       -0.4540
     14  C          9.1390   -4.6130   -1.3310 C.3     1  UNL1        0.4680
@<TRIPOS>BOND
     1    13    11    1
     2    13    14    1
     3     9    11    2
     4     9     7    1
     5    11    10    1
     6    14    12    1
     7     7     6    2
     8    10    12    1
     9    10     8    2
    10     6     8    1
    11     6     5    1
    12     3     2    1
    13     5     1    1
    14     2     1    1
    15     2     4    2
