MODEL 1
REMARK VINA RESULT:      -7.6      0.000      0.000
REMARK SMILES CC(=O)CCc1ccc2c(c1)OCO2
REMARK SMILES IDX 4 1 2 2 1 3 3 4 5 5 6 6 7 7 11 8 8 9 10 10 9 11 12 12 14 13
REMARK SMILES IDX 13 14
REMARK H PARENT
REMARK Flexibility Score: inf
ROOT
ATOM      1  C   UNL     1       5.559   1.917   1.280  1.00  0.00     0.080 C 
ENDROOT
BRANCH   1   2
ATOM      2  C   UNL     1       5.127   0.698   2.020  1.00  0.00     0.130 C 
ATOM      3  C   UNL     1       6.032  -0.468   2.200  1.00  0.00     0.087 C 
ATOM      4  O   UNL     1       4.008   0.622   2.502  1.00  0.00    -0.300 OA
ENDBRANCH   1   2
BRANCH   1   5
ATOM      5  C   UNL     1       5.423   1.729  -0.218  1.00  0.00     0.043 C 
BRANCH   5   6
ATOM      6  C   UNL     1       6.586   1.026  -0.787  1.00  0.00    -0.044 A 
ATOM      7  C   UNL     1       7.896   1.455  -0.540  1.00  0.00     0.008 A 
ATOM      8  C   UNL     1       6.393  -0.082  -1.581  1.00  0.00     0.054 A 
ATOM      9  C   UNL     1       8.948   0.755  -1.101  1.00  0.00     0.051 A 
ATOM     10  C   UNL     1       7.460  -0.786  -2.145  1.00  0.00     0.166 A 
ATOM     11  C   UNL     1       8.749  -0.364  -1.904  1.00  0.00     0.165 A 
ATOM     12  O   UNL     1       7.528  -1.899  -2.957  1.00  0.00    -0.454 OA
ATOM     13  O   UNL     1       9.589  -1.236  -2.578  1.00  0.00    -0.454 OA
ATOM     14  C   UNL     1       8.861  -2.277  -3.184  1.00  0.00     0.468 C 
ENDBRANCH   5   6
ENDBRANCH   1   5
TORSDOF 3
ENDMDL
MODEL 2
REMARK VINA RESULT:      -7.5      1.923      2.376
REMARK SMILES CC(=O)CCc1ccc2c(c1)OCO2
REMARK SMILES IDX 4 1 2 2 1 3 3 4 5 5 6 6 7 7 11 8 8 9 10 10 9 11 12 12 14 13
REMARK SMILES IDX 13 14
REMARK H PARENT
REMARK Flexibility Score: inf
ROOT
ATOM      1  C   UNL     1       5.712   1.305  -0.293  1.00  0.00     0.080 C 
ENDROOT
BRANCH   1   2
ATOM      2  C   UNL     1       5.129   1.243   1.076  1.00  0.00     0.130 C 
ATOM      3  C   UNL     1       5.371   0.085   1.977  1.00  0.00     0.087 C 
ATOM      4  O   UNL     1       4.430   2.149   1.501  1.00  0.00    -0.300 OA
ENDBRANCH   1   2
BRANCH   1   5
ATOM      5  C   UNL     1       7.214   1.100  -0.261  1.00  0.00     0.043 C 
BRANCH   5   6
ATOM      6  C   UNL     1       7.604  -0.185  -0.869  1.00  0.00    -0.044 A 
ATOM      7  C   UNL     1       7.697  -0.340  -2.257  1.00  0.00     0.008 A 
ATOM      8  C   UNL     1       7.887  -1.263  -0.062  1.00  0.00     0.054 A 
ATOM      9  C   UNL     1       8.068  -1.569  -2.771  1.00  0.00     0.051 A 
ATOM     10  C   UNL     1       8.263  -2.503  -0.587  1.00  0.00     0.166 A 
ATOM     11  C   UNL     1       8.354  -2.658  -1.952  1.00  0.00     0.165 A 
ATOM     12  O   UNL     1       8.590  -3.710  -0.005  1.00  0.00    -0.454 OA
ATOM     13  O   UNL     1       8.740  -3.969  -2.183  1.00  0.00    -0.454 OA
ATOM     14  C   UNL     1       8.989  -4.645  -0.973  1.00  0.00     0.468 C 
ENDBRANCH   5   6
ENDBRANCH   1   5
TORSDOF 3
ENDMDL
MODEL 3
REMARK VINA RESULT:      -7.2      2.054      2.633
REMARK SMILES CC(=O)CCc1ccc2c(c1)OCO2
REMARK SMILES IDX 4 1 2 2 1 3 3 4 5 5 6 6 7 7 11 8 8 9 10 10 9 11 12 12 14 13
REMARK SMILES IDX 13 14
REMARK H PARENT
REMARK Flexibility Score: inf
ROOT
ATOM      1  C   UNL     1       5.400  -0.072   1.999  1.00  0.00     0.080 C 
ENDROOT
BRANCH   1   2
ATOM      2  C   UNL     1       4.573   1.145   1.767  1.00  0.00     0.130 C 
ATOM      3  C   UNL     1       4.914   2.130   0.707  1.00  0.00     0.087 C 
ATOM      4  O   UNL     1       3.585   1.369   2.447  1.00  0.00    -0.300 OA
ENDBRANCH   1   2
BRANCH   1   5
ATOM      5  C   UNL     1       6.845   0.161   1.604  1.00  0.00     0.043 C 
BRANCH   5   6
ATOM      6  C   UNL     1       7.274  -0.757   0.533  1.00  0.00    -0.044 A 
ATOM      7  C   UNL     1       7.144  -0.417  -0.819  1.00  0.00     0.008 A 
ATOM      8  C   UNL     1       7.818  -1.978   0.858  1.00  0.00     0.054 A 
ATOM      9  C   UNL     1       7.564  -1.318  -1.780  1.00  0.00     0.051 A 
ATOM     10  C   UNL     1       8.242  -2.885  -0.118  1.00  0.00     0.166 A 
ATOM     11  C   UNL     1       8.114  -2.553  -1.448  1.00  0.00     0.165 A 
ATOM     12  O   UNL     1       8.805  -4.142  -0.051  1.00  0.00    -0.454 OA
ATOM     13  O   UNL     1       8.607  -3.623  -2.178  1.00  0.00    -0.454 OA
ATOM     14  C   UNL     1       9.139  -4.613  -1.331  1.00  0.00     0.468 C 
ENDBRANCH   5   6
ENDBRANCH   1   5
TORSDOF 3
ENDMDL
MODEL 4
REMARK VINA RESULT:      -7.1      1.251      1.463
REMARK SMILES CC(=O)CCc1ccc2c(c1)OCO2
REMARK SMILES IDX 4 1 2 2 1 3 3 4 5 5 6 6 7 7 11 8 8 9 10 10 9 11 12 12 14 13
REMARK SMILES IDX 13 14
REMARK H PARENT
REMARK Flexibility Score: inf
ROOT
ATOM      1  C   UNL     1       6.385   1.196   0.936  1.00  0.00     0.080 C 
ENDROOT
BRANCH   1   2
ATOM      2  C   UNL     1       5.655   0.384   1.949  1.00  0.00     0.130 C 
ATOM      3  C   UNL     1       6.248  -0.848   2.536  1.00  0.00     0.087 C 
ATOM      4  O   UNL     1       4.541   0.708   2.329  1.00  0.00    -0.300 OA
ENDBRANCH   1   2
BRANCH   1   5
ATOM      5  C   UNL     1       5.872   0.921  -0.463  1.00  0.00     0.043 C 
BRANCH   5   6
ATOM      6  C   UNL     1       6.817   0.097  -1.239  1.00  0.00    -0.044 A 
ATOM      7  C   UNL     1       7.497   0.611  -2.349  1.00  0.00     0.008 A 
ATOM      8  C   UNL     1       7.046  -1.209  -0.869  1.00  0.00     0.054 A 
ATOM      9  C   UNL     1       8.372  -0.209  -3.038  1.00  0.00     0.051 A 
ATOM     10  C   UNL     1       7.933  -2.033  -1.569  1.00  0.00     0.166 A 
ATOM     11  C   UNL     1       8.601  -1.529  -2.662  1.00  0.00     0.165 A 
ATOM     12  O   UNL     1       8.326  -3.344  -1.404  1.00  0.00    -0.454 OA
ATOM     13  O   UNL     1       9.399  -2.551  -3.151  1.00  0.00    -0.454 OA
ATOM     14  C   UNL     1       9.324  -3.692  -2.329  1.00  0.00     0.468 C 
ENDBRANCH   5   6
ENDBRANCH   1   5
TORSDOF 3
ENDMDL
MODEL 5
REMARK VINA RESULT:      -6.8      1.177      5.190
REMARK SMILES CC(=O)CCc1ccc2c(c1)OCO2
REMARK SMILES IDX 4 1 2 2 1 3 3 4 5 5 6 6 7 7 11 8 8 9 10 10 9 11 12 12 14 13
REMARK SMILES IDX 13 14
REMARK H PARENT
REMARK Flexibility Score: inf
ROOT
ATOM      1  C   UNL     1       8.378   0.208  -2.570  1.00  0.00     0.080 C 
ENDROOT
BRANCH   1   2
ATOM      2  C   UNL     1       8.068  -1.240  -2.729  1.00  0.00     0.130 C 
ATOM      3  C   UNL     1       9.126  -2.235  -3.047  1.00  0.00     0.087 C 
ATOM      4  O   UNL     1       6.927  -1.654  -2.602  1.00  0.00    -0.300 OA
ENDBRANCH   1   2
BRANCH   1   5
ATOM      5  C   UNL     1       8.888   0.512  -1.175  1.00  0.00     0.043 C 
BRANCH   5   6
ATOM      6  C   UNL     1       7.823   0.385  -0.164  1.00  0.00    -0.044 A 
ATOM      7  C   UNL     1       7.881  -0.584   0.844  1.00  0.00     0.008 A 
ATOM      8  C   UNL     1       6.742   1.236  -0.202  1.00  0.00     0.054 A 
ATOM      9  C   UNL     1       6.852  -0.656   1.766  1.00  0.00     0.051 A 
ATOM     10  C   UNL     1       5.705   1.160   0.733  1.00  0.00     0.166 A 
ATOM     11  C   UNL     1       5.761   0.206   1.724  1.00  0.00     0.165 A 
ATOM     12  O   UNL     1       4.541   1.879   0.905  1.00  0.00    -0.454 OA
ATOM     13  O   UNL     1       4.618   0.361   2.494  1.00  0.00    -0.454 OA
ATOM     14  C   UNL     1       3.863   1.468   2.065  1.00  0.00     0.468 C 
ENDBRANCH   5   6
ENDBRANCH   1   5
TORSDOF 3
ENDMDL
