@<TRIPOS>MOLECULE
/home/cewinharhar/GITHUB/reincatalyze/data/processed/docking_pred/2023-May-30-2130_sub9_nm5_bs15_s42_ex16_mel10_mts10000_k50_ec05_g099_lra3e-4_lrc3e-3/d558da89fa5d1abbf5476966f73640f3ea5cb98d_ligand_9.pdbqt
 14 15 0 0 0
SMALL
GASTEIGER

@<TRIPOS>ATOM
      1  C          5.4710    1.9160    1.2560 C.3     1  UNL1        0.0800
      2  C          4.9750    0.7150    1.9850 C.2     1  UNL1        0.1300
      3  C          5.7680   -0.5420    2.0470 C.3     1  UNL1        0.0870
      4  O          3.8960    0.7280    2.5550 O.2     1  UNL1       -0.3000
      5  C          5.3610    1.7330   -0.2450 C.3     1  UNL1        0.0430
      6  C          6.5380    1.0390   -0.7980 C.2     1  UNL1       -0.0440
      7  C          7.8400    1.4740   -0.5270 C.2     1  UNL1        0.0080
      8  C          6.3630   -0.0660   -1.5990 C.2     1  UNL1        0.0540
      9  C          8.9060    0.7830   -1.0730 C.2     1  UNL1        0.0510
     10  C          7.4440   -0.7620   -2.1480 C.2     1  UNL1        0.1660
     11  C          8.7260   -0.3340   -1.8830 C.2     1  UNL1        0.1650
     12  O          7.5320   -1.8710   -2.9630 O.2     1  UNL1       -0.4540
     13  O          9.5830   -1.1990   -2.5470 O.2     1  UNL1       -0.4540
     14  C          8.8710   -2.2410   -3.1690 C.3     1  UNL1        0.4680
@<TRIPOS>BOND
     1    14    12    1
     2    14    13    1
     3    12    10    1
     4    13    11    1
     5    10    11    2
     6    10     8    1
     7    11     9    1
     8     8     6    2
     9     9     7    2
    10     6     7    1
    11     6     5    1
    12     5     1    1
    13     1     2    1
    14     2     3    1
    15     2     4    2
