@<TRIPOS>MOLECULE
/home/cewinharhar/GITHUB/reincatalyze/data/processed/docking_pred/2023-May-30-2130_sub9_nm5_bs15_s42_ex16_mel10_mts10000_k50_ec05_g099_lra3e-4_lrc3e-3/d558da89fa5d1abbf5476966f73640f3ea5cb98d_ligand_9.pdbqt
 14 15 0 0 0
SMALL
GASTEIGER

@<TRIPOS>ATOM
      1  C          5.4890   -0.3370    1.9270 C.3     1  UNL1        0.0800
      2  C          5.2940    0.9530    1.2080 C.2     1  UNL1        0.1300
      3  C          6.0180    1.2620   -0.0540 C.3     1  UNL1        0.0870
      4  O          4.5280    1.8010    1.6380 O.2     1  UNL1       -0.3000
      5  C          6.5180   -1.2050    1.2300 C.3     1  UNL1        0.0430
      6  C          7.6320   -1.5590    2.1270 C.2     1  UNL1       -0.0440
      7  C          7.6340   -1.1850    3.4760 C.2     1  UNL1        0.0080
      8  C          8.7000   -2.2760    1.6390 C.2     1  UNL1        0.0540
      9  C          8.7070   -1.5450    4.2710 C.2     1  UNL1        0.0510
     10  C          9.7820   -2.6390    2.4460 C.2     1  UNL1        0.1660
     11  C          9.7860   -2.2700    3.7730 C.2     1  UNL1        0.1650
     12  O         10.9440   -3.3390    2.2010 O.2     1  UNL1       -0.4540
     13  O         10.9620   -2.7570    4.3210 O.2     1  UNL1       -0.4540
     14  C         11.6830   -3.5190    3.3820 C.3     1  UNL1        0.4680
@<TRIPOS>BOND
     1     3     2    1
     2     2     4    2
     3     2     1    1
     4     5     1    1
     5     5     6    1
     6     8     6    2
     7     8    10    1
     8     6     7    1
     9    12    10    1
    10    12    14    1
    11    10    11    2
    12    14    13    1
    13     7     9    2
    14    11     9    1
    15    11    13    1
