MODEL 1
REMARK VINA RESULT:      -7.5      0.000      0.000
REMARK SMILES CC(=O)CCc1ccc2c(c1)OCO2
REMARK SMILES IDX 4 1 2 2 1 3 3 4 5 5 6 6 7 7 11 8 8 9 10 10 9 11 12 12 14 13
REMARK SMILES IDX 13 14
REMARK H PARENT
REMARK Flexibility Score: inf
ROOT
ATOM      1  C   UNL     1       5.489  -0.337   1.927  1.00  0.00     0.080 C 
ENDROOT
BRANCH   1   2
ATOM      2  C   UNL     1       5.294   0.953   1.208  1.00  0.00     0.130 C 
ATOM      3  C   UNL     1       6.018   1.262  -0.054  1.00  0.00     0.087 C 
ATOM      4  O   UNL     1       4.528   1.801   1.638  1.00  0.00    -0.300 OA
ENDBRANCH   1   2
BRANCH   1   5
ATOM      5  C   UNL     1       6.518  -1.205   1.230  1.00  0.00     0.043 C 
BRANCH   5   6
ATOM      6  C   UNL     1       7.632  -1.559   2.127  1.00  0.00    -0.044 A 
ATOM      7  C   UNL     1       7.634  -1.185   3.476  1.00  0.00     0.008 A 
ATOM      8  C   UNL     1       8.700  -2.276   1.639  1.00  0.00     0.054 A 
ATOM      9  C   UNL     1       8.707  -1.545   4.271  1.00  0.00     0.051 A 
ATOM     10  C   UNL     1       9.782  -2.639   2.446  1.00  0.00     0.166 A 
ATOM     11  C   UNL     1       9.786  -2.270   3.773  1.00  0.00     0.165 A 
ATOM     12  O   UNL     1      10.944  -3.339   2.201  1.00  0.00    -0.454 OA
ATOM     13  O   UNL     1      10.962  -2.757   4.321  1.00  0.00    -0.454 OA
ATOM     14  C   UNL     1      11.683  -3.519   3.382  1.00  0.00     0.468 C 
ENDBRANCH   5   6
ENDBRANCH   1   5
TORSDOF 3
ENDMDL
MODEL 2
REMARK VINA RESULT:      -7.3      3.885      4.887
REMARK SMILES CC(=O)CCc1ccc2c(c1)OCO2
REMARK SMILES IDX 4 1 2 2 1 3 3 4 5 5 6 6 7 7 11 8 8 9 10 10 9 11 12 12 14 13
REMARK SMILES IDX 13 14
REMARK H PARENT
REMARK Flexibility Score: inf
ROOT
ATOM      1  C   UNL     1       5.471   1.916   1.256  1.00  0.00     0.080 C 
ENDROOT
BRANCH   1   2
ATOM      2  C   UNL     1       4.975   0.715   1.985  1.00  0.00     0.130 C 
ATOM      3  C   UNL     1       5.768  -0.542   2.047  1.00  0.00     0.087 C 
ATOM      4  O   UNL     1       3.896   0.728   2.555  1.00  0.00    -0.300 OA
ENDBRANCH   1   2
BRANCH   1   5
ATOM      5  C   UNL     1       5.361   1.733  -0.245  1.00  0.00     0.043 C 
BRANCH   5   6
ATOM      6  C   UNL     1       6.538   1.039  -0.798  1.00  0.00    -0.044 A 
ATOM      7  C   UNL     1       7.840   1.474  -0.527  1.00  0.00     0.008 A 
ATOM      8  C   UNL     1       6.363  -0.066  -1.599  1.00  0.00     0.054 A 
ATOM      9  C   UNL     1       8.906   0.783  -1.073  1.00  0.00     0.051 A 
ATOM     10  C   UNL     1       7.444  -0.762  -2.148  1.00  0.00     0.166 A 
ATOM     11  C   UNL     1       8.726  -0.334  -1.883  1.00  0.00     0.165 A 
ATOM     12  O   UNL     1       7.532  -1.871  -2.963  1.00  0.00    -0.454 OA
ATOM     13  O   UNL     1       9.583  -1.199  -2.547  1.00  0.00    -0.454 OA
ATOM     14  C   UNL     1       8.871  -2.241  -3.169  1.00  0.00     0.468 C 
ENDBRANCH   5   6
ENDBRANCH   1   5
TORSDOF 3
ENDMDL
MODEL 3
REMARK VINA RESULT:      -7.1      1.046      1.093
REMARK SMILES CC(=O)CCc1ccc2c(c1)OCO2
REMARK SMILES IDX 4 1 2 2 1 3 3 4 5 5 6 6 7 7 11 8 8 9 10 10 9 11 12 12 14 13
REMARK SMILES IDX 13 14
REMARK H PARENT
REMARK Flexibility Score: inf
ROOT
ATOM      1  C   UNL     1       6.407   0.472   1.527  1.00  0.00     0.080 C 
ENDROOT
BRANCH   1   2
ATOM      2  C   UNL     1       5.975   0.916   0.172  1.00  0.00     0.130 C 
ATOM      3  C   UNL     1       5.168   2.150  -0.025  1.00  0.00     0.087 C 
ATOM      4  O   UNL     1       6.272   0.274  -0.822  1.00  0.00    -0.300 OA
ENDBRANCH   1   2
BRANCH   1   5
ATOM      5  C   UNL     1       6.490  -1.039   1.611  1.00  0.00     0.043 C 
BRANCH   5   6
ATOM      6  C   UNL     1       7.657  -1.479   2.396  1.00  0.00    -0.044 A 
ATOM      7  C   UNL     1       7.779  -1.179   3.758  1.00  0.00     0.008 A 
ATOM      8  C   UNL     1       8.654  -2.206   1.787  1.00  0.00     0.054 A 
ATOM      9  C   UNL     1       8.896  -1.620   4.444  1.00  0.00     0.051 A 
ATOM     10  C   UNL     1       9.781  -2.650   2.486  1.00  0.00     0.166 A 
ATOM     11  C   UNL     1       9.903  -2.354   3.825  1.00  0.00     0.165 A 
ATOM     12  O   UNL     1      10.893  -3.376   2.113  1.00  0.00    -0.454 OA
ATOM     13  O   UNL     1      11.099  -2.910   4.252  1.00  0.00    -0.454 OA
ATOM     14  C   UNL     1      11.714  -3.645   3.220  1.00  0.00     0.468 C 
ENDBRANCH   5   6
ENDBRANCH   1   5
TORSDOF 3
ENDMDL
MODEL 4
REMARK VINA RESULT:      -7.1      3.121      4.279
REMARK SMILES CC(=O)CCc1ccc2c(c1)OCO2
REMARK SMILES IDX 4 1 2 2 1 3 3 4 5 5 6 6 7 7 11 8 8 9 10 10 9 11 12 12 14 13
REMARK SMILES IDX 13 14
REMARK H PARENT
REMARK Flexibility Score: inf
ROOT
ATOM      1  C   UNL     1       5.718   1.404  -0.299  1.00  0.00     0.080 C 
ENDROOT
BRANCH   1   2
ATOM      2  C   UNL     1       5.149   1.291   1.073  1.00  0.00     0.130 C 
ATOM      3  C   UNL     1       5.461   0.134   1.954  1.00  0.00     0.087 C 
ATOM      4  O   UNL     1       4.404   2.150   1.515  1.00  0.00    -0.300 OA
ENDBRANCH   1   2
BRANCH   1   5
ATOM      5  C   UNL     1       7.220   1.198  -0.291  1.00  0.00     0.043 C 
BRANCH   5   6
ATOM      6  C   UNL     1       7.597  -0.095  -0.889  1.00  0.00    -0.044 A 
ATOM      7  C   UNL     1       7.692  -0.261  -2.276  1.00  0.00     0.008 A 
ATOM      8  C   UNL     1       7.867  -1.171  -0.075  1.00  0.00     0.054 A 
ATOM      9  C   UNL     1       8.051  -1.497  -2.781  1.00  0.00     0.051 A 
ATOM     10  C   UNL     1       8.230  -2.419  -0.590  1.00  0.00     0.166 A 
ATOM     11  C   UNL     1       8.323  -2.583  -1.954  1.00  0.00     0.165 A 
ATOM     12  O   UNL     1       8.543  -3.625   0.001  1.00  0.00    -0.454 OA
ATOM     13  O   UNL     1       8.695  -3.900  -2.175  1.00  0.00    -0.454 OA
ATOM     14  C   UNL     1       8.934  -4.571  -0.960  1.00  0.00     0.468 C 
ENDBRANCH   5   6
ENDBRANCH   1   5
TORSDOF 3
ENDMDL
MODEL 5
REMARK VINA RESULT:      -7.1      0.971      1.930
REMARK SMILES CC(=O)CCc1ccc2c(c1)OCO2
REMARK SMILES IDX 4 1 2 2 1 3 3 4 5 5 6 6 7 7 11 8 8 9 10 10 9 11 12 12 14 13
REMARK SMILES IDX 13 14
REMARK H PARENT
REMARK Flexibility Score: inf
ROOT
ATOM      1  C   UNL     1       5.390  -0.086   1.957  1.00  0.00     0.080 C 
ENDROOT
BRANCH   1   2
ATOM      2  C   UNL     1       5.337   1.103   1.061  1.00  0.00     0.130 C 
ATOM      3  C   UNL     1       5.890   1.067  -0.319  1.00  0.00     0.087 C 
ATOM      4  O   UNL     1       4.835   2.150   1.438  1.00  0.00    -0.300 OA
ENDBRANCH   1   2
BRANCH   1   5
ATOM      5  C   UNL     1       6.126  -1.237   1.300  1.00  0.00     0.043 C 
BRANCH   5   6
ATOM      6  C   UNL     1       7.377  -1.560   2.010  1.00  0.00    -0.044 A 
ATOM      7  C   UNL     1       8.400  -2.292   1.395  1.00  0.00     0.008 A 
ATOM      8  C   UNL     1       7.555  -1.136   3.307  1.00  0.00     0.054 A 
ATOM      9  C   UNL     1       9.552  -2.565   2.110  1.00  0.00     0.051 A 
ATOM     10  C   UNL     1       8.722  -1.414   4.025  1.00  0.00     0.166 A 
ATOM     11  C   UNL     1       9.729  -2.135   3.422  1.00  0.00     0.165 A 
ATOM     12  O   UNL     1       9.133  -1.109   5.305  1.00  0.00    -0.454 OA
ATOM     13  O   UNL     1      10.747  -2.258   4.353  1.00  0.00    -0.454 OA
ATOM     14  C   UNL     1      10.449  -1.545   5.530  1.00  0.00     0.468 C 
ENDBRANCH   5   6
ENDBRANCH   1   5
TORSDOF 3
ENDMDL
