@<TRIPOS>MOLECULE
/home/cewinharhar/GITHUB/reincatalyze/data/processed/docking_pred/2023-May-30-2130_sub9_nm5_bs15_s42_ex16_mel10_mts10000_k50_ec05_g099_lra3e-4_lrc3e-3/d558da89fa5d1abbf5476966f73640f3ea5cb98d_ligand_9.pdbqt
 14 15 0 0 0
SMALL
GASTEIGER

@<TRIPOS>ATOM
      1  C          5.3900   -0.0860    1.9570 C.3     1  UNL1        0.0800
      2  C          5.3370    1.1030    1.0610 C.2     1  UNL1        0.1300
      3  C          5.8900    1.0670   -0.3190 C.3     1  UNL1        0.0870
      4  O          4.8350    2.1500    1.4380 O.2     1  UNL1       -0.3000
      5  C          6.1260   -1.2370    1.3000 C.3     1  UNL1        0.0430
      6  C          7.3770   -1.5600    2.0100 C.2     1  UNL1       -0.0440
      7  C          8.4000   -2.2920    1.3950 C.2     1  UNL1        0.0080
      8  C          7.5550   -1.1360    3.3070 C.2     1  UNL1        0.0540
      9  C          9.5520   -2.5650    2.1100 C.2     1  UNL1        0.0510
     10  C          8.7220   -1.4140    4.0250 C.2     1  UNL1        0.1660
     11  C          9.7290   -2.1350    3.4220 C.2     1  UNL1        0.1650
     12  O          9.1330   -1.1090    5.3050 O.2     1  UNL1       -0.4540
     13  O         10.7470   -2.2580    4.3530 O.2     1  UNL1       -0.4540
     14  C         10.4490   -1.5450    5.5300 C.3     1  UNL1        0.4680
@<TRIPOS>BOND
     1     3     2    1
     2     2     4    2
     3     2     1    1
     4     5     1    1
     5     5     6    1
     6     7     6    2
     7     7     9    1
     8     6     8    1
     9     9    11    2
    10     8    10    2
    11    11    10    1
    12    11    13    1
    13    10    12    1
    14    13    14    1
    15    12    14    1
