@<TRIPOS>MOLECULE
/home/cewinharhar/GITHUB/reincatalyze/data/processed/docking_pred/2023-May-30-2130_sub9_nm5_bs15_s42_ex16_mel10_mts10000_k50_ec05_g099_lra3e-4_lrc3e-3/d558da89fa5d1abbf5476966f73640f3ea5cb98d_ligand_9.pdbqt
 14 15 0 0 0
SMALL
GASTEIGER

@<TRIPOS>ATOM
      1  C          5.7180    1.4040   -0.2990 C.3     1  UNL1        0.0800
      2  C          5.1490    1.2910    1.0730 C.2     1  UNL1        0.1300
      3  C          5.4610    0.1340    1.9540 C.3     1  UNL1        0.0870
      4  O          4.4040    2.1500    1.5150 O.2     1  UNL1       -0.3000
      5  C          7.2200    1.1980   -0.2910 C.3     1  UNL1        0.0430
      6  C          7.5970   -0.0950   -0.8890 C.2     1  UNL1       -0.0440
      7  C          7.6920   -0.2610   -2.2760 C.2     1  UNL1        0.0080
      8  C          7.8670   -1.1710   -0.0750 C.2     1  UNL1        0.0540
      9  C          8.0510   -1.4970   -2.7810 C.2     1  UNL1        0.0510
     10  C          8.2300   -2.4190   -0.5900 C.2     1  UNL1        0.1660
     11  C          8.3230   -2.5830   -1.9540 C.2     1  UNL1        0.1650
     12  O          8.5430   -3.6250    0.0010 O.2     1  UNL1       -0.4540
     13  O          8.6950   -3.9000   -2.1750 O.2     1  UNL1       -0.4540
     14  C          8.9340   -4.5710   -0.9600 C.3     1  UNL1        0.4680
@<TRIPOS>BOND
     1     9     7    1
     2     9    11    2
     3     7     6    2
     4    13    11    1
     5    13    14    1
     6    11    10    1
     7    14    12    1
     8     6     5    1
     9     6     8    1
    10    10     8    2
    11    10    12    1
    12     1     5    1
    13     1     2    1
    14     2     4    2
    15     2     3    1
