MODEL 1
REMARK VINA RESULT:      -7.6      0.000      0.000
REMARK SMILES CC(=O)CCc1ccc2c(c1)OCO2
REMARK SMILES IDX 4 1 2 2 1 3 3 4 5 5 6 6 7 7 11 8 8 9 10 10 9 11 12 12 14 13
REMARK SMILES IDX 13 14
REMARK H PARENT
REMARK Flexibility Score: inf
ROOT
ATOM      1  C   UNL     1       5.535   1.939   1.259  1.00  0.00     0.080 C 
ENDROOT
BRANCH   1   2
ATOM      2  C   UNL     1       5.124   0.722   2.012  1.00  0.00     0.130 C 
ATOM      3  C   UNL     1       6.045  -0.431   2.195  1.00  0.00     0.087 C 
ATOM      4  O   UNL     1       4.010   0.635   2.504  1.00  0.00    -0.300 OA
ENDBRANCH   1   2
BRANCH   1   5
ATOM      5  C   UNL     1       5.402   1.732  -0.237  1.00  0.00     0.043 C 
BRANCH   5   6
ATOM      6  C   UNL     1       6.571   1.030  -0.797  1.00  0.00    -0.044 A 
ATOM      7  C   UNL     1       7.878   1.457  -0.534  1.00  0.00     0.008 A 
ATOM      8  C   UNL     1       6.385  -0.074  -1.597  1.00  0.00     0.054 A 
ATOM      9  C   UNL     1       8.936   0.758  -1.086  1.00  0.00     0.051 A 
ATOM     10  C   UNL     1       7.458  -0.778  -2.152  1.00  0.00     0.166 A 
ATOM     11  C   UNL     1       8.744  -0.358  -1.895  1.00  0.00     0.165 A 
ATOM     12  O   UNL     1       7.533  -1.887  -2.967  1.00  0.00    -0.454 OA
ATOM     13  O   UNL     1       9.591  -1.228  -2.563  1.00  0.00    -0.454 OA
ATOM     14  C   UNL     1       8.868  -2.266  -3.181  1.00  0.00     0.468 C 
ENDBRANCH   5   6
ENDBRANCH   1   5
TORSDOF 3
ENDMDL
MODEL 2
REMARK VINA RESULT:      -7.4      1.954      2.444
REMARK SMILES CC(=O)CCc1ccc2c(c1)OCO2
REMARK SMILES IDX 4 1 2 2 1 3 3 4 5 5 6 6 7 7 11 8 8 9 10 10 9 11 12 12 14 13
REMARK SMILES IDX 13 14
REMARK H PARENT
REMARK Flexibility Score: inf
ROOT
ATOM      1  C   UNL     1       5.734   1.281  -0.295  1.00  0.00     0.080 C 
ENDROOT
BRANCH   1   2
ATOM      2  C   UNL     1       5.178   1.202   1.085  1.00  0.00     0.130 C 
ATOM      3  C   UNL     1       5.316  -0.025   1.913  1.00  0.00     0.087 C 
ATOM      4  O   UNL     1       4.587   2.150   1.578  1.00  0.00    -0.300 OA
ENDBRANCH   1   2
BRANCH   1   5
ATOM      5  C   UNL     1       7.232   1.048  -0.298  1.00  0.00     0.043 C 
BRANCH   5   6
ATOM      6  C   UNL     1       7.580  -0.254  -0.894  1.00  0.00    -0.044 A 
ATOM      7  C   UNL     1       7.560  -0.456  -2.279  1.00  0.00     0.008 A 
ATOM      8  C   UNL     1       7.939  -1.304  -0.078  1.00  0.00     0.054 A 
ATOM      9  C   UNL     1       7.897  -1.700  -2.781  1.00  0.00     0.051 A 
ATOM     10  C   UNL     1       8.280  -2.559  -0.591  1.00  0.00     0.166 A 
ATOM     11  C   UNL     1       8.258  -2.759  -1.953  1.00  0.00     0.165 A 
ATOM     12  O   UNL     1       8.664  -3.743   0.002  1.00  0.00    -0.454 OA
ATOM     13  O   UNL     1       8.635  -4.075  -2.172  1.00  0.00    -0.454 OA
ATOM     14  C   UNL     1       8.989  -4.709  -0.965  1.00  0.00     0.468 C 
ENDBRANCH   5   6
ENDBRANCH   1   5
TORSDOF 3
ENDMDL
MODEL 3
REMARK VINA RESULT:      -7.2      2.108      2.661
REMARK SMILES CC(=O)CCc1ccc2c(c1)OCO2
REMARK SMILES IDX 4 1 2 2 1 3 3 4 5 5 6 6 7 7 11 8 8 9 10 10 9 11 12 12 14 13
REMARK SMILES IDX 13 14
REMARK H PARENT
REMARK Flexibility Score: inf
ROOT
ATOM      1  C   UNL     1       5.549  -0.038   1.939  1.00  0.00     0.080 C 
ENDROOT
BRANCH   1   2
ATOM      2  C   UNL     1       4.678   1.131   1.633  1.00  0.00     0.130 C 
ATOM      3  C   UNL     1       5.000   2.078   0.533  1.00  0.00     0.087 C 
ATOM      4  O   UNL     1       3.668   1.347   2.283  1.00  0.00    -0.300 OA
ENDBRANCH   1   2
BRANCH   1   5
ATOM      5  C   UNL     1       6.973   0.202   1.479  1.00  0.00     0.043 C 
BRANCH   5   6
ATOM      6  C   UNL     1       7.380  -0.758   0.438  1.00  0.00    -0.044 A 
ATOM      7  C   UNL     1       7.263  -0.456  -0.924  1.00  0.00     0.008 A 
ATOM      8  C   UNL     1       7.891  -1.983   0.801  1.00  0.00     0.054 A 
ATOM      9  C   UNL     1       7.662  -1.397  -1.856  1.00  0.00     0.051 A 
ATOM     10  C   UNL     1       8.294  -2.930  -0.145  1.00  0.00     0.166 A 
ATOM     11  C   UNL     1       8.177  -2.634  -1.485  1.00  0.00     0.165 A 
ATOM     12  O   UNL     1       8.824  -4.199  -0.039  1.00  0.00    -0.454 OA
ATOM     13  O   UNL     1       8.644  -3.738  -2.181  1.00  0.00    -0.454 OA
ATOM     14  C   UNL     1       9.148  -4.717  -1.304  1.00  0.00     0.468 C 
ENDBRANCH   5   6
ENDBRANCH   1   5
TORSDOF 3
ENDMDL
MODEL 4
REMARK VINA RESULT:      -7.1      1.259      1.487
REMARK SMILES CC(=O)CCc1ccc2c(c1)OCO2
REMARK SMILES IDX 4 1 2 2 1 3 3 4 5 5 6 6 7 7 11 8 8 9 10 10 9 11 12 12 14 13
REMARK SMILES IDX 13 14
REMARK H PARENT
REMARK Flexibility Score: inf
ROOT
ATOM      1  C   UNL     1       6.375   1.192   0.890  1.00  0.00     0.080 C 
ENDROOT
BRANCH   1   2
ATOM      2  C   UNL     1       5.674   0.391   1.931  1.00  0.00     0.130 C 
ATOM      3  C   UNL     1       6.275  -0.845   2.501  1.00  0.00     0.087 C 
ATOM      4  O   UNL     1       4.578   0.728   2.349  1.00  0.00    -0.300 OA
ENDBRANCH   1   2
BRANCH   1   5
ATOM      5  C   UNL     1       5.856   0.866  -0.497  1.00  0.00     0.043 C 
BRANCH   5   6
ATOM      6  C   UNL     1       6.819   0.055  -1.264  1.00  0.00    -0.044 A 
ATOM      7  C   UNL     1       7.516   0.584  -2.357  1.00  0.00     0.008 A 
ATOM      8  C   UNL     1       7.048  -1.253  -0.904  1.00  0.00     0.054 A 
ATOM      9  C   UNL     1       8.407  -0.225  -3.038  1.00  0.00     0.051 A 
ATOM     10  C   UNL     1       7.951  -2.066  -1.595  1.00  0.00     0.166 A 
ATOM     11  C   UNL     1       8.636  -1.548  -2.671  1.00  0.00     0.165 A 
ATOM     12  O   UNL     1       8.347  -3.377  -1.437  1.00  0.00    -0.454 OA
ATOM     13  O   UNL     1       9.448  -2.561  -3.156  1.00  0.00    -0.454 OA
ATOM     14  C   UNL     1       9.363  -3.710  -2.347  1.00  0.00     0.468 C 
ENDBRANCH   5   6
ENDBRANCH   1   5
TORSDOF 3
ENDMDL
MODEL 5
REMARK VINA RESULT:      -6.9      1.961      2.639
REMARK SMILES CC(=O)CCc1ccc2c(c1)OCO2
REMARK SMILES IDX 4 1 2 2 1 3 3 4 5 5 6 6 7 7 11 8 8 9 10 10 9 11 12 12 14 13
REMARK SMILES IDX 13 14
REMARK H PARENT
REMARK Flexibility Score: inf
ROOT
ATOM      1  C   UNL     1       6.958   0.791   0.862  1.00  0.00     0.080 C 
ENDROOT
BRANCH   1   2
ATOM      2  C   UNL     1       5.555   1.173   1.187  1.00  0.00     0.130 C 
ATOM      3  C   UNL     1       4.798   2.146   0.355  1.00  0.00     0.087 C 
ATOM      4  O   UNL     1       4.983   0.694   2.153  1.00  0.00    -0.300 OA
ENDBRANCH   1   2
BRANCH   1   5
ATOM      5  C   UNL     1       7.214   0.856  -0.631  1.00  0.00     0.043 C 
BRANCH   5   6
ATOM      6  C   UNL     1       7.707  -0.430  -1.156  1.00  0.00    -0.044 A 
ATOM      7  C   UNL     1       7.962  -0.615  -2.520  1.00  0.00     0.008 A 
ATOM      8  C   UNL     1       7.928  -1.480  -0.294  1.00  0.00     0.054 A 
ATOM      9  C   UNL     1       8.425  -1.844  -2.955  1.00  0.00     0.051 A 
ATOM     10  C   UNL     1       8.396  -2.720  -0.739  1.00  0.00     0.166 A 
ATOM     11  C   UNL     1       8.646  -2.903  -2.081  1.00  0.00     0.165 A 
ATOM     12  O   UNL     1       8.689  -3.901  -0.091  1.00  0.00    -0.454 OA
ATOM     13  O   UNL     1       9.093  -4.207  -2.231  1.00  0.00    -0.454 OA
ATOM     14  C   UNL     1       9.222  -4.846  -0.983  1.00  0.00     0.468 C 
ENDBRANCH   5   6
ENDBRANCH   1   5
TORSDOF 3
ENDMDL
