@<TRIPOS>MOLECULE
/home/cewinharhar/GITHUB/reincatalyze/data/processed/docking_pred/2023-May-30-2130_sub9_nm5_bs15_s42_ex16_mel10_mts10000_k50_ec05_g099_lra3e-4_lrc3e-3/d6fa7c89c21ca11aa73af88b15ecc664e93337c3_ligand_9.pdbqt
 14 15 0 0 0
SMALL
GASTEIGER

@<TRIPOS>ATOM
      1  C          5.5350    1.9390    1.2590 C.3     1  UNL1        0.0800
      2  C          5.1240    0.7220    2.0120 C.2     1  UNL1        0.1300
      3  C          6.0450   -0.4310    2.1950 C.3     1  UNL1        0.0870
      4  O          4.0100    0.6350    2.5040 O.2     1  UNL1       -0.3000
      5  C          5.4020    1.7320   -0.2370 C.3     1  UNL1        0.0430
      6  C          6.5710    1.0300   -0.7970 C.2     1  UNL1       -0.0440
      7  C          7.8780    1.4570   -0.5340 C.2     1  UNL1        0.0080
      8  C          6.3850   -0.0740   -1.5970 C.2     1  UNL1        0.0540
      9  C          8.9360    0.7580   -1.0860 C.2     1  UNL1        0.0510
     10  C          7.4580   -0.7780   -2.1520 C.2     1  UNL1        0.1660
     11  C          8.7440   -0.3580   -1.8950 C.2     1  UNL1        0.1650
     12  O          7.5330   -1.8870   -2.9670 O.2     1  UNL1       -0.4540
     13  O          9.5910   -1.2280   -2.5630 O.2     1  UNL1       -0.4540
     14  C          8.8680   -2.2660   -3.1810 C.3     1  UNL1        0.4680
@<TRIPOS>BOND
     1    14    12    1
     2    14    13    1
     3    12    10    1
     4    13    11    1
     5    10    11    2
     6    10     8    1
     7    11     9    1
     8     8     6    2
     9     9     7    2
    10     6     7    1
    11     6     5    1
    12     5     1    1
    13     1     2    1
    14     2     3    1
    15     2     4    2
