@<TRIPOS>MOLECULE
/home/cewinharhar/GITHUB/reincatalyze/data/processed/docking_pred/2023-May-30-2130_sub9_nm5_bs15_s42_ex16_mel10_mts10000_k50_ec05_g099_lra3e-4_lrc3e-3/d6fa7c89c21ca11aa73af88b15ecc664e93337c3_ligand_9.pdbqt
 14 15 0 0 0
SMALL
GASTEIGER

@<TRIPOS>ATOM
      1  C          5.7340    1.2810   -0.2950 C.3     1  UNL1        0.0800
      2  C          5.1780    1.2020    1.0850 C.2     1  UNL1        0.1300
      3  C          5.3160   -0.0250    1.9130 C.3     1  UNL1        0.0870
      4  O          4.5870    2.1500    1.5780 O.2     1  UNL1       -0.3000
      5  C          7.2320    1.0480   -0.2980 C.3     1  UNL1        0.0430
      6  C          7.5800   -0.2540   -0.8940 C.2     1  UNL1       -0.0440
      7  C          7.5600   -0.4560   -2.2790 C.2     1  UNL1        0.0080
      8  C          7.9390   -1.3040   -0.0780 C.2     1  UNL1        0.0540
      9  C          7.8970   -1.7000   -2.7810 C.2     1  UNL1        0.0510
     10  C          8.2800   -2.5590   -0.5910 C.2     1  UNL1        0.1660
     11  C          8.2580   -2.7590   -1.9530 C.2     1  UNL1        0.1650
     12  O          8.6640   -3.7430    0.0020 O.2     1  UNL1       -0.4540
     13  O          8.6350   -4.0750   -2.1720 O.2     1  UNL1       -0.4540
     14  C          8.9890   -4.7090   -0.9650 C.3     1  UNL1        0.4680
@<TRIPOS>BOND
     1     9     7    1
     2     9    11    2
     3     7     6    2
     4    13    11    1
     5    13    14    1
     6    11    10    1
     7    14    12    1
     8     6     5    1
     9     6     8    1
    10    10     8    2
    11    10    12    1
    12     5     1    1
    13     1     2    1
    14     2     4    2
    15     2     3    1
