@<TRIPOS>MOLECULE
/home/cewinharhar/GITHUB/reincatalyze/data/processed/docking_pred/2023-May-30-2130_sub9_nm5_bs15_s42_ex16_mel10_mts10000_k50_ec05_g099_lra3e-4_lrc3e-3/d6fa7c89c21ca11aa73af88b15ecc664e93337c3_ligand_9.pdbqt
 14 15 0 0 0
SMALL
GASTEIGER

@<TRIPOS>ATOM
      1  C          6.9580    0.7910    0.8620 C.3     1  UNL1        0.0800
      2  C          5.5550    1.1730    1.1870 C.2     1  UNL1        0.1300
      3  C          4.7980    2.1460    0.3550 C.3     1  UNL1        0.0870
      4  O          4.9830    0.6940    2.1530 O.2     1  UNL1       -0.3000
      5  C          7.2140    0.8560   -0.6310 C.3     1  UNL1        0.0430
      6  C          7.7070   -0.4300   -1.1560 C.2     1  UNL1       -0.0440
      7  C          7.9620   -0.6150   -2.5200 C.2     1  UNL1        0.0080
      8  C          7.9280   -1.4800   -0.2940 C.2     1  UNL1        0.0540
      9  C          8.4250   -1.8440   -2.9550 C.2     1  UNL1        0.0510
     10  C          8.3960   -2.7200   -0.7390 C.2     1  UNL1        0.1660
     11  C          8.6460   -2.9030   -2.0810 C.2     1  UNL1        0.1650
     12  O          8.6890   -3.9010   -0.0910 O.2     1  UNL1       -0.4540
     13  O          9.0930   -4.2070   -2.2310 O.2     1  UNL1       -0.4540
     14  C          9.2220   -4.8460   -0.9830 C.3     1  UNL1        0.4680
@<TRIPOS>BOND
     1     9     7    1
     2     9    11    2
     3     7     6    2
     4    13    11    1
     5    13    14    1
     6    11    10    1
     7     6     5    1
     8     6     8    1
     9    14    12    1
    10    10     8    2
    11    10    12    1
    12     5     1    1
    13     3     2    1
    14     1     2    1
    15     2     4    2
