@<TRIPOS>MOLECULE
/home/cewinharhar/GITHUB/reincatalyze/data/processed/docking_pred/2023-May-30-2130_sub9_nm5_bs15_s42_ex16_mel10_mts10000_k50_ec05_g099_lra3e-4_lrc3e-3/d6fa7c89c21ca11aa73af88b15ecc664e93337c3_ligand_9.pdbqt
 14 15 0 0 0
SMALL
GASTEIGER

@<TRIPOS>ATOM
      1  C          6.3750    1.1920    0.8900 C.3     1  UNL1        0.0800
      2  C          5.6740    0.3910    1.9310 C.2     1  UNL1        0.1300
      3  C          6.2750   -0.8450    2.5010 C.3     1  UNL1        0.0870
      4  O          4.5780    0.7280    2.3490 O.2     1  UNL1       -0.3000
      5  C          5.8560    0.8660   -0.4970 C.3     1  UNL1        0.0430
      6  C          6.8190    0.0550   -1.2640 C.2     1  UNL1       -0.0440
      7  C          7.5160    0.5840   -2.3570 C.2     1  UNL1        0.0080
      8  C          7.0480   -1.2530   -0.9040 C.2     1  UNL1        0.0540
      9  C          8.4070   -0.2250   -3.0380 C.2     1  UNL1        0.0510
     10  C          7.9510   -2.0660   -1.5950 C.2     1  UNL1        0.1660
     11  C          8.6360   -1.5480   -2.6710 C.2     1  UNL1        0.1650
     12  O          8.3470   -3.3770   -1.4370 O.2     1  UNL1       -0.4540
     13  O          9.4480   -2.5610   -3.1560 O.2     1  UNL1       -0.4540
     14  C          9.3630   -3.7100   -2.3470 C.3     1  UNL1        0.4680
@<TRIPOS>BOND
     1    13    11    1
     2    13    14    1
     3     9    11    2
     4     9     7    1
     5    11    10    1
     6     7     6    2
     7    14    12    1
     8    10    12    1
     9    10     8    2
    10     6     8    1
    11     6     5    1
    12     5     1    1
    13     1     2    1
    14     2     4    2
    15     2     3    1
