MODEL 1
REMARK VINA RESULT:      -7.6      0.000      0.000
REMARK SMILES CC(=O)CCc1ccc2c(c1)OCO2
REMARK SMILES IDX 4 1 2 2 1 3 3 4 5 5 6 6 7 7 11 8 8 9 10 10 9 11 12 12 14 13
REMARK SMILES IDX 13 14
REMARK H PARENT
REMARK Flexibility Score: inf
ROOT
ATOM      1  C   UNL     1       5.560   1.889   1.301  1.00  0.00     0.080 C 
ENDROOT
BRANCH   1   2
ATOM      2  C   UNL     1       5.111   0.668   2.028  1.00  0.00     0.130 C 
ATOM      3  C   UNL     1       5.996  -0.517   2.184  1.00  0.00     0.087 C 
ATOM      4  O   UNL     1       3.996   0.606   2.520  1.00  0.00    -0.300 OA
ENDBRANCH   1   2
BRANCH   1   5
ATOM      5  C   UNL     1       5.425   1.716  -0.199  1.00  0.00     0.043 C 
BRANCH   5   6
ATOM      6  C   UNL     1       6.587   1.019  -0.776  1.00  0.00    -0.044 A 
ATOM      7  C   UNL     1       7.896   1.455  -0.539  1.00  0.00     0.008 A 
ATOM      8  C   UNL     1       6.393  -0.092  -1.566  1.00  0.00     0.054 A 
ATOM      9  C   UNL     1       8.948   0.760  -1.107  1.00  0.00     0.051 A 
ATOM     10  C   UNL     1       7.461  -0.792  -2.136  1.00  0.00     0.166 A 
ATOM     11  C   UNL     1       8.749  -0.362  -1.905  1.00  0.00     0.165 A 
ATOM     12  O   UNL     1       7.528  -1.906  -2.946  1.00  0.00    -0.454 OA
ATOM     13  O   UNL     1       9.589  -1.231  -2.584  1.00  0.00    -0.454 OA
ATOM     14  C   UNL     1       8.862  -2.278  -3.182  1.00  0.00     0.468 C 
ENDBRANCH   5   6
ENDBRANCH   1   5
TORSDOF 3
ENDMDL
MODEL 2
REMARK VINA RESULT:      -7.4      1.928      2.421
REMARK SMILES CC(=O)CCc1ccc2c(c1)OCO2
REMARK SMILES IDX 4 1 2 2 1 3 3 4 5 5 6 6 7 7 11 8 8 9 10 10 9 11 12 12 14 13
REMARK SMILES IDX 13 14
REMARK H PARENT
REMARK Flexibility Score: inf
ROOT
ATOM      1  C   UNL     1       5.784   1.291  -0.304  1.00  0.00     0.080 C 
ENDROOT
BRANCH   1   2
ATOM      2  C   UNL     1       5.253   1.224   1.087  1.00  0.00     0.130 C 
ATOM      3  C   UNL     1       5.480   0.036   1.953  1.00  0.00     0.087 C 
ATOM      4  O   UNL     1       4.612   2.149   1.557  1.00  0.00    -0.300 OA
ENDBRANCH   1   2
BRANCH   1   5
ATOM      5  C   UNL     1       7.284   1.073  -0.331  1.00  0.00     0.043 C 
BRANCH   5   6
ATOM      6  C   UNL     1       7.637  -0.229  -0.923  1.00  0.00    -0.044 A 
ATOM      7  C   UNL     1       7.694  -0.412  -2.310  1.00  0.00     0.008 A 
ATOM      8  C   UNL     1       7.921  -1.297  -0.103  1.00  0.00     0.054 A 
ATOM      9  C   UNL     1       8.032  -1.657  -2.809  1.00  0.00     0.051 A 
ATOM     10  C   UNL     1       8.263  -2.554  -0.612  1.00  0.00     0.166 A 
ATOM     11  C   UNL     1       8.318  -2.735  -1.976  1.00  0.00     0.165 A 
ATOM     12  O   UNL     1       8.583  -3.754  -0.015  1.00  0.00    -0.454 OA
ATOM     13  O   UNL     1       8.676  -4.057  -2.190  1.00  0.00    -0.454 OA
ATOM     14  C   UNL     1       8.942  -4.715  -0.975  1.00  0.00     0.468 C 
ENDBRANCH   5   6
ENDBRANCH   1   5
TORSDOF 3
ENDMDL
MODEL 3
REMARK VINA RESULT:      -7.2      2.053      2.598
REMARK SMILES CC(=O)CCc1ccc2c(c1)OCO2
REMARK SMILES IDX 4 1 2 2 1 3 3 4 5 5 6 6 7 7 11 8 8 9 10 10 9 11 12 12 14 13
REMARK SMILES IDX 13 14
REMARK H PARENT
REMARK Flexibility Score: inf
ROOT
ATOM      1  C   UNL     1       5.498   0.014   2.010  1.00  0.00     0.080 C 
ENDROOT
BRANCH   1   2
ATOM      2  C   UNL     1       4.596   1.169   1.743  1.00  0.00     0.130 C 
ATOM      3  C   UNL     1       4.881   2.149   0.661  1.00  0.00     0.087 C 
ATOM      4  O   UNL     1       3.590   1.346   2.411  1.00  0.00    -0.300 OA
ENDBRANCH   1   2
BRANCH   1   5
ATOM      5  C   UNL     1       6.905   0.289   1.517  1.00  0.00     0.043 C 
BRANCH   5   6
ATOM      6  C   UNL     1       7.313  -0.664   0.470  1.00  0.00    -0.044 A 
ATOM      7  C   UNL     1       7.193  -0.356  -0.889  1.00  0.00     0.008 A 
ATOM      8  C   UNL     1       7.829  -1.889   0.827  1.00  0.00     0.054 A 
ATOM      9  C   UNL     1       7.593  -1.290  -1.827  1.00  0.00     0.051 A 
ATOM     10  C   UNL     1       8.233  -2.830  -0.125  1.00  0.00     0.166 A 
ATOM     11  C   UNL     1       8.114  -2.528  -1.463  1.00  0.00     0.165 A 
ATOM     12  O   UNL     1       8.768  -4.097  -0.026  1.00  0.00    -0.454 OA
ATOM     13  O   UNL     1       8.583  -3.627  -2.166  1.00  0.00    -0.454 OA
ATOM     14  C   UNL     1       9.092  -4.608  -1.294  1.00  0.00     0.468 C 
ENDBRANCH   5   6
ENDBRANCH   1   5
TORSDOF 3
ENDMDL
MODEL 4
REMARK VINA RESULT:      -7.1      1.256      1.481
REMARK SMILES CC(=O)CCc1ccc2c(c1)OCO2
REMARK SMILES IDX 4 1 2 2 1 3 3 4 5 5 6 6 7 7 11 8 8 9 10 10 9 11 12 12 14 13
REMARK SMILES IDX 13 14
REMARK H PARENT
REMARK Flexibility Score: inf
ROOT
ATOM      1  C   UNL     1       6.383   1.204   0.862  1.00  0.00     0.080 C 
ENDROOT
BRANCH   1   2
ATOM      2  C   UNL     1       5.710   0.368   1.896  1.00  0.00     0.130 C 
ATOM      3  C   UNL     1       6.344  -0.864   2.438  1.00  0.00     0.087 C 
ATOM      4  O   UNL     1       4.612   0.674   2.331  1.00  0.00    -0.300 OA
ENDBRANCH   1   2
BRANCH   1   5
ATOM      5  C   UNL     1       5.873   0.876  -0.527  1.00  0.00     0.043 C 
BRANCH   5   6
ATOM      6  C   UNL     1       6.836   0.056  -1.284  1.00  0.00    -0.044 A 
ATOM      7  C   UNL     1       7.553   0.579  -2.366  1.00  0.00     0.008 A 
ATOM      8  C   UNL     1       7.046  -1.256  -0.924  1.00  0.00     0.054 A 
ATOM      9  C   UNL     1       8.445  -0.237  -3.038  1.00  0.00     0.051 A 
ATOM     10  C   UNL     1       7.949  -2.077  -1.606  1.00  0.00     0.166 A 
ATOM     11  C   UNL     1       8.654  -1.563  -2.672  1.00  0.00     0.165 A 
ATOM     12  O   UNL     1       8.328  -3.393  -1.446  1.00  0.00    -0.454 OA
ATOM     13  O   UNL     1       9.461  -2.584  -3.148  1.00  0.00    -0.454 OA
ATOM     14  C   UNL     1       9.353  -3.735  -2.344  1.00  0.00     0.468 C 
ENDBRANCH   5   6
ENDBRANCH   1   5
TORSDOF 3
ENDMDL
MODEL 5
REMARK VINA RESULT:      -7.1      1.985      2.564
REMARK SMILES CC(=O)CCc1ccc2c(c1)OCO2
REMARK SMILES IDX 4 1 2 2 1 3 3 4 5 5 6 6 7 7 11 8 8 9 10 10 9 11 12 12 14 13
REMARK SMILES IDX 13 14
REMARK H PARENT
REMARK Flexibility Score: inf
ROOT
ATOM      1  C   UNL     1       6.789   0.668   1.244  1.00  0.00     0.080 C 
ENDROOT
BRANCH   1   2
ATOM      2  C   UNL     1       5.371   1.071   1.457  1.00  0.00     0.130 C 
ATOM      3  C   UNL     1       4.737   2.150   0.653  1.00  0.00     0.087 C 
ATOM      4  O   UNL     1       4.685   0.524   2.304  1.00  0.00    -0.300 OA
ENDBRANCH   1   2
BRANCH   1   5
ATOM      5  C   UNL     1       7.209   0.872  -0.199  1.00  0.00     0.043 C 
BRANCH   5   6
ATOM      6  C   UNL     1       7.630  -0.392  -0.829  1.00  0.00    -0.044 A 
ATOM      7  C   UNL     1       7.748  -0.514  -2.218  1.00  0.00     0.008 A 
ATOM      8  C   UNL     1       7.918  -1.483  -0.042  1.00  0.00     0.054 A 
ATOM      9  C   UNL     1       8.149  -1.725  -2.754  1.00  0.00     0.051 A 
ATOM     10  C   UNL     1       8.323  -2.705  -0.588  1.00  0.00     0.166 A 
ATOM     11  C   UNL     1       8.439  -2.827  -1.955  1.00  0.00     0.165 A 
ATOM     12  O   UNL     1       8.661  -3.919  -0.028  1.00  0.00    -0.454 OA
ATOM     13  O   UNL     1       8.851  -4.126  -2.209  1.00  0.00    -0.454 OA
ATOM     14  C   UNL     1       9.091  -4.825  -1.011  1.00  0.00     0.468 C 
ENDBRANCH   5   6
ENDBRANCH   1   5
TORSDOF 3
ENDMDL
