@<TRIPOS>MOLECULE
/home/cewinharhar/GITHUB/reincatalyze/data/processed/docking_pred/2023-May-30-2130_sub9_nm5_bs15_s42_ex16_mel10_mts10000_k50_ec05_g099_lra3e-4_lrc3e-3/d7d9c72b52c2e0a01b4806f6bcc2a503b8c9528b_ligand_9.pdbqt
 14 15 0 0 0
SMALL
GASTEIGER

@<TRIPOS>ATOM
      1  C          5.5600    1.8890    1.3010 C.3     1  UNL1        0.0800
      2  C          5.1110    0.6680    2.0280 C.2     1  UNL1        0.1300
      3  C          5.9960   -0.5170    2.1840 C.3     1  UNL1        0.0870
      4  O          3.9960    0.6060    2.5200 O.2     1  UNL1       -0.3000
      5  C          5.4250    1.7160   -0.1990 C.3     1  UNL1        0.0430
      6  C          6.5870    1.0190   -0.7760 C.2     1  UNL1       -0.0440
      7  C          7.8960    1.4550   -0.5390 C.2     1  UNL1        0.0080
      8  C          6.3930   -0.0920   -1.5660 C.2     1  UNL1        0.0540
      9  C          8.9480    0.7600   -1.1070 C.2     1  UNL1        0.0510
     10  C          7.4610   -0.7920   -2.1360 C.2     1  UNL1        0.1660
     11  C          8.7490   -0.3620   -1.9050 C.2     1  UNL1        0.1650
     12  O          7.5280   -1.9060   -2.9460 O.2     1  UNL1       -0.4540
     13  O          9.5890   -1.2310   -2.5840 O.2     1  UNL1       -0.4540
     14  C          8.8620   -2.2780   -3.1820 C.3     1  UNL1        0.4680
@<TRIPOS>BOND
     1    14    12    1
     2    14    13    1
     3    12    10    1
     4    13    11    1
     5    10    11    2
     6    10     8    1
     7    11     9    1
     8     8     6    2
     9     9     7    2
    10     6     7    1
    11     6     5    1
    12     5     1    1
    13     1     2    1
    14     2     3    1
    15     2     4    2
