MODEL 1
REMARK VINA RESULT:      -7.6      0.000      0.000
REMARK SMILES CC(=O)CCc1ccc2c(c1)OCO2
REMARK SMILES IDX 4 1 2 2 1 3 3 4 5 5 6 6 7 7 11 8 8 9 10 10 9 11 12 12 14 13
REMARK SMILES IDX 13 14
REMARK H PARENT
REMARK Flexibility Score: inf
ROOT
ATOM      1  C   UNL     1       5.556   1.903   1.291  1.00  0.00     0.080 C 
ENDROOT
BRANCH   1   2
ATOM      2  C   UNL     1       5.103   0.687   2.023  1.00  0.00     0.130 C 
ATOM      3  C   UNL     1       5.989  -0.496   2.194  1.00  0.00     0.087 C 
ATOM      4  O   UNL     1       3.984   0.627   2.506  1.00  0.00    -0.300 OA
ENDBRANCH   1   2
BRANCH   1   5
ATOM      5  C   UNL     1       5.421   1.725  -0.209  1.00  0.00     0.043 C 
BRANCH   5   6
ATOM      6  C   UNL     1       6.584   1.025  -0.783  1.00  0.00    -0.044 A 
ATOM      7  C   UNL     1       7.892   1.461  -0.546  1.00  0.00     0.008 A 
ATOM      8  C   UNL     1       6.390  -0.087  -1.571  1.00  0.00     0.054 A 
ATOM      9  C   UNL     1       8.945   0.764  -1.111  1.00  0.00     0.051 A 
ATOM     10  C   UNL     1       7.457  -0.789  -2.139  1.00  0.00     0.166 A 
ATOM     11  C   UNL     1       8.745  -0.360  -1.907  1.00  0.00     0.165 A 
ATOM     12  O   UNL     1       7.525  -1.905  -2.946  1.00  0.00    -0.454 OA
ATOM     13  O   UNL     1       9.586  -1.231  -2.583  1.00  0.00    -0.454 OA
ATOM     14  C   UNL     1       8.859  -2.278  -3.180  1.00  0.00     0.468 C 
ENDBRANCH   5   6
ENDBRANCH   1   5
TORSDOF 3
ENDMDL
MODEL 2
REMARK VINA RESULT:      -7.3      1.899      2.388
REMARK SMILES CC(=O)CCc1ccc2c(c1)OCO2
REMARK SMILES IDX 4 1 2 2 1 3 3 4 5 5 6 6 7 7 11 8 8 9 10 10 9 11 12 12 14 13
REMARK SMILES IDX 13 14
REMARK H PARENT
REMARK Flexibility Score: inf
ROOT
ATOM      1  C   UNL     1       5.750   1.291  -0.322  1.00  0.00     0.080 C 
ENDROOT
BRANCH   1   2
ATOM      2  C   UNL     1       5.236   1.221   1.074  1.00  0.00     0.130 C 
ATOM      3  C   UNL     1       5.462   0.027   1.931  1.00  0.00     0.087 C 
ATOM      4  O   UNL     1       4.609   2.150   1.558  1.00  0.00    -0.300 OA
ENDBRANCH   1   2
BRANCH   1   5
ATOM      5  C   UNL     1       7.254   1.103  -0.364  1.00  0.00     0.043 C 
BRANCH   5   6
ATOM      6  C   UNL     1       7.626  -0.193  -0.960  1.00  0.00    -0.044 A 
ATOM      7  C   UNL     1       7.680  -0.374  -2.346  1.00  0.00     0.008 A 
ATOM      8  C   UNL     1       7.933  -1.256  -0.141  1.00  0.00     0.054 A 
ATOM      9  C   UNL     1       8.036  -1.613  -2.848  1.00  0.00     0.051 A 
ATOM     10  C   UNL     1       8.293  -2.506  -0.653  1.00  0.00     0.166 A 
ATOM     11  C   UNL     1       8.345  -2.686  -2.018  1.00  0.00     0.165 A 
ATOM     12  O   UNL     1       8.637  -3.702  -0.058  1.00  0.00    -0.454 OA
ATOM     13  O   UNL     1       8.725  -4.001  -2.234  1.00  0.00    -0.454 OA
ATOM     14  C   UNL     1       9.008  -4.655  -1.020  1.00  0.00     0.468 C 
ENDBRANCH   5   6
ENDBRANCH   1   5
TORSDOF 3
ENDMDL
MODEL 3
REMARK VINA RESULT:      -7.1      2.064      2.640
REMARK SMILES CC(=O)CCc1ccc2c(c1)OCO2
REMARK SMILES IDX 4 1 2 2 1 3 3 4 5 5 6 6 7 7 11 8 8 9 10 10 9 11 12 12 14 13
REMARK SMILES IDX 13 14
REMARK H PARENT
REMARK Flexibility Score: inf
ROOT
ATOM      1  C   UNL     1       5.399  -0.080   2.013  1.00  0.00     0.080 C 
ENDROOT
BRANCH   1   2
ATOM      2  C   UNL     1       4.568   1.133   1.777  1.00  0.00     0.130 C 
ATOM      3  C   UNL     1       4.913   2.123   0.722  1.00  0.00     0.087 C 
ATOM      4  O   UNL     1       3.572   1.351   2.447  1.00  0.00    -0.300 OA
ENDBRANCH   1   2
BRANCH   1   5
ATOM      5  C   UNL     1       6.844   0.158   1.621  1.00  0.00     0.043 C 
BRANCH   5   6
ATOM      6  C   UNL     1       7.279  -0.760   0.554  1.00  0.00    -0.044 A 
ATOM      7  C   UNL     1       7.153  -0.423  -0.799  1.00  0.00     0.008 A 
ATOM      8  C   UNL     1       7.827  -1.979   0.884  1.00  0.00     0.054 A 
ATOM      9  C   UNL     1       7.579  -1.325  -1.757  1.00  0.00     0.051 A 
ATOM     10  C   UNL     1       8.257  -2.886  -0.089  1.00  0.00     0.166 A 
ATOM     11  C   UNL     1       8.132  -2.557  -1.420  1.00  0.00     0.165 A 
ATOM     12  O   UNL     1       8.824  -4.141  -0.018  1.00  0.00    -0.454 OA
ATOM     13  O   UNL     1       8.631  -3.626  -2.147  1.00  0.00    -0.454 OA
ATOM     14  C   UNL     1       9.164  -4.614  -1.296  1.00  0.00     0.468 C 
ENDBRANCH   5   6
ENDBRANCH   1   5
TORSDOF 3
ENDMDL
MODEL 4
REMARK VINA RESULT:      -7.0      1.249      1.455
REMARK SMILES CC(=O)CCc1ccc2c(c1)OCO2
REMARK SMILES IDX 4 1 2 2 1 3 3 4 5 5 6 6 7 7 11 8 8 9 10 10 9 11 12 12 14 13
REMARK SMILES IDX 13 14
REMARK H PARENT
REMARK Flexibility Score: inf
ROOT
ATOM      1  C   UNL     1       6.353   1.190   0.915  1.00  0.00     0.080 C 
ENDROOT
BRANCH   1   2
ATOM      2  C   UNL     1       5.645   0.372   1.938  1.00  0.00     0.130 C 
ATOM      3  C   UNL     1       6.261  -0.847   2.527  1.00  0.00     0.087 C 
ATOM      4  O   UNL     1       4.530   0.682   2.326  1.00  0.00    -0.300 OA
ENDBRANCH   1   2
BRANCH   1   5
ATOM      5  C   UNL     1       5.840   0.891  -0.480  1.00  0.00     0.043 C 
BRANCH   5   6
ATOM      6  C   UNL     1       6.798   0.083  -1.254  1.00  0.00    -0.044 A 
ATOM      7  C   UNL     1       7.486   0.613  -2.352  1.00  0.00     0.008 A 
ATOM      8  C   UNL     1       7.033  -1.225  -0.896  1.00  0.00     0.054 A 
ATOM      9  C   UNL     1       8.375  -0.193  -3.040  1.00  0.00     0.051 A 
ATOM     10  C   UNL     1       7.933  -2.036  -1.595  1.00  0.00     0.166 A 
ATOM     11  C   UNL     1       8.609  -1.515  -2.676  1.00  0.00     0.165 A 
ATOM     12  O   UNL     1       8.333  -3.346  -1.440  1.00  0.00    -0.454 OA
ATOM     13  O   UNL     1       9.420  -2.527  -3.166  1.00  0.00    -0.454 OA
ATOM     14  C   UNL     1       9.344  -3.676  -2.358  1.00  0.00     0.468 C 
ENDBRANCH   5   6
ENDBRANCH   1   5
TORSDOF 3
ENDMDL
MODEL 5
REMARK VINA RESULT:      -6.9      2.000      2.553
REMARK SMILES CC(=O)CCc1ccc2c(c1)OCO2
REMARK SMILES IDX 4 1 2 2 1 3 3 4 5 5 6 6 7 7 11 8 8 9 10 10 9 11 12 12 14 13
REMARK SMILES IDX 13 14
REMARK H PARENT
REMARK Flexibility Score: inf
ROOT
ATOM      1  C   UNL     1       6.829   0.967   1.237  1.00  0.00     0.080 C 
ENDROOT
BRANCH   1   2
ATOM      2  C   UNL     1       5.370   1.208   1.414  1.00  0.00     0.130 C 
ATOM      3  C   UNL     1       4.622   2.149   0.539  1.00  0.00     0.087 C 
ATOM      4  O   UNL     1       4.742   0.634   2.290  1.00  0.00    -0.300 OA
ENDBRANCH   1   2
BRANCH   1   5
ATOM      5  C   UNL     1       7.233   1.083  -0.219  1.00  0.00     0.043 C 
BRANCH   5   6
ATOM      6  C   UNL     1       7.592  -0.226  -0.793  1.00  0.00    -0.044 A 
ATOM      7  C   UNL     1       7.598  -0.444  -2.175  1.00  0.00     0.008 A 
ATOM      8  C   UNL     1       7.934  -1.266   0.042  1.00  0.00     0.054 A 
ATOM      9  C   UNL     1       7.944  -1.694  -2.656  1.00  0.00     0.051 A 
ATOM     10  C   UNL     1       8.283  -2.527  -0.449  1.00  0.00     0.166 A 
ATOM     11  C   UNL     1       8.288  -2.743  -1.809  1.00  0.00     0.165 A 
ATOM     12  O   UNL     1       8.655  -3.705   0.165  1.00  0.00    -0.454 OA
ATOM     13  O   UNL     1       8.668  -4.062  -2.004  1.00  0.00    -0.454 OA
ATOM     14  C   UNL     1       8.998  -4.682  -0.784  1.00  0.00     0.468 C 
ENDBRANCH   5   6
ENDBRANCH   1   5
TORSDOF 3
ENDMDL
