@<TRIPOS>MOLECULE
/home/cewinharhar/GITHUB/reincatalyze/data/processed/docking_pred/2023-May-30-2130_sub9_nm5_bs15_s42_ex16_mel10_mts10000_k50_ec05_g099_lra3e-4_lrc3e-3/d98db6e7330c4682e6208573911aa9edae27e8f4_ligand_9.pdbqt
 14 15 0 0 0
SMALL
GASTEIGER

@<TRIPOS>ATOM
      1  C          6.3530    1.1900    0.9150 C.3     1  UNL1        0.0800
      2  C          5.6450    0.3720    1.9380 C.2     1  UNL1        0.1300
      3  C          6.2610   -0.8470    2.5270 C.3     1  UNL1        0.0870
      4  O          4.5300    0.6820    2.3260 O.2     1  UNL1       -0.3000
      5  C          5.8400    0.8910   -0.4800 C.3     1  UNL1        0.0430
      6  C          6.7980    0.0830   -1.2540 C.2     1  UNL1       -0.0440
      7  C          7.4860    0.6130   -2.3520 C.2     1  UNL1        0.0080
      8  C          7.0330   -1.2250   -0.8960 C.2     1  UNL1        0.0540
      9  C          8.3750   -0.1930   -3.0400 C.2     1  UNL1        0.0510
     10  C          7.9330   -2.0360   -1.5950 C.2     1  UNL1        0.1660
     11  C          8.6090   -1.5150   -2.6760 C.2     1  UNL1        0.1650
     12  O          8.3330   -3.3460   -1.4400 O.2     1  UNL1       -0.4540
     13  O          9.4200   -2.5270   -3.1660 O.2     1  UNL1       -0.4540
     14  C          9.3440   -3.6760   -2.3580 C.3     1  UNL1        0.4680
@<TRIPOS>BOND
     1    13    11    1
     2    13    14    1
     3     9    11    2
     4     9     7    1
     5    11    10    1
     6    14    12    1
     7     7     6    2
     8    10    12    1
     9    10     8    2
    10     6     8    1
    11     6     5    1
    12     5     1    1
    13     1     2    1
    14     2     4    2
    15     2     3    1
