@<TRIPOS>MOLECULE
/home/cewinharhar/GITHUB/reincatalyze/data/processed/docking_pred/2023-May-30-2130_sub9_nm5_bs15_s42_ex16_mel10_mts10000_k50_ec05_g099_lra3e-4_lrc3e-3/d98db6e7330c4682e6208573911aa9edae27e8f4_ligand_9.pdbqt
 14 15 0 0 0
SMALL
GASTEIGER

@<TRIPOS>ATOM
      1  C          6.8290    0.9670    1.2370 C.3     1  UNL1        0.0800
      2  C          5.3700    1.2080    1.4140 C.2     1  UNL1        0.1300
      3  C          4.6220    2.1490    0.5390 C.3     1  UNL1        0.0870
      4  O          4.7420    0.6340    2.2900 O.2     1  UNL1       -0.3000
      5  C          7.2330    1.0830   -0.2190 C.3     1  UNL1        0.0430
      6  C          7.5920   -0.2260   -0.7930 C.2     1  UNL1       -0.0440
      7  C          7.5980   -0.4440   -2.1750 C.2     1  UNL1        0.0080
      8  C          7.9340   -1.2660    0.0420 C.2     1  UNL1        0.0540
      9  C          7.9440   -1.6940   -2.6560 C.2     1  UNL1        0.0510
     10  C          8.2830   -2.5270   -0.4490 C.2     1  UNL1        0.1660
     11  C          8.2880   -2.7430   -1.8090 C.2     1  UNL1        0.1650
     12  O          8.6550   -3.7050    0.1650 O.2     1  UNL1       -0.4540
     13  O          8.6680   -4.0620   -2.0040 O.2     1  UNL1       -0.4540
     14  C          8.9980   -4.6820   -0.7840 C.3     1  UNL1        0.4680
@<TRIPOS>BOND
     1     9     7    1
     2     9    11    2
     3     7     6    2
     4    13    11    1
     5    13    14    1
     6    11    10    1
     7     6     5    1
     8     6     8    1
     9    14    12    1
    10    10     8    2
    11    10    12    1
    12     5     1    1
    13     3     2    1
    14     1     2    1
    15     2     4    2
