MODEL 1
REMARK VINA RESULT:      -7.6      0.000      0.000
REMARK SMILES CC(=O)CCc1ccc2c(c1)OCO2
REMARK SMILES IDX 4 1 2 2 1 3 3 4 5 5 6 6 7 7 11 8 8 9 10 10 9 11 12 12 14 13
REMARK SMILES IDX 13 14
REMARK H PARENT
REMARK Flexibility Score: inf
ROOT
ATOM      1  C   UNL     1       5.505   1.917   1.267  1.00  0.00     0.080 C 
ENDROOT
BRANCH   1   2
ATOM      2  C   UNL     1       5.042   0.704   1.997  1.00  0.00     0.130 C 
ATOM      3  C   UNL     1       5.901  -0.503   2.130  1.00  0.00     0.087 C 
ATOM      4  O   UNL     1       3.936   0.667   2.511  1.00  0.00    -0.300 OA
ENDBRANCH   1   2
BRANCH   1   5
ATOM      5  C   UNL     1       5.386   1.735  -0.233  1.00  0.00     0.043 C 
BRANCH   5   6
ATOM      6  C   UNL     1       6.556   1.035  -0.793  1.00  0.00    -0.044 A 
ATOM      7  C   UNL     1       7.862   1.471  -0.540  1.00  0.00     0.008 A 
ATOM      8  C   UNL     1       6.372  -0.076  -1.584  1.00  0.00     0.054 A 
ATOM      9  C   UNL     1       8.921   0.774  -1.091  1.00  0.00     0.051 A 
ATOM     10  C   UNL     1       7.447  -0.778  -2.138  1.00  0.00     0.166 A 
ATOM     11  C   UNL     1       8.731  -0.349  -1.891  1.00  0.00     0.165 A 
ATOM     12  O   UNL     1       7.524  -1.894  -2.945  1.00  0.00    -0.454 OA
ATOM     13  O   UNL     1       9.580  -1.220  -2.556  1.00  0.00    -0.454 OA
ATOM     14  C   UNL     1       8.861  -2.267  -3.163  1.00  0.00     0.468 C 
ENDBRANCH   5   6
ENDBRANCH   1   5
TORSDOF 3
ENDMDL
MODEL 2
REMARK VINA RESULT:      -7.4      1.954      2.463
REMARK SMILES CC(=O)CCc1ccc2c(c1)OCO2
REMARK SMILES IDX 4 1 2 2 1 3 3 4 5 5 6 6 7 7 11 8 8 9 10 10 9 11 12 12 14 13
REMARK SMILES IDX 13 14
REMARK H PARENT
REMARK Flexibility Score: inf
ROOT
ATOM      1  C   UNL     1       5.702   1.264  -0.410  1.00  0.00     0.080 C 
ENDROOT
BRANCH   1   2
ATOM      2  C   UNL     1       5.087   1.264   0.947  1.00  0.00     0.130 C 
ATOM      3  C   UNL     1       5.380   0.194   1.937  1.00  0.00     0.087 C 
ATOM      4  O   UNL     1       4.320   2.150   1.287  1.00  0.00    -0.300 OA
ENDBRANCH   1   2
BRANCH   1   5
ATOM      5  C   UNL     1       7.198   1.032  -0.337  1.00  0.00     0.043 C 
BRANCH   5   6
ATOM      6  C   UNL     1       7.578  -0.268  -0.918  1.00  0.00    -0.044 A 
ATOM      7  C   UNL     1       7.599  -0.475  -2.302  1.00  0.00     0.008 A 
ATOM      8  C   UNL     1       7.926  -1.310  -0.088  1.00  0.00     0.054 A 
ATOM      9  C   UNL     1       7.965  -1.716  -2.789  1.00  0.00     0.051 A 
ATOM     10  C   UNL     1       8.296  -2.563  -0.586  1.00  0.00     0.166 A 
ATOM     11  C   UNL     1       8.315  -2.768  -1.948  1.00  0.00     0.165 A 
ATOM     12  O   UNL     1       8.677  -3.741   0.022  1.00  0.00    -0.454 OA
ATOM     13  O   UNL     1       8.713  -4.080  -2.150  1.00  0.00    -0.454 OA
ATOM     14  C   UNL     1       9.040  -4.706  -0.932  1.00  0.00     0.468 C 
ENDBRANCH   5   6
ENDBRANCH   1   5
TORSDOF 3
ENDMDL
MODEL 3
REMARK VINA RESULT:      -7.2      2.058      2.630
REMARK SMILES CC(=O)CCc1ccc2c(c1)OCO2
REMARK SMILES IDX 4 1 2 2 1 3 3 4 5 5 6 6 7 7 11 8 8 9 10 10 9 11 12 12 14 13
REMARK SMILES IDX 13 14
REMARK H PARENT
REMARK Flexibility Score: inf
ROOT
ATOM      1  C   UNL     1       5.411  -0.061   2.034  1.00  0.00     0.080 C 
ENDROOT
BRANCH   1   2
ATOM      2  C   UNL     1       4.556   1.130   1.770  1.00  0.00     0.130 C 
ATOM      3  C   UNL     1       4.894   2.114   0.707  1.00  0.00     0.087 C 
ATOM      4  O   UNL     1       3.546   1.335   2.425  1.00  0.00    -0.300 OA
ENDBRANCH   1   2
BRANCH   1   5
ATOM      5  C   UNL     1       6.847   0.190   1.620  1.00  0.00     0.043 C 
BRANCH   5   6
ATOM      6  C   UNL     1       7.277  -0.732   0.554  1.00  0.00    -0.044 A 
ATOM      7  C   UNL     1       7.158  -0.395  -0.800  1.00  0.00     0.008 A 
ATOM      8  C   UNL     1       7.812  -1.956   0.885  1.00  0.00     0.054 A 
ATOM      9  C   UNL     1       7.579  -1.301  -1.756  1.00  0.00     0.051 A 
ATOM     10  C   UNL     1       8.237  -2.868  -0.086  1.00  0.00     0.166 A 
ATOM     11  C   UNL     1       8.119  -2.538  -1.417  1.00  0.00     0.165 A 
ATOM     12  O   UNL     1       8.792  -4.128  -0.013  1.00  0.00    -0.454 OA
ATOM     13  O   UNL     1       8.611  -3.612  -2.142  1.00  0.00    -0.454 OA
ATOM     14  C   UNL     1       9.131  -4.604  -1.290  1.00  0.00     0.468 C 
ENDBRANCH   5   6
ENDBRANCH   1   5
TORSDOF 3
ENDMDL
MODEL 4
REMARK VINA RESULT:      -7.1      1.982      2.549
REMARK SMILES CC(=O)CCc1ccc2c(c1)OCO2
REMARK SMILES IDX 4 1 2 2 1 3 3 4 5 5 6 6 7 7 11 8 8 9 10 10 9 11 12 12 14 13
REMARK SMILES IDX 13 14
REMARK H PARENT
REMARK Flexibility Score: inf
ROOT
ATOM      1  C   UNL     1       6.756   0.704   1.374  1.00  0.00     0.080 C 
ENDROOT
BRANCH   1   2
ATOM      2  C   UNL     1       5.327   1.104   1.503  1.00  0.00     0.130 C 
ATOM      3  C   UNL     1       4.727   2.150   0.633  1.00  0.00     0.087 C 
ATOM      4  O   UNL     1       4.603   0.580   2.334  1.00  0.00    -0.300 OA
ENDBRANCH   1   2
BRANCH   1   5
ATOM      5  C   UNL     1       7.267   0.936  -0.034  1.00  0.00     0.043 C 
BRANCH   5   6
ATOM      6  C   UNL     1       7.612  -0.329  -0.706  1.00  0.00    -0.044 A 
ATOM      7  C   UNL     1       7.616  -0.442  -2.101  1.00  0.00     0.008 A 
ATOM      8  C   UNL     1       7.943  -1.433   0.047  1.00  0.00     0.054 A 
ATOM      9  C   UNL     1       7.948  -1.655  -2.675  1.00  0.00     0.051 A 
ATOM     10  C   UNL     1       8.279  -2.657  -0.538  1.00  0.00     0.166 A 
ATOM     11  C   UNL     1       8.281  -2.769  -1.911  1.00  0.00     0.165 A 
ATOM     12  O   UNL     1       8.638  -3.882  -0.016  1.00  0.00    -0.454 OA
ATOM     13  O   UNL     1       8.647  -4.073  -2.206  1.00  0.00    -0.454 OA
ATOM     14  C   UNL     1       8.970  -4.787  -1.037  1.00  0.00     0.468 C 
ENDBRANCH   5   6
ENDBRANCH   1   5
TORSDOF 3
ENDMDL
MODEL 5
REMARK VINA RESULT:      -7.1      1.259      1.473
REMARK SMILES CC(=O)CCc1ccc2c(c1)OCO2
REMARK SMILES IDX 4 1 2 2 1 3 3 4 5 5 6 6 7 7 11 8 8 9 10 10 9 11 12 12 14 13
REMARK SMILES IDX 13 14
REMARK H PARENT
REMARK Flexibility Score: inf
ROOT
ATOM      1  C   UNL     1       6.374   1.227   0.918  1.00  0.00     0.080 C 
ENDROOT
BRANCH   1   2
ATOM      2  C   UNL     1       5.650   0.409   1.931  1.00  0.00     0.130 C 
ATOM      3  C   UNL     1       6.259  -0.809   2.530  1.00  0.00     0.087 C 
ATOM      4  O   UNL     1       4.529   0.717   2.301  1.00  0.00    -0.300 OA
ENDBRANCH   1   2
BRANCH   1   5
ATOM      5  C   UNL     1       5.869   0.941  -0.483  1.00  0.00     0.043 C 
BRANCH   5   6
ATOM      6  C   UNL     1       6.818   0.111  -1.246  1.00  0.00    -0.044 A 
ATOM      7  C   UNL     1       7.509   0.617  -2.353  1.00  0.00     0.008 A 
ATOM      8  C   UNL     1       7.040  -1.194  -0.869  1.00  0.00     0.054 A 
ATOM      9  C   UNL     1       8.388  -0.208  -3.031  1.00  0.00     0.051 A 
ATOM     10  C   UNL     1       7.930  -2.024  -1.557  1.00  0.00     0.166 A 
ATOM     11  C   UNL     1       8.609  -1.527  -2.647  1.00  0.00     0.165 A 
ATOM     12  O   UNL     1       8.317  -3.336  -1.383  1.00  0.00    -0.454 OA
ATOM     13  O   UNL     1       9.408  -2.554  -3.124  1.00  0.00    -0.454 OA
ATOM     14  C   UNL     1       9.322  -3.691  -2.297  1.00  0.00     0.468 C 
ENDBRANCH   5   6
ENDBRANCH   1   5
TORSDOF 3
ENDMDL
