@<TRIPOS>MOLECULE
/home/cewinharhar/GITHUB/reincatalyze/data/processed/docking_pred/2023-May-30-2130_sub9_nm5_bs15_s42_ex16_mel10_mts10000_k50_ec05_g099_lra3e-4_lrc3e-3/db57195a81496af8cffcd6b4d9524a1fe0637e4f_ligand_9.pdbqt
 14 15 0 0 0
SMALL
GASTEIGER

@<TRIPOS>ATOM
      1  C          6.3920    1.2070    0.9270 C.3     1  UNL1        0.0800
      2  C          5.6570    0.3970    1.9380 C.2     1  UNL1        0.1300
      3  C          6.2510   -0.8260    2.5410 C.3     1  UNL1        0.0870
      4  O          4.5370    0.7160    2.3030 O.2     1  UNL1       -0.3000
      5  C          5.8830    0.9320   -0.4740 C.3     1  UNL1        0.0430
      6  C          6.8220    0.0940   -1.2420 C.2     1  UNL1       -0.0440
      7  C          7.4930    0.5880   -2.3660 C.2     1  UNL1        0.0080
      8  C          7.0530   -1.2050   -0.8510 C.2     1  UNL1        0.0540
      9  C          8.3630   -0.2440   -3.0470 C.2     1  UNL1        0.0510
     10  C          7.9350   -2.0420   -1.5420 C.2     1  UNL1        0.1660
     11  C          8.5940   -1.5570   -2.6500 C.2     1  UNL1        0.1650
     12  O          8.3280   -3.3500   -1.3570 O.2     1  UNL1       -0.4540
     13  O          9.3890   -2.5890   -3.1260 O.2     1  UNL1       -0.4540
     14  C          9.3200   -3.7140   -2.2830 C.3     1  UNL1        0.4680
@<TRIPOS>BOND
     1    13    11    1
     2    13    14    1
     3     9    11    2
     4     9     7    1
     5    11    10    1
     6     7     6    2
     7    14    12    1
     8    10    12    1
     9    10     8    2
    10     6     8    1
    11     6     5    1
    12     5     1    1
    13     1     2    1
    14     2     4    2
    15     2     3    1
