@<TRIPOS>MOLECULE
/home/cewinharhar/GITHUB/reincatalyze/data/processed/docking_pred/2023-May-30-2130_sub9_nm5_bs15_s42_ex16_mel10_mts10000_k50_ec05_g099_lra3e-4_lrc3e-3/db57195a81496af8cffcd6b4d9524a1fe0637e4f_ligand_9.pdbqt
 14 15 0 0 0
SMALL
GASTEIGER

@<TRIPOS>ATOM
      1  C          5.5940    0.1050    2.0840 C.3     1  UNL1        0.0800
      2  C          4.5650    1.1460    1.8070 C.2     1  UNL1        0.1300
      3  C          4.7420    2.1500    0.7240 C.3     1  UNL1        0.0870
      4  O          3.5400    1.2060    2.4670 O.2     1  UNL1       -0.3000
      5  C          6.9300    0.4750    1.4720 C.3     1  UNL1        0.0430
      6  C          7.2630   -0.3880    0.3240 C.2     1  UNL1       -0.0440
      7  C          7.0200    0.0190   -0.9930 C.2     1  UNL1        0.0080
      8  C          7.8280   -1.6240    0.5410 C.2     1  UNL1        0.0540
      9  C          7.3540   -0.8330   -2.0300 C.2     1  UNL1        0.0510
     10  C          8.1640   -2.4810   -0.5110 C.2     1  UNL1        0.1660
     11  C          7.9240   -2.0830   -1.8070 C.2     1  UNL1        0.1650
     12  O          8.7250   -3.7400   -0.5550 O.2     1  UNL1       -0.4540
     13  O          8.3500   -3.1150   -2.6290 O.2     1  UNL1       -0.4540
     14  C          8.9480   -4.1470   -1.8810 C.3     1  UNL1        0.4680
@<TRIPOS>BOND
     1    13    14    1
     2    13    11    1
     3     9    11    2
     4     9     7    1
     5    14    12    1
     6    11    10    1
     7     7     6    2
     8    12    10    1
     9    10     8    2
    10     6     8    1
    11     6     5    1
    12     3     2    1
    13     5     1    1
    14     2     1    1
    15     2     4    2
