@<TRIPOS>MOLECULE
/home/cewinharhar/GITHUB/reincatalyze/data/processed/docking_pred/2023-May-30-2130_sub9_nm5_bs15_s42_ex16_mel10_mts10000_k50_ec05_g099_lra3e-4_lrc3e-3/db57195a81496af8cffcd6b4d9524a1fe0637e4f_ligand_9.pdbqt
 14 15 0 0 0
SMALL
GASTEIGER

@<TRIPOS>ATOM
      1  C          5.3100   -0.0870    1.9700 C.3     1  UNL1        0.0800
      2  C          4.4550    1.1210    1.8010 C.2     1  UNL1        0.1300
      3  C          4.7500    2.1480    0.7660 C.3     1  UNL1        0.0870
      4  O          3.4810    1.3040    2.5130 O.2     1  UNL1       -0.3000
      5  C          6.7830    0.2700    1.9210 C.3     1  UNL1        0.0430
      6  C          7.3840   -0.0680    0.6190 C.2     1  UNL1       -0.0440
      7  C          7.8550    0.9230   -0.2500 C.2     1  UNL1        0.0080
      8  C          7.4920   -1.3860    0.2390 C.2     1  UNL1        0.0540
      9  C          8.4110    0.5460   -1.4590 C.2     1  UNL1        0.0510
     10  C          8.0560   -1.7630   -0.9840 C.2     1  UNL1        0.1660
     11  C          8.5180   -0.7880   -1.8400 C.2     1  UNL1        0.1650
     12  O          8.2730   -2.9860   -1.5820 O.2     1  UNL1       -0.4540
     13  O          9.0160   -1.4400   -2.9570 O.2     1  UNL1       -0.4540
     14  C          8.9630   -2.8380   -2.7960 C.3     1  UNL1        0.4680
@<TRIPOS>BOND
     1    13    14    1
     2    13    11    1
     3    14    12    1
     4    11     9    2
     5    11    10    1
     6    12    10    1
     7     9     7    1
     8    10     8    2
     9     7     6    2
    10     8     6    1
    11     6     5    1
    12     3     2    1
    13     2     1    1
    14     2     4    2
    15     5     1    1
