@<TRIPOS>MOLECULE
/home/cewinharhar/GITHUB/reincatalyze/data/processed/docking_pred/2023-May-30-2130_sub9_nm5_bs15_s42_ex16_mel10_mts10000_k50_ec05_g099_lra3e-4_lrc3e-3/db57195a81496af8cffcd6b4d9524a1fe0637e4f_ligand_9.pdbqt
 14 15 0 0 0
SMALL
GASTEIGER

@<TRIPOS>ATOM
      1  C          5.7120    1.7900   -0.0770 C.3     1  UNL1        0.0800
      2  C          4.9900    1.3620    1.1540 C.2     1  UNL1        0.1300
      3  C          5.4090    0.1630    1.9270 C.3     1  UNL1        0.0870
      4  O          4.0260    1.9880    1.5640 O.2     1  UNL1       -0.3000
      5  C          7.1840    1.4350   -0.0040 C.3     1  UNL1        0.0430
      6  C          7.4900    0.2120   -0.7680 C.2     1  UNL1       -0.0440
      7  C          7.4020    0.1800   -2.1650 C.2     1  UNL1        0.0080
      8  C          7.8730   -0.9300   -0.1040 C.2     1  UNL1        0.0540
      9  C          7.7020   -0.9950   -2.8290 C.2     1  UNL1        0.0510
     10  C          8.1760   -2.1160   -0.7800 C.2     1  UNL1        0.1660
     11  C          8.0890   -2.1480   -2.1540 C.2     1  UNL1        0.1650
     12  O          8.5740   -3.3650   -0.3540 O.2     1  UNL1       -0.4540
     13  O          8.4410   -3.4300   -2.5470 O.2     1  UNL1       -0.4540
     14  C          8.8430   -4.2080   -1.4450 C.3     1  UNL1        0.4680
@<TRIPOS>BOND
     1     9     7    1
     2     9    11    2
     3    13    11    1
     4    13    14    1
     5     7     6    2
     6    11    10    1
     7    14    12    1
     8    10    12    1
     9    10     8    2
    10     6     8    1
    11     6     5    1
    12     1     5    1
    13     1     2    1
    14     2     4    2
    15     2     3    1
