MODEL 1
REMARK VINA RESULT:      -7.6      0.000      0.000
REMARK SMILES CC(=O)CCc1ccc2c(c1)OCO2
REMARK SMILES IDX 4 1 2 2 1 3 3 4 5 5 6 6 7 7 11 8 8 9 10 10 9 11 12 12 14 13
REMARK SMILES IDX 13 14
REMARK H PARENT
REMARK Flexibility Score: inf
ROOT
ATOM      1  C   UNL     1       5.546   1.928   1.270  1.00  0.00     0.080 C 
ENDROOT
BRANCH   1   2
ATOM      2  C   UNL     1       5.125   0.705   2.009  1.00  0.00     0.130 C 
ATOM      3  C   UNL     1       6.041  -0.454   2.187  1.00  0.00     0.087 C 
ATOM      4  O   UNL     1       4.008   0.618   2.493  1.00  0.00    -0.300 OA
ENDBRANCH   1   2
BRANCH   1   5
ATOM      5  C   UNL     1       5.416   1.737  -0.229  1.00  0.00     0.043 C 
BRANCH   5   6
ATOM      6  C   UNL     1       6.580   1.028  -0.792  1.00  0.00    -0.044 A 
ATOM      7  C   UNL     1       7.890   1.450  -0.534  1.00  0.00     0.008 A 
ATOM      8  C   UNL     1       6.386  -0.077  -1.589  1.00  0.00     0.054 A 
ATOM      9  C   UNL     1       8.942   0.745  -1.089  1.00  0.00     0.051 A 
ATOM     10  C   UNL     1       7.454  -0.786  -2.147  1.00  0.00     0.166 A 
ATOM     11  C   UNL     1       8.742  -0.371  -1.895  1.00  0.00     0.165 A 
ATOM     12  O   UNL     1       7.521  -1.898  -2.959  1.00  0.00    -0.454 OA
ATOM     13  O   UNL     1       9.583  -1.246  -2.565  1.00  0.00    -0.454 OA
ATOM     14  C   UNL     1       8.854  -2.283  -3.178  1.00  0.00     0.468 C 
ENDBRANCH   5   6
ENDBRANCH   1   5
TORSDOF 3
ENDMDL
MODEL 2
REMARK VINA RESULT:      -7.1      1.263      1.484
REMARK SMILES CC(=O)CCc1ccc2c(c1)OCO2
REMARK SMILES IDX 4 1 2 2 1 3 3 4 5 5 6 6 7 7 11 8 8 9 10 10 9 11 12 12 14 13
REMARK SMILES IDX 13 14
REMARK H PARENT
REMARK Flexibility Score: inf
ROOT
ATOM      1  C   UNL     1       6.392   1.207   0.927  1.00  0.00     0.080 C 
ENDROOT
BRANCH   1   2
ATOM      2  C   UNL     1       5.657   0.397   1.938  1.00  0.00     0.130 C 
ATOM      3  C   UNL     1       6.251  -0.826   2.541  1.00  0.00     0.087 C 
ATOM      4  O   UNL     1       4.537   0.716   2.303  1.00  0.00    -0.300 OA
ENDBRANCH   1   2
BRANCH   1   5
ATOM      5  C   UNL     1       5.883   0.932  -0.474  1.00  0.00     0.043 C 
BRANCH   5   6
ATOM      6  C   UNL     1       6.822   0.094  -1.242  1.00  0.00    -0.044 A 
ATOM      7  C   UNL     1       7.493   0.588  -2.366  1.00  0.00     0.008 A 
ATOM      8  C   UNL     1       7.053  -1.205  -0.851  1.00  0.00     0.054 A 
ATOM      9  C   UNL     1       8.363  -0.244  -3.047  1.00  0.00     0.051 A 
ATOM     10  C   UNL     1       7.935  -2.042  -1.542  1.00  0.00     0.166 A 
ATOM     11  C   UNL     1       8.594  -1.557  -2.650  1.00  0.00     0.165 A 
ATOM     12  O   UNL     1       8.328  -3.350  -1.357  1.00  0.00    -0.454 OA
ATOM     13  O   UNL     1       9.389  -2.589  -3.126  1.00  0.00    -0.454 OA
ATOM     14  C   UNL     1       9.320  -3.714  -2.283  1.00  0.00     0.468 C 
ENDBRANCH   5   6
ENDBRANCH   1   5
TORSDOF 3
ENDMDL
MODEL 3
REMARK VINA RESULT:      -6.9      1.747      2.308
REMARK SMILES CC(=O)CCc1ccc2c(c1)OCO2
REMARK SMILES IDX 4 1 2 2 1 3 3 4 5 5 6 6 7 7 11 8 8 9 10 10 9 11 12 12 14 13
REMARK SMILES IDX 13 14
REMARK H PARENT
REMARK Flexibility Score: inf
ROOT
ATOM      1  C   UNL     1       5.594   0.105   2.084  1.00  0.00     0.080 C 
ENDROOT
BRANCH   1   2
ATOM      2  C   UNL     1       4.565   1.146   1.807  1.00  0.00     0.130 C 
ATOM      3  C   UNL     1       4.742   2.150   0.724  1.00  0.00     0.087 C 
ATOM      4  O   UNL     1       3.540   1.206   2.467  1.00  0.00    -0.300 OA
ENDBRANCH   1   2
BRANCH   1   5
ATOM      5  C   UNL     1       6.930   0.475   1.472  1.00  0.00     0.043 C 
BRANCH   5   6
ATOM      6  C   UNL     1       7.263  -0.388   0.324  1.00  0.00    -0.044 A 
ATOM      7  C   UNL     1       7.020   0.019  -0.993  1.00  0.00     0.008 A 
ATOM      8  C   UNL     1       7.828  -1.624   0.541  1.00  0.00     0.054 A 
ATOM      9  C   UNL     1       7.354  -0.833  -2.030  1.00  0.00     0.051 A 
ATOM     10  C   UNL     1       8.164  -2.481  -0.511  1.00  0.00     0.166 A 
ATOM     11  C   UNL     1       7.924  -2.083  -1.807  1.00  0.00     0.165 A 
ATOM     12  O   UNL     1       8.725  -3.740  -0.555  1.00  0.00    -0.454 OA
ATOM     13  O   UNL     1       8.350  -3.115  -2.629  1.00  0.00    -0.454 OA
ATOM     14  C   UNL     1       8.948  -4.147  -1.881  1.00  0.00     0.468 C 
ENDBRANCH   5   6
ENDBRANCH   1   5
TORSDOF 3
ENDMDL
MODEL 4
REMARK VINA RESULT:      -6.9      1.645      2.058
REMARK SMILES CC(=O)CCc1ccc2c(c1)OCO2
REMARK SMILES IDX 4 1 2 2 1 3 3 4 5 5 6 6 7 7 11 8 8 9 10 10 9 11 12 12 14 13
REMARK SMILES IDX 13 14
REMARK H PARENT
REMARK Flexibility Score: inf
ROOT
ATOM      1  C   UNL     1       5.712   1.790  -0.077  1.00  0.00     0.080 C 
ENDROOT
BRANCH   1   2
ATOM      2  C   UNL     1       4.990   1.362   1.154  1.00  0.00     0.130 C 
ATOM      3  C   UNL     1       5.409   0.163   1.927  1.00  0.00     0.087 C 
ATOM      4  O   UNL     1       4.026   1.988   1.564  1.00  0.00    -0.300 OA
ENDBRANCH   1   2
BRANCH   1   5
ATOM      5  C   UNL     1       7.184   1.435  -0.004  1.00  0.00     0.043 C 
BRANCH   5   6
ATOM      6  C   UNL     1       7.490   0.212  -0.768  1.00  0.00    -0.044 A 
ATOM      7  C   UNL     1       7.402   0.180  -2.165  1.00  0.00     0.008 A 
ATOM      8  C   UNL     1       7.873  -0.930  -0.104  1.00  0.00     0.054 A 
ATOM      9  C   UNL     1       7.702  -0.995  -2.829  1.00  0.00     0.051 A 
ATOM     10  C   UNL     1       8.176  -2.116  -0.780  1.00  0.00     0.166 A 
ATOM     11  C   UNL     1       8.089  -2.148  -2.154  1.00  0.00     0.165 A 
ATOM     12  O   UNL     1       8.574  -3.365  -0.354  1.00  0.00    -0.454 OA
ATOM     13  O   UNL     1       8.441  -3.430  -2.547  1.00  0.00    -0.454 OA
ATOM     14  C   UNL     1       8.843  -4.208  -1.445  1.00  0.00     0.468 C 
ENDBRANCH   5   6
ENDBRANCH   1   5
TORSDOF 3
ENDMDL
MODEL 5
REMARK VINA RESULT:      -6.7      1.265      1.764
REMARK SMILES CC(=O)CCc1ccc2c(c1)OCO2
REMARK SMILES IDX 4 1 2 2 1 3 3 4 5 5 6 6 7 7 11 8 8 9 10 10 9 11 12 12 14 13
REMARK SMILES IDX 13 14
REMARK H PARENT
REMARK Flexibility Score: inf
ROOT
ATOM      1  C   UNL     1       5.310  -0.087   1.970  1.00  0.00     0.080 C 
ENDROOT
BRANCH   1   2
ATOM      2  C   UNL     1       4.455   1.121   1.801  1.00  0.00     0.130 C 
ATOM      3  C   UNL     1       4.750   2.148   0.766  1.00  0.00     0.087 C 
ATOM      4  O   UNL     1       3.481   1.304   2.513  1.00  0.00    -0.300 OA
ENDBRANCH   1   2
BRANCH   1   5
ATOM      5  C   UNL     1       6.783   0.270   1.921  1.00  0.00     0.043 C 
BRANCH   5   6
ATOM      6  C   UNL     1       7.384  -0.068   0.619  1.00  0.00    -0.044 A 
ATOM      7  C   UNL     1       7.855   0.923  -0.250  1.00  0.00     0.008 A 
ATOM      8  C   UNL     1       7.492  -1.386   0.239  1.00  0.00     0.054 A 
ATOM      9  C   UNL     1       8.411   0.546  -1.459  1.00  0.00     0.051 A 
ATOM     10  C   UNL     1       8.056  -1.763  -0.984  1.00  0.00     0.166 A 
ATOM     11  C   UNL     1       8.518  -0.788  -1.840  1.00  0.00     0.165 A 
ATOM     12  O   UNL     1       8.273  -2.986  -1.582  1.00  0.00    -0.454 OA
ATOM     13  O   UNL     1       9.016  -1.440  -2.957  1.00  0.00    -0.454 OA
ATOM     14  C   UNL     1       8.963  -2.838  -2.796  1.00  0.00     0.468 C 
ENDBRANCH   5   6
ENDBRANCH   1   5
TORSDOF 3
ENDMDL
