@<TRIPOS>MOLECULE
/home/cewinharhar/GITHUB/reincatalyze/data/processed/docking_pred/2023-May-30-2130_sub9_nm5_bs15_s42_ex16_mel10_mts10000_k50_ec05_g099_lra3e-4_lrc3e-3/db57195a81496af8cffcd6b4d9524a1fe0637e4f_ligand_9.pdbqt
 14 15 0 0 0
SMALL
GASTEIGER

@<TRIPOS>ATOM
      1  C          5.5460    1.9280    1.2700 C.3     1  UNL1        0.0800
      2  C          5.1250    0.7050    2.0090 C.2     1  UNL1        0.1300
      3  C          6.0410   -0.4540    2.1870 C.3     1  UNL1        0.0870
      4  O          4.0080    0.6180    2.4930 O.2     1  UNL1       -0.3000
      5  C          5.4160    1.7370   -0.2290 C.3     1  UNL1        0.0430
      6  C          6.5800    1.0280   -0.7920 C.2     1  UNL1       -0.0440
      7  C          7.8900    1.4500   -0.5340 C.2     1  UNL1        0.0080
      8  C          6.3860   -0.0770   -1.5890 C.2     1  UNL1        0.0540
      9  C          8.9420    0.7450   -1.0890 C.2     1  UNL1        0.0510
     10  C          7.4540   -0.7860   -2.1470 C.2     1  UNL1        0.1660
     11  C          8.7420   -0.3710   -1.8950 C.2     1  UNL1        0.1650
     12  O          7.5210   -1.8980   -2.9590 O.2     1  UNL1       -0.4540
     13  O          9.5830   -1.2460   -2.5650 O.2     1  UNL1       -0.4540
     14  C          8.8540   -2.2830   -3.1780 C.3     1  UNL1        0.4680
@<TRIPOS>BOND
     1    14    12    1
     2    14    13    1
     3    12    10    1
     4    13    11    1
     5    10    11    2
     6    10     8    1
     7    11     9    1
     8     8     6    2
     9     9     7    2
    10     6     7    1
    11     6     5    1
    12     5     1    1
    13     1     2    1
    14     2     3    1
    15     2     4    2
