MODEL 1
REMARK VINA RESULT:      -7.6      0.000      0.000
REMARK SMILES CC(=O)CCc1ccc2c(c1)OCO2
REMARK SMILES IDX 4 1 2 2 1 3 3 4 5 5 6 6 7 7 11 8 8 9 10 10 9 11 12 12 14 13
REMARK SMILES IDX 13 14
REMARK H PARENT
REMARK Flexibility Score: inf
ROOT
ATOM      1  C   UNL     1       5.551   1.908   1.279  1.00  0.00     0.080 C 
ENDROOT
BRANCH   1   2
ATOM      2  C   UNL     1       5.107   0.693   2.017  1.00  0.00     0.130 C 
ATOM      3  C   UNL     1       6.000  -0.484   2.192  1.00  0.00     0.087 C 
ATOM      4  O   UNL     1       3.989   0.628   2.502  1.00  0.00    -0.300 OA
ENDBRANCH   1   2
BRANCH   1   5
ATOM      5  C   UNL     1       5.416   1.722  -0.220  1.00  0.00     0.043 C 
BRANCH   5   6
ATOM      6  C   UNL     1       6.581   1.022  -0.791  1.00  0.00    -0.044 A 
ATOM      7  C   UNL     1       7.889   1.455  -0.546  1.00  0.00     0.008 A 
ATOM      8  C   UNL     1       6.389  -0.088  -1.582  1.00  0.00     0.054 A 
ATOM      9  C   UNL     1       8.943   0.757  -1.108  1.00  0.00     0.051 A 
ATOM     10  C   UNL     1       7.458  -0.790  -2.147  1.00  0.00     0.166 A 
ATOM     11  C   UNL     1       8.745  -0.364  -1.908  1.00  0.00     0.165 A 
ATOM     12  O   UNL     1       7.527  -1.904  -2.957  1.00  0.00    -0.454 OA
ATOM     13  O   UNL     1       9.587  -1.234  -2.582  1.00  0.00    -0.454 OA
ATOM     14  C   UNL     1       8.861  -2.279  -3.186  1.00  0.00     0.468 C 
ENDBRANCH   5   6
ENDBRANCH   1   5
TORSDOF 3
ENDMDL
MODEL 2
REMARK VINA RESULT:      -7.4      1.963      2.408
REMARK SMILES CC(=O)CCc1ccc2c(c1)OCO2
REMARK SMILES IDX 4 1 2 2 1 3 3 4 5 5 6 6 7 7 11 8 8 9 10 10 9 11 12 12 14 13
REMARK SMILES IDX 13 14
REMARK H PARENT
REMARK Flexibility Score: inf
ROOT
ATOM      1  C   UNL     1       5.807   1.354  -0.199  1.00  0.00     0.080 C 
ENDROOT
BRANCH   1   2
ATOM      2  C   UNL     1       5.130   1.243   1.123  1.00  0.00     0.130 C 
ATOM      3  C   UNL     1       5.271   0.031   1.974  1.00  0.00     0.087 C 
ATOM      4  O   UNL     1       4.433   2.150   1.549  1.00  0.00    -0.300 OA
ENDBRANCH   1   2
BRANCH   1   5
ATOM      5  C   UNL     1       7.288   1.050  -0.086  1.00  0.00     0.043 C 
BRANCH   5   6
ATOM      6  C   UNL     1       7.633  -0.229  -0.732  1.00  0.00    -0.044 A 
ATOM      7  C   UNL     1       7.638  -0.369  -2.124  1.00  0.00     0.008 A 
ATOM      8  C   UNL     1       7.964  -1.318   0.043  1.00  0.00     0.054 A 
ATOM      9  C   UNL     1       7.971  -1.594  -2.674  1.00  0.00     0.051 A 
ATOM     10  C   UNL     1       8.301  -2.553  -0.518  1.00  0.00     0.166 A 
ATOM     11  C   UNL     1       8.304  -2.692  -1.888  1.00  0.00     0.165 A 
ATOM     12  O   UNL     1       8.660  -3.767   0.029  1.00  0.00    -0.454 OA
ATOM     13  O   UNL     1       8.670  -4.002  -2.157  1.00  0.00    -0.454 OA
ATOM     14  C   UNL     1       8.993  -4.692  -0.974  1.00  0.00     0.468 C 
ENDBRANCH   5   6
ENDBRANCH   1   5
TORSDOF 3
ENDMDL
MODEL 3
REMARK VINA RESULT:      -7.1      2.088      2.610
REMARK SMILES CC(=O)CCc1ccc2c(c1)OCO2
REMARK SMILES IDX 4 1 2 2 1 3 3 4 5 5 6 6 7 7 11 8 8 9 10 10 9 11 12 12 14 13
REMARK SMILES IDX 13 14
REMARK H PARENT
REMARK Flexibility Score: inf
ROOT
ATOM      1  C   UNL     1       5.523  -0.033   1.939  1.00  0.00     0.080 C 
ENDROOT
BRANCH   1   2
ATOM      2  C   UNL     1       4.676   1.158   1.652  1.00  0.00     0.130 C 
ATOM      3  C   UNL     1       4.997   2.096   0.544  1.00  0.00     0.087 C 
ATOM      4  O   UNL     1       3.686   1.400   2.324  1.00  0.00    -0.300 OA
ENDBRANCH   1   2
BRANCH   1   5
ATOM      5  C   UNL     1       6.966   0.211   1.545  1.00  0.00     0.043 C 
BRANCH   5   6
ATOM      6  C   UNL     1       7.409  -0.718   0.489  1.00  0.00    -0.044 A 
ATOM      7  C   UNL     1       7.396  -0.352  -0.862  1.00  0.00     0.008 A 
ATOM      8  C   UNL     1       7.849  -1.977   0.829  1.00  0.00     0.054 A 
ATOM      9  C   UNL     1       7.823  -1.265  -1.808  1.00  0.00     0.051 A 
ATOM     10  C   UNL     1       8.281  -2.896  -0.132  1.00  0.00     0.166 A 
ATOM     11  C   UNL     1       8.267  -2.538  -1.461  1.00  0.00     0.165 A 
ATOM     12  O   UNL     1       8.756  -4.188  -0.050  1.00  0.00    -0.454 OA
ATOM     13  O   UNL     1       8.740  -3.627  -2.175  1.00  0.00    -0.454 OA
ATOM     14  C   UNL     1       9.147  -4.663  -1.313  1.00  0.00     0.468 C 
ENDBRANCH   5   6
ENDBRANCH   1   5
TORSDOF 3
ENDMDL
MODEL 4
REMARK VINA RESULT:      -7.1      1.235      1.435
REMARK SMILES CC(=O)CCc1ccc2c(c1)OCO2
REMARK SMILES IDX 4 1 2 2 1 3 3 4 5 5 6 6 7 7 11 8 8 9 10 10 9 11 12 12 14 13
REMARK SMILES IDX 13 14
REMARK H PARENT
REMARK Flexibility Score: inf
ROOT
ATOM      1  C   UNL     1       6.341   1.249   0.866  1.00  0.00     0.080 C 
ENDROOT
BRANCH   1   2
ATOM      2  C   UNL     1       5.647   0.431   1.899  1.00  0.00     0.130 C 
ATOM      3  C   UNL     1       6.268  -0.793   2.473  1.00  0.00     0.087 C 
ATOM      4  O   UNL     1       4.541   0.745   2.308  1.00  0.00    -0.300 OA
ENDBRANCH   1   2
BRANCH   1   5
ATOM      5  C   UNL     1       5.838   0.920  -0.526  1.00  0.00     0.043 C 
BRANCH   5   6
ATOM      6  C   UNL     1       6.809   0.106  -1.279  1.00  0.00    -0.044 A 
ATOM      7  C   UNL     1       7.539   0.639  -2.348  1.00  0.00     0.008 A 
ATOM      8  C   UNL     1       7.012  -1.210  -0.930  1.00  0.00     0.054 A 
ATOM      9  C   UNL     1       8.436  -0.173  -3.018  1.00  0.00     0.051 A 
ATOM     10  C   UNL     1       7.922  -2.026  -1.610  1.00  0.00     0.166 A 
ATOM     11  C   UNL     1       8.639  -1.503  -2.663  1.00  0.00     0.165 A 
ATOM     12  O   UNL     1       8.297  -3.343  -1.459  1.00  0.00    -0.454 OA
ATOM     13  O   UNL     1       9.450  -2.521  -3.140  1.00  0.00    -0.454 OA
ATOM     14  C   UNL     1       9.331  -3.678  -2.348  1.00  0.00     0.468 C 
ENDBRANCH   5   6
ENDBRANCH   1   5
TORSDOF 3
ENDMDL
MODEL 5
REMARK VINA RESULT:      -6.7      1.183      5.168
REMARK SMILES CC(=O)CCc1ccc2c(c1)OCO2
REMARK SMILES IDX 4 1 2 2 1 3 3 4 5 5 6 6 7 7 11 8 8 9 10 10 9 11 12 12 14 13
REMARK SMILES IDX 13 14
REMARK H PARENT
REMARK Flexibility Score: inf
ROOT
ATOM      1  C   UNL     1       8.340   0.216  -2.643  1.00  0.00     0.080 C 
ENDROOT
BRANCH   1   2
ATOM      2  C   UNL     1       8.026  -1.237  -2.735  1.00  0.00     0.130 C 
ATOM      3  C   UNL     1       9.077  -2.246  -3.033  1.00  0.00     0.087 C 
ATOM      4  O   UNL     1       6.887  -1.644  -2.568  1.00  0.00    -0.300 OA
ENDBRANCH   1   2
BRANCH   1   5
ATOM      5  C   UNL     1       8.857   0.580  -1.265  1.00  0.00     0.043 C 
BRANCH   5   6
ATOM      6  C   UNL     1       7.814   0.434  -0.234  1.00  0.00    -0.044 A 
ATOM      7  C   UNL     1       7.909  -0.534   0.772  1.00  0.00     0.008 A 
ATOM      8  C   UNL     1       6.718   1.267  -0.249  1.00  0.00     0.054 A 
ATOM      9  C   UNL     1       6.900  -0.624   1.714  1.00  0.00     0.051 A 
ATOM     10  C   UNL     1       5.701   1.172   0.706  1.00  0.00     0.166 A 
ATOM     11  C   UNL     1       5.793   0.219   1.695  1.00  0.00     0.165 A 
ATOM     12  O   UNL     1       4.529   1.871   0.902  1.00  0.00    -0.454 OA
ATOM     13  O   UNL     1       4.664   0.354   2.487  1.00  0.00    -0.454 OA
ATOM     14  C   UNL     1       3.881   1.448   2.074  1.00  0.00     0.468 C 
ENDBRANCH   5   6
ENDBRANCH   1   5
TORSDOF 3
ENDMDL
