@<TRIPOS>MOLECULE
/home/cewinharhar/GITHUB/reincatalyze/data/processed/docking_pred/2023-May-30-2130_sub9_nm5_bs15_s42_ex16_mel10_mts10000_k50_ec05_g099_lra3e-4_lrc3e-3/dba3942d2f0306a5a819952336ad453bb769fd78_ligand_9.pdbqt
 14 15 0 0 0
SMALL
GASTEIGER

@<TRIPOS>ATOM
      1  C          6.3410    1.2490    0.8660 C.3     1  UNL1        0.0800
      2  C          5.6470    0.4310    1.8990 C.2     1  UNL1        0.1300
      3  C          6.2680   -0.7930    2.4730 C.3     1  UNL1        0.0870
      4  O          4.5410    0.7450    2.3080 O.2     1  UNL1       -0.3000
      5  C          5.8380    0.9200   -0.5260 C.3     1  UNL1        0.0430
      6  C          6.8090    0.1060   -1.2790 C.2     1  UNL1       -0.0440
      7  C          7.5390    0.6390   -2.3480 C.2     1  UNL1        0.0080
      8  C          7.0120   -1.2100   -0.9300 C.2     1  UNL1        0.0540
      9  C          8.4360   -0.1730   -3.0180 C.2     1  UNL1        0.0510
     10  C          7.9220   -2.0260   -1.6100 C.2     1  UNL1        0.1660
     11  C          8.6390   -1.5030   -2.6630 C.2     1  UNL1        0.1650
     12  O          8.2970   -3.3430   -1.4590 O.2     1  UNL1       -0.4540
     13  O          9.4500   -2.5210   -3.1400 O.2     1  UNL1       -0.4540
     14  C          9.3310   -3.6780   -2.3480 C.3     1  UNL1        0.4680
@<TRIPOS>BOND
     1    13    11    1
     2    13    14    1
     3     9    11    2
     4     9     7    1
     5    11    10    1
     6     7     6    2
     7    14    12    1
     8    10    12    1
     9    10     8    2
    10     6     8    1
    11     6     5    1
    12     5     1    1
    13     1     2    1
    14     2     4    2
    15     2     3    1
