@<TRIPOS>MOLECULE
/home/cewinharhar/GITHUB/reincatalyze/data/processed/docking_pred/2023-May-30-2130_sub9_nm5_bs15_s42_ex16_mel10_mts10000_k50_ec05_g099_lra3e-4_lrc3e-3/dba3942d2f0306a5a819952336ad453bb769fd78_ligand_9.pdbqt
 14 15 0 0 0
SMALL
GASTEIGER

@<TRIPOS>ATOM
      1  C          5.5230   -0.0330    1.9390 C.3     1  UNL1        0.0800
      2  C          4.6760    1.1580    1.6520 C.2     1  UNL1        0.1300
      3  C          4.9970    2.0960    0.5440 C.3     1  UNL1        0.0870
      4  O          3.6860    1.4000    2.3240 O.2     1  UNL1       -0.3000
      5  C          6.9660    0.2110    1.5450 C.3     1  UNL1        0.0430
      6  C          7.4090   -0.7180    0.4890 C.2     1  UNL1       -0.0440
      7  C          7.3960   -0.3520   -0.8620 C.2     1  UNL1        0.0080
      8  C          7.8490   -1.9770    0.8290 C.2     1  UNL1        0.0540
      9  C          7.8230   -1.2650   -1.8080 C.2     1  UNL1        0.0510
     10  C          8.2810   -2.8960   -0.1320 C.2     1  UNL1        0.1660
     11  C          8.2670   -2.5380   -1.4610 C.2     1  UNL1        0.1650
     12  O          8.7560   -4.1880   -0.0500 O.2     1  UNL1       -0.4540
     13  O          8.7400   -3.6270   -2.1750 O.2     1  UNL1       -0.4540
     14  C          9.1470   -4.6630   -1.3130 C.3     1  UNL1        0.4680
@<TRIPOS>BOND
     1    13    11    1
     2    13    14    1
     3     9    11    2
     4     9     7    1
     5    11    10    1
     6    14    12    1
     7     7     6    2
     8    10    12    1
     9    10     8    2
    10     6     8    1
    11     6     5    1
    12     3     2    1
    13     5     1    1
    14     2     1    1
    15     2     4    2
