@<TRIPOS>MOLECULE
/home/cewinharhar/GITHUB/reincatalyze/data/processed/docking_pred/2023-May-30-2130_sub9_nm5_bs15_s42_ex16_mel10_mts10000_k50_ec05_g099_lra3e-4_lrc3e-3/dba3942d2f0306a5a819952336ad453bb769fd78_ligand_9.pdbqt
 14 15 0 0 0
SMALL
GASTEIGER

@<TRIPOS>ATOM
      1  C          5.8070    1.3540   -0.1990 C.3     1  UNL1        0.0800
      2  C          5.1300    1.2430    1.1230 C.2     1  UNL1        0.1300
      3  C          5.2710    0.0310    1.9740 C.3     1  UNL1        0.0870
      4  O          4.4330    2.1500    1.5490 O.2     1  UNL1       -0.3000
      5  C          7.2880    1.0500   -0.0860 C.3     1  UNL1        0.0430
      6  C          7.6330   -0.2290   -0.7320 C.2     1  UNL1       -0.0440
      7  C          7.6380   -0.3690   -2.1240 C.2     1  UNL1        0.0080
      8  C          7.9640   -1.3180    0.0430 C.2     1  UNL1        0.0540
      9  C          7.9710   -1.5940   -2.6740 C.2     1  UNL1        0.0510
     10  C          8.3010   -2.5530   -0.5180 C.2     1  UNL1        0.1660
     11  C          8.3040   -2.6920   -1.8880 C.2     1  UNL1        0.1650
     12  O          8.6600   -3.7670    0.0290 O.2     1  UNL1       -0.4540
     13  O          8.6700   -4.0020   -2.1570 O.2     1  UNL1       -0.4540
     14  C          8.9930   -4.6920   -0.9740 C.3     1  UNL1        0.4680
@<TRIPOS>BOND
     1     9     7    1
     2     9    11    2
     3    13    11    1
     4    13    14    1
     5     7     6    2
     6    11    10    1
     7    14    12    1
     8     6     5    1
     9     6     8    1
    10    10    12    1
    11    10     8    2
    12     1     5    1
    13     1     2    1
    14     2     4    2
    15     2     3    1
