@<TRIPOS>MOLECULE
/home/cewinharhar/GITHUB/reincatalyze/data/processed/docking_pred/2023-May-30-2130_sub9_nm5_bs15_s42_ex16_mel10_mts10000_k50_ec05_g099_lra3e-4_lrc3e-3/dcb3b3821b230acb752c106843a0b7e907fda2aa_ligand_9.pdbqt
 14 15 0 0 0
SMALL
GASTEIGER

@<TRIPOS>ATOM
      1  C          5.9080    1.1190   -0.1960 C.3     1  UNL1        0.0800
      2  C          5.8980    1.1330    1.2940 C.2     1  UNL1        0.1300
      3  C          5.3860   -0.0200    2.0820 C.3     1  UNL1        0.0870
      4  O          6.3120    2.0990    1.9140 O.2     1  UNL1       -0.3000
      5  C          7.3240    1.1150   -0.7370 C.3     1  UNL1        0.0430
      6  C          7.7230   -0.2210   -1.2130 C.2     1  UNL1       -0.0440
      7  C          7.9230   -0.4860   -2.5730 C.2     1  UNL1        0.0080
      8  C          7.9100   -1.2410   -0.3070 C.2     1  UNL1        0.0540
      9  C          8.2980   -1.7590   -2.9610 C.2     1  UNL1        0.0510
     10  C          8.2900   -2.5260   -0.7040 C.2     1  UNL1        0.1660
     11  C          8.4850   -2.7870   -2.0420 C.2     1  UNL1        0.1650
     12  O          8.5340   -3.6910   -0.0080 O.2     1  UNL1       -0.4540
     13  O          8.8500   -4.1210   -2.1410 O.2     1  UNL1       -0.4540
     14  C          8.9810   -4.7080   -0.8680 C.3     1  UNL1        0.4680
@<TRIPOS>BOND
     1     9     7    1
     2     9    11    2
     3     7     6    2
     4    13    11    1
     5    13    14    1
     6    11    10    1
     7     6     5    1
     8     6     8    1
     9    14    12    1
    10     5     1    1
    11    10     8    2
    12    10    12    1
    13     1     2    1
    14     2     4    2
    15     2     3    1
