MODEL 1
REMARK VINA RESULT:      -7.6      0.000      0.000
REMARK SMILES CC(=O)CCc1ccc2c(c1)OCO2
REMARK SMILES IDX 4 1 2 2 1 3 3 4 5 5 6 6 7 7 11 8 8 9 10 10 9 11 12 12 14 13
REMARK SMILES IDX 13 14
REMARK H PARENT
REMARK Flexibility Score: inf
ROOT
ATOM      1  C   UNL     1       5.512   1.904   1.265  1.00  0.00     0.080 C 
ENDROOT
BRANCH   1   2
ATOM      2  C   UNL     1       5.037   0.697   1.997  1.00  0.00     0.130 C 
ATOM      3  C   UNL     1       5.880  -0.522   2.122  1.00  0.00     0.087 C 
ATOM      4  O   UNL     1       3.934   0.674   2.519  1.00  0.00    -0.300 OA
ENDBRANCH   1   2
BRANCH   1   5
ATOM      5  C   UNL     1       5.390   1.721  -0.235  1.00  0.00     0.043 C 
BRANCH   5   6
ATOM      6  C   UNL     1       6.561   1.024  -0.797  1.00  0.00    -0.044 A 
ATOM      7  C   UNL     1       7.866   1.464  -0.547  1.00  0.00     0.008 A 
ATOM      8  C   UNL     1       6.378  -0.088  -1.586  1.00  0.00     0.054 A 
ATOM      9  C   UNL     1       8.926   0.770  -1.100  1.00  0.00     0.051 A 
ATOM     10  C   UNL     1       7.454  -0.787  -2.143  1.00  0.00     0.166 A 
ATOM     11  C   UNL     1       8.738  -0.354  -1.898  1.00  0.00     0.165 A 
ATOM     12  O   UNL     1       7.533  -1.903  -2.949  1.00  0.00    -0.454 OA
ATOM     13  O   UNL     1       9.587  -1.223  -2.565  1.00  0.00    -0.454 OA
ATOM     14  C   UNL     1       8.870  -2.273  -3.169  1.00  0.00     0.468 C 
ENDBRANCH   5   6
ENDBRANCH   1   5
TORSDOF 3
ENDMDL
MODEL 2
REMARK VINA RESULT:      -7.0      1.264      1.485
REMARK SMILES CC(=O)CCc1ccc2c(c1)OCO2
REMARK SMILES IDX 4 1 2 2 1 3 3 4 5 5 6 6 7 7 11 8 8 9 10 10 9 11 12 12 14 13
REMARK SMILES IDX 13 14
REMARK H PARENT
REMARK Flexibility Score: inf
ROOT
ATOM      1  C   UNL     1       6.380   1.195   0.877  1.00  0.00     0.080 C 
ENDROOT
BRANCH   1   2
ATOM      2  C   UNL     1       5.656   0.417   1.921  1.00  0.00     0.130 C 
ATOM      3  C   UNL     1       6.226  -0.827   2.503  1.00  0.00     0.087 C 
ATOM      4  O   UNL     1       4.566   0.782   2.332  1.00  0.00    -0.300 OA
ENDBRANCH   1   2
BRANCH   1   5
ATOM      5  C   UNL     1       5.858   0.874  -0.509  1.00  0.00     0.043 C 
BRANCH   5   6
ATOM      6  C   UNL     1       6.817   0.063  -1.280  1.00  0.00    -0.044 A 
ATOM      7  C   UNL     1       7.503   0.590  -2.381  1.00  0.00     0.008 A 
ATOM      8  C   UNL     1       7.053  -1.243  -0.917  1.00  0.00     0.054 A 
ATOM      9  C   UNL     1       8.392  -0.218  -3.066  1.00  0.00     0.051 A 
ATOM     10  C   UNL     1       7.954  -2.055  -1.613  1.00  0.00     0.166 A 
ATOM     11  C   UNL     1       8.628  -1.539  -2.697  1.00  0.00     0.165 A 
ATOM     12  O   UNL     1       8.356  -3.364  -1.452  1.00  0.00    -0.454 OA
ATOM     13  O   UNL     1       9.440  -2.551  -3.183  1.00  0.00    -0.454 OA
ATOM     14  C   UNL     1       9.366  -3.697  -2.369  1.00  0.00     0.468 C 
ENDBRANCH   5   6
ENDBRANCH   1   5
TORSDOF 3
ENDMDL
MODEL 3
REMARK VINA RESULT:      -6.9      2.013      2.596
REMARK SMILES CC(=O)CCc1ccc2c(c1)OCO2
REMARK SMILES IDX 4 1 2 2 1 3 3 4 5 5 6 6 7 7 11 8 8 9 10 10 9 11 12 12 14 13
REMARK SMILES IDX 13 14
REMARK H PARENT
REMARK Flexibility Score: inf
ROOT
ATOM      1  C   UNL     1       5.389  -0.095   1.968  1.00  0.00     0.080 C 
ENDROOT
BRANCH   1   2
ATOM      2  C   UNL     1       4.588   1.143   1.753  1.00  0.00     0.130 C 
ATOM      3  C   UNL     1       4.946   2.132   0.701  1.00  0.00     0.087 C 
ATOM      4  O   UNL     1       3.608   1.383   2.440  1.00  0.00    -0.300 OA
ENDBRANCH   1   2
BRANCH   1   5
ATOM      5  C   UNL     1       6.844   0.121   1.602  1.00  0.00     0.043 C 
BRANCH   5   6
ATOM      6  C   UNL     1       7.270  -0.768   0.507  1.00  0.00    -0.044 A 
ATOM      7  C   UNL     1       7.104  -0.409  -0.836  1.00  0.00     0.008 A 
ATOM      8  C   UNL     1       7.847  -1.983   0.800  1.00  0.00     0.054 A 
ATOM      9  C   UNL     1       7.524  -1.284  -1.821  1.00  0.00     0.051 A 
ATOM     10  C   UNL     1       8.271  -2.864  -0.200  1.00  0.00     0.166 A 
ATOM     11  C   UNL     1       8.107  -2.512  -1.521  1.00  0.00     0.165 A 
ATOM     12  O   UNL     1       8.863  -4.108  -0.167  1.00  0.00    -0.454 OA
ATOM     13  O   UNL     1       8.608  -3.558  -2.280  1.00  0.00    -0.454 OA
ATOM     14  C   UNL     1       9.180  -4.551  -1.462  1.00  0.00     0.468 C 
ENDBRANCH   5   6
ENDBRANCH   1   5
TORSDOF 3
ENDMDL
MODEL 4
REMARK VINA RESULT:      -6.9      1.694      2.072
REMARK SMILES CC(=O)CCc1ccc2c(c1)OCO2
REMARK SMILES IDX 4 1 2 2 1 3 3 4 5 5 6 6 7 7 11 8 8 9 10 10 9 11 12 12 14 13
REMARK SMILES IDX 13 14
REMARK H PARENT
REMARK Flexibility Score: inf
ROOT
ATOM      1  C   UNL     1       5.445   1.342   0.218  1.00  0.00     0.080 C 
ENDROOT
BRANCH   1   2
ATOM      2  C   UNL     1       4.983   0.884   1.558  1.00  0.00     0.130 C 
ATOM      3  C   UNL     1       5.684  -0.201   2.296  1.00  0.00     0.087 C 
ATOM      4  O   UNL     1       4.009   1.389   2.092  1.00  0.00    -0.300 OA
ENDBRANCH   1   2
BRANCH   1   5
ATOM      5  C   UNL     1       6.951   1.230   0.087  1.00  0.00     0.043 C 
BRANCH   5   6
ATOM      6  C   UNL     1       7.346   0.023  -0.660  1.00  0.00    -0.044 A 
ATOM      7  C   UNL     1       7.293  -0.024  -2.058  1.00  0.00     0.008 A 
ATOM      8  C   UNL     1       7.783  -1.089   0.023  1.00  0.00     0.054 A 
ATOM      9  C   UNL     1       7.678  -1.184  -2.705  1.00  0.00     0.051 A 
ATOM     10  C   UNL     1       8.171  -2.260  -0.637  1.00  0.00     0.166 A 
ATOM     11  C   UNL     1       8.117  -2.307  -2.012  1.00  0.00     0.165 A 
ATOM     12  O   UNL     1       8.633  -3.480  -0.191  1.00  0.00    -0.454 OA
ATOM     13  O   UNL     1       8.553  -3.569  -2.386  1.00  0.00    -0.454 OA
ATOM     14  C   UNL     1       8.976  -4.313  -1.269  1.00  0.00     0.468 C 
ENDBRANCH   5   6
ENDBRANCH   1   5
TORSDOF 3
ENDMDL
MODEL 5
REMARK VINA RESULT:      -6.8      1.893      2.436
REMARK SMILES CC(=O)CCc1ccc2c(c1)OCO2
REMARK SMILES IDX 4 1 2 2 1 3 3 4 5 5 6 6 7 7 11 8 8 9 10 10 9 11 12 12 14 13
REMARK SMILES IDX 13 14
REMARK H PARENT
REMARK Flexibility Score: inf
ROOT
ATOM      1  C   UNL     1       6.737   0.921   1.341  1.00  0.00     0.080 C 
ENDROOT
BRANCH   1   2
ATOM      2  C   UNL     1       5.292   1.276   1.422  1.00  0.00     0.130 C 
ATOM      3  C   UNL     1       4.646   2.150   0.406  1.00  0.00     0.087 C 
ATOM      4  O   UNL     1       4.594   0.858   2.330  1.00  0.00    -0.300 OA
ENDBRANCH   1   2
BRANCH   1   5
ATOM      5  C   UNL     1       7.285   1.155  -0.053  1.00  0.00     0.043 C 
BRANCH   5   6
ATOM      6  C   UNL     1       7.629  -0.111  -0.724  1.00  0.00    -0.044 A 
ATOM      7  C   UNL     1       7.665  -0.215  -2.119  1.00  0.00     0.008 A 
ATOM      8  C   UNL     1       7.926  -1.224   0.030  1.00  0.00     0.054 A 
ATOM      9  C   UNL     1       7.995  -1.429  -2.693  1.00  0.00     0.051 A 
ATOM     10  C   UNL     1       8.260  -2.449  -0.556  1.00  0.00     0.166 A 
ATOM     11  C   UNL     1       8.295  -2.552  -1.929  1.00  0.00     0.165 A 
ATOM     12  O   UNL     1       8.590  -3.681  -0.033  1.00  0.00    -0.454 OA
ATOM     13  O   UNL     1       8.650  -3.859  -2.223  1.00  0.00    -0.454 OA
ATOM     14  C   UNL     1       8.935  -4.585  -1.052  1.00  0.00     0.468 C 
ENDBRANCH   5   6
ENDBRANCH   1   5
TORSDOF 3
ENDMDL
