@<TRIPOS>MOLECULE
/home/cewinharhar/GITHUB/reincatalyze/data/processed/docking_pred/2023-May-30-2130_sub9_nm5_bs15_s42_ex16_mel10_mts10000_k50_ec05_g099_lra3e-4_lrc3e-3/dcca543849eb83a4cf97fda16a0578d2b97a91da_ligand_9.pdbqt
 14 15 0 0 0
SMALL
GASTEIGER

@<TRIPOS>ATOM
      1  C          6.7370    0.9210    1.3410 C.3     1  UNL1        0.0800
      2  C          5.2920    1.2760    1.4220 C.2     1  UNL1        0.1300
      3  C          4.6460    2.1500    0.4060 C.3     1  UNL1        0.0870
      4  O          4.5940    0.8580    2.3300 O.2     1  UNL1       -0.3000
      5  C          7.2850    1.1550   -0.0530 C.3     1  UNL1        0.0430
      6  C          7.6290   -0.1110   -0.7240 C.2     1  UNL1       -0.0440
      7  C          7.6650   -0.2150   -2.1190 C.2     1  UNL1        0.0080
      8  C          7.9260   -1.2240    0.0300 C.2     1  UNL1        0.0540
      9  C          7.9950   -1.4290   -2.6930 C.2     1  UNL1        0.0510
     10  C          8.2600   -2.4490   -0.5560 C.2     1  UNL1        0.1660
     11  C          8.2950   -2.5520   -1.9290 C.2     1  UNL1        0.1650
     12  O          8.5900   -3.6810   -0.0330 O.2     1  UNL1       -0.4540
     13  O          8.6500   -3.8590   -2.2230 O.2     1  UNL1       -0.4540
     14  C          8.9350   -4.5850   -1.0520 C.3     1  UNL1        0.4680
@<TRIPOS>BOND
     1     9     7    1
     2     9    11    2
     3    13    11    1
     4    13    14    1
     5     7     6    2
     6    11    10    1
     7    14    12    1
     8     6     5    1
     9     6     8    1
    10    10    12    1
    11    10     8    2
    12     5     1    1
    13     3     2    1
    14     1     2    1
    15     2     4    2
