MODEL 1
REMARK VINA RESULT:      -7.5      0.000      0.000
REMARK SMILES CC(=O)CCc1ccc2c(c1)OCO2
REMARK SMILES IDX 4 1 2 2 1 3 3 4 5 5 6 6 7 7 11 8 8 9 10 10 9 11 12 12 14 13
REMARK SMILES IDX 13 14
REMARK H PARENT
REMARK Flexibility Score: inf
ROOT
ATOM      1  C   UNL     1       5.544   1.910   1.278  1.00  0.00     0.080 C 
ENDROOT
BRANCH   1   2
ATOM      2  C   UNL     1       5.113   0.688   2.012  1.00  0.00     0.130 C 
ATOM      3  C   UNL     1       6.017  -0.481   2.181  1.00  0.00     0.087 C 
ATOM      4  O   UNL     1       3.996   0.610   2.499  1.00  0.00    -0.300 OA
ENDBRANCH   1   2
BRANCH   1   5
ATOM      5  C   UNL     1       5.414   1.727  -0.221  1.00  0.00     0.043 C 
BRANCH   5   6
ATOM      6  C   UNL     1       6.578   1.023  -0.788  1.00  0.00    -0.044 A 
ATOM      7  C   UNL     1       7.887   1.451  -0.538  1.00  0.00     0.008 A 
ATOM      8  C   UNL     1       6.385  -0.085  -1.582  1.00  0.00     0.054 A 
ATOM      9  C   UNL     1       8.941   0.750  -1.096  1.00  0.00     0.051 A 
ATOM     10  C   UNL     1       7.454  -0.790  -2.144  1.00  0.00     0.166 A 
ATOM     11  C   UNL     1       8.742  -0.369  -1.899  1.00  0.00     0.165 A 
ATOM     12  O   UNL     1       7.523  -1.903  -2.955  1.00  0.00    -0.454 OA
ATOM     13  O   UNL     1       9.584  -1.241  -2.571  1.00  0.00    -0.454 OA
ATOM     14  C   UNL     1       8.856  -2.282  -3.179  1.00  0.00     0.468 C 
ENDBRANCH   5   6
ENDBRANCH   1   5
TORSDOF 3
ENDMDL
MODEL 2
REMARK VINA RESULT:      -7.2      1.826      2.264
REMARK SMILES CC(=O)CCc1ccc2c(c1)OCO2
REMARK SMILES IDX 4 1 2 2 1 3 3 4 5 5 6 6 7 7 11 8 8 9 10 10 9 11 12 12 14 13
REMARK SMILES IDX 13 14
REMARK H PARENT
REMARK Flexibility Score: inf
ROOT
ATOM      1  C   UNL     1       5.721   1.476  -0.241  1.00  0.00     0.080 C 
ENDROOT
BRANCH   1   2
ATOM      2  C   UNL     1       5.075   1.290   1.088  1.00  0.00     0.130 C 
ATOM      3  C   UNL     1       5.434   0.154   1.979  1.00  0.00     0.087 C 
ATOM      4  O   UNL     1       4.226   2.071   1.487  1.00  0.00    -0.300 OA
ENDBRANCH   1   2
BRANCH   1   5
ATOM      5  C   UNL     1       7.212   1.213  -0.170  1.00  0.00     0.043 C 
BRANCH   5   6
ATOM      6  C   UNL     1       7.576  -0.052  -0.833  1.00  0.00    -0.044 A 
ATOM      7  C   UNL     1       7.606  -0.166  -2.228  1.00  0.00     0.008 A 
ATOM      8  C   UNL     1       7.899  -1.152  -0.073  1.00  0.00     0.054 A 
ATOM      9  C   UNL     1       7.956  -1.378  -2.794  1.00  0.00     0.051 A 
ATOM     10  C   UNL     1       8.253  -2.375  -0.650  1.00  0.00     0.166 A 
ATOM     11  C   UNL     1       8.281  -2.489  -2.022  1.00  0.00     0.165 A 
ATOM     12  O   UNL     1       8.609  -3.597  -0.120  1.00  0.00    -0.454 OA
ATOM     13  O   UNL     1       8.659  -3.792  -2.309  1.00  0.00    -0.454 OA
ATOM     14  C   UNL     1       8.965  -4.502  -1.133  1.00  0.00     0.468 C 
ENDBRANCH   5   6
ENDBRANCH   1   5
TORSDOF 3
ENDMDL
MODEL 3
REMARK VINA RESULT:      -7.0      1.244      1.442
REMARK SMILES CC(=O)CCc1ccc2c(c1)OCO2
REMARK SMILES IDX 4 1 2 2 1 3 3 4 5 5 6 6 7 7 11 8 8 9 10 10 9 11 12 12 14 13
REMARK SMILES IDX 13 14
REMARK H PARENT
REMARK Flexibility Score: inf
ROOT
ATOM      1  C   UNL     1       6.366   1.251   0.919  1.00  0.00     0.080 C 
ENDROOT
BRANCH   1   2
ATOM      2  C   UNL     1       5.659   0.404   1.920  1.00  0.00     0.130 C 
ATOM      3  C   UNL     1       6.292  -0.810   2.501  1.00  0.00     0.087 C 
ATOM      4  O   UNL     1       4.531   0.683   2.293  1.00  0.00    -0.300 OA
ENDBRANCH   1   2
BRANCH   1   5
ATOM      5  C   UNL     1       5.868   0.975  -0.486  1.00  0.00     0.043 C 
BRANCH   5   6
ATOM      6  C   UNL     1       6.814   0.138  -1.246  1.00  0.00    -0.044 A 
ATOM      7  C   UNL     1       7.516   0.641  -2.347  1.00  0.00     0.008 A 
ATOM      8  C   UNL     1       7.022  -1.169  -0.871  1.00  0.00     0.054 A 
ATOM      9  C   UNL     1       8.392  -0.190  -3.022  1.00  0.00     0.051 A 
ATOM     10  C   UNL     1       7.909  -2.006  -1.556  1.00  0.00     0.166 A 
ATOM     11  C   UNL     1       8.599  -1.512  -2.640  1.00  0.00     0.165 A 
ATOM     12  O   UNL     1       8.283  -3.321  -1.382  1.00  0.00    -0.454 OA
ATOM     13  O   UNL     1       9.392  -2.545  -3.115  1.00  0.00    -0.454 OA
ATOM     14  C   UNL     1       9.291  -3.683  -2.292  1.00  0.00     0.468 C 
ENDBRANCH   5   6
ENDBRANCH   1   5
TORSDOF 3
ENDMDL
MODEL 4
REMARK VINA RESULT:      -6.9      2.062      2.590
REMARK SMILES CC(=O)CCc1ccc2c(c1)OCO2
REMARK SMILES IDX 4 1 2 2 1 3 3 4 5 5 6 6 7 7 11 8 8 9 10 10 9 11 12 12 14 13
REMARK SMILES IDX 13 14
REMARK H PARENT
REMARK Flexibility Score: inf
ROOT
ATOM      1  C   UNL     1       5.657   0.036   1.915  1.00  0.00     0.080 C 
ENDROOT
BRANCH   1   2
ATOM      2  C   UNL     1       4.724   1.152   1.594  1.00  0.00     0.130 C 
ATOM      3  C   UNL     1       4.981   2.082   0.462  1.00  0.00     0.087 C 
ATOM      4  O   UNL     1       3.716   1.336   2.255  1.00  0.00    -0.300 OA
ENDBRANCH   1   2
BRANCH   1   5
ATOM      5  C   UNL     1       7.047   0.308   1.375  1.00  0.00     0.043 C 
BRANCH   5   6
ATOM      6  C   UNL     1       7.432  -0.668   0.340  1.00  0.00    -0.044 A 
ATOM      7  C   UNL     1       7.315  -0.374  -1.024  1.00  0.00     0.008 A 
ATOM      8  C   UNL     1       7.920  -1.900   0.711  1.00  0.00     0.054 A 
ATOM      9  C   UNL     1       7.692  -1.329  -1.951  1.00  0.00     0.051 A 
ATOM     10  C   UNL     1       8.300  -2.862  -0.230  1.00  0.00     0.166 A 
ATOM     11  C   UNL     1       8.185  -2.573  -1.572  1.00  0.00     0.165 A 
ATOM     12  O   UNL     1       8.806  -4.139  -0.116  1.00  0.00    -0.454 OA
ATOM     13  O   UNL     1       8.628  -3.691  -2.261  1.00  0.00    -0.454 OA
ATOM     14  C   UNL     1       9.116  -4.673  -1.378  1.00  0.00     0.468 C 
ENDBRANCH   5   6
ENDBRANCH   1   5
TORSDOF 3
ENDMDL
MODEL 5
REMARK VINA RESULT:      -6.7      1.186      5.156
REMARK SMILES CC(=O)CCc1ccc2c(c1)OCO2
REMARK SMILES IDX 4 1 2 2 1 3 3 4 5 5 6 6 7 7 11 8 8 9 10 10 9 11 12 12 14 13
REMARK SMILES IDX 13 14
REMARK H PARENT
REMARK Flexibility Score: inf
ROOT
ATOM      1  C   UNL     1       8.285   0.168  -2.713  1.00  0.00     0.080 C 
ENDROOT
BRANCH   1   2
ATOM      2  C   UNL     1       8.021  -1.298  -2.765  1.00  0.00     0.130 C 
ATOM      3  C   UNL     1       9.110  -2.278  -3.023  1.00  0.00     0.087 C 
ATOM      4  O   UNL     1       6.896  -1.738  -2.597  1.00  0.00    -0.300 OA
ENDBRANCH   1   2
BRANCH   1   5
ATOM      5  C   UNL     1       8.821   0.582  -1.357  1.00  0.00     0.043 C 
BRANCH   5   6
ATOM      6  C   UNL     1       7.806   0.434  -0.299  1.00  0.00    -0.044 A 
ATOM      7  C   UNL     1       7.940  -0.520   0.717  1.00  0.00     0.008 A 
ATOM      8  C   UNL     1       6.697   1.249  -0.299  1.00  0.00     0.054 A 
ATOM      9  C   UNL     1       6.955  -0.612   1.684  1.00  0.00     0.051 A 
ATOM     10  C   UNL     1       5.705   1.152   0.682  1.00  0.00     0.166 A 
ATOM     11  C   UNL     1       5.835   0.213   1.681  1.00  0.00     0.165 A 
ATOM     12  O   UNL     1       4.527   1.835   0.897  1.00  0.00    -0.454 OA
ATOM     13  O   UNL     1       4.723   0.342   2.498  1.00  0.00    -0.454 OA
ATOM     14  C   UNL     1       3.914   1.418   2.090  1.00  0.00     0.468 C 
ENDBRANCH   5   6
ENDBRANCH   1   5
TORSDOF 3
ENDMDL
