@<TRIPOS>MOLECULE
/home/cewinharhar/GITHUB/reincatalyze/data/processed/docking_pred/2023-May-30-2130_sub9_nm5_bs15_s42_ex16_mel10_mts10000_k50_ec05_g099_lra3e-4_lrc3e-3/dd626561b0241c753f5aa586a778cbbb50e2da15_ligand_9.pdbqt
 14 15 0 0 0
SMALL
GASTEIGER

@<TRIPOS>ATOM
      1  C          6.3660    1.2510    0.9190 C.3     1  UNL1        0.0800
      2  C          5.6590    0.4040    1.9200 C.2     1  UNL1        0.1300
      3  C          6.2920   -0.8100    2.5010 C.3     1  UNL1        0.0870
      4  O          4.5310    0.6830    2.2930 O.2     1  UNL1       -0.3000
      5  C          5.8680    0.9750   -0.4860 C.3     1  UNL1        0.0430
      6  C          6.8140    0.1380   -1.2460 C.2     1  UNL1       -0.0440
      7  C          7.5160    0.6410   -2.3470 C.2     1  UNL1        0.0080
      8  C          7.0220   -1.1690   -0.8710 C.2     1  UNL1        0.0540
      9  C          8.3920   -0.1900   -3.0220 C.2     1  UNL1        0.0510
     10  C          7.9090   -2.0060   -1.5560 C.2     1  UNL1        0.1660
     11  C          8.5990   -1.5120   -2.6400 C.2     1  UNL1        0.1650
     12  O          8.2830   -3.3210   -1.3820 O.2     1  UNL1       -0.4540
     13  O          9.3920   -2.5450   -3.1150 O.2     1  UNL1       -0.4540
     14  C          9.2910   -3.6830   -2.2920 C.3     1  UNL1        0.4680
@<TRIPOS>BOND
     1    13    11    1
     2    13    14    1
     3     9    11    2
     4     9     7    1
     5    11    10    1
     6     7     6    2
     7    14    12    1
     8    10    12    1
     9    10     8    2
    10     6     8    1
    11     6     5    1
    12     5     1    1
    13     1     2    1
    14     2     4    2
    15     2     3    1
