@<TRIPOS>MOLECULE
/home/cewinharhar/GITHUB/reincatalyze/data/processed/docking_pred/2023-May-30-2130_sub9_nm5_bs15_s42_ex16_mel10_mts10000_k50_ec05_g099_lra3e-4_lrc3e-3/ddb46e737fe602632681221f3e2121514b9159c3_ligand_9.pdbqt
 14 15 0 0 0
SMALL
GASTEIGER

@<TRIPOS>ATOM
      1  C          5.4200   -0.0560    2.0100 C.3     1  UNL1        0.0800
      2  C          4.5780    1.1480    1.7640 C.2     1  UNL1        0.1300
      3  C          4.9130    2.1320    0.7010 C.3     1  UNL1        0.0870
      4  O          3.5810    1.3630    2.4350 O.2     1  UNL1       -0.3000
      5  C          6.8590    0.1860    1.6000 C.3     1  UNL1        0.0430
      6  C          7.2870   -0.7390    0.5350 C.2     1  UNL1       -0.0440
      7  C          7.1630   -0.4050   -0.8180 C.2     1  UNL1        0.0080
      8  C          7.8250   -1.9610    0.8690 C.2     1  UNL1        0.0540
      9  C          7.5830   -1.3130   -1.7740 C.2     1  UNL1        0.0510
     10  C          8.2480   -2.8750   -0.1010 C.2     1  UNL1        0.1660
     11  C          8.1260   -2.5480   -1.4330 C.2     1  UNL1        0.1650
     12  O          8.8060   -4.1330   -0.0260 O.2     1  UNL1       -0.4540
     13  O          8.6170   -3.6240   -2.1560 O.2     1  UNL1       -0.4540
     14  C          9.1420   -4.6130   -1.3030 C.3     1  UNL1        0.4680
@<TRIPOS>BOND
     1    13    11    1
     2    13    14    1
     3     9    11    2
     4     9     7    1
     5    11    10    1
     6    14    12    1
     7     7     6    2
     8    10    12    1
     9    10     8    2
    10     6     8    1
    11     6     5    1
    12     3     2    1
    13     5     1    1
    14     2     1    1
    15     2     4    2
