@<TRIPOS>MOLECULE
/home/cewinharhar/GITHUB/reincatalyze/data/processed/docking_pred/2023-May-30-2130_sub9_nm5_bs15_s42_ex16_mel10_mts10000_k50_ec05_g099_lra3e-4_lrc3e-3/ddb46e737fe602632681221f3e2121514b9159c3_ligand_9.pdbqt
 14 15 0 0 0
SMALL
GASTEIGER

@<TRIPOS>ATOM
      1  C          5.7590    1.6180   -0.1780 C.3     1  UNL1        0.0800
      2  C          5.0540    1.3140    1.0980 C.2     1  UNL1        0.1300
      3  C          5.4260    0.1430    1.9360 C.3     1  UNL1        0.0870
      4  O          4.1440    2.0230    1.4950 O.2     1  UNL1       -0.3000
      5  C          7.2380    1.3000   -0.0790 C.3     1  UNL1        0.0430
      6  C          7.5610    0.0020   -0.6960 C.2     1  UNL1       -0.0440
      7  C          7.5120   -0.1840   -2.0830 C.2     1  UNL1        0.0080
      8  C          7.9230   -1.0610    0.1000 C.2     1  UNL1        0.0540
      9  C          7.8260   -1.4250   -2.6050 C.2     1  UNL1        0.0510
     10  C          8.2400   -2.3140   -0.4330 C.2     1  UNL1        0.1660
     11  C          8.1910   -2.4970   -1.7970 C.2     1  UNL1        0.1650
     12  O          8.6220   -3.5090    0.1380 O.2     1  UNL1       -0.4540
     13  O          8.5480   -3.8150   -2.0380 O.2     1  UNL1       -0.4540
     14  C          8.9180   -4.4670   -0.8460 C.3     1  UNL1        0.4680
@<TRIPOS>BOND
     1     9     7    1
     2     9    11    2
     3     7     6    2
     4    13    11    1
     5    13    14    1
     6    11    10    1
     7    14    12    1
     8     6     5    1
     9     6     8    1
    10    10     8    2
    11    10    12    1
    12     1     5    1
    13     1     2    1
    14     2     4    2
    15     2     3    1
