MODEL 1
REMARK VINA RESULT:      -7.7      0.000      0.000
REMARK SMILES CC(=O)CCc1ccc2c(c1)OCO2
REMARK SMILES IDX 4 1 2 2 1 3 3 4 5 5 6 6 7 7 11 8 8 9 10 10 9 11 12 12 14 13
REMARK SMILES IDX 13 14
REMARK H PARENT
REMARK Flexibility Score: inf
ROOT
ATOM      1  C   UNL     1       5.514   1.895   1.297  1.00  0.00     0.080 C 
ENDROOT
BRANCH   1   2
ATOM      2  C   UNL     1       5.057   0.674   2.018  1.00  0.00     0.130 C 
ATOM      3  C   UNL     1       5.926  -0.525   2.152  1.00  0.00     0.087 C 
ATOM      4  O   UNL     1       3.946   0.624   2.522  1.00  0.00    -0.300 OA
ENDBRANCH   1   2
BRANCH   1   5
ATOM      5  C   UNL     1       5.391   1.726  -0.204  1.00  0.00     0.043 C 
BRANCH   5   6
ATOM      6  C   UNL     1       6.562   1.038  -0.775  1.00  0.00    -0.044 A 
ATOM      7  C   UNL     1       7.866   1.481  -0.527  1.00  0.00     0.008 A 
ATOM      8  C   UNL     1       6.381  -0.071  -1.571  1.00  0.00     0.054 A 
ATOM      9  C   UNL     1       8.927   0.794  -1.089  1.00  0.00     0.051 A 
ATOM     10  C   UNL     1       7.457  -0.762  -2.136  1.00  0.00     0.166 A 
ATOM     11  C   UNL     1       8.740  -0.326  -1.893  1.00  0.00     0.165 A 
ATOM     12  O   UNL     1       7.537  -1.872  -2.949  1.00  0.00    -0.454 OA
ATOM     13  O   UNL     1       9.591  -1.187  -2.568  1.00  0.00    -0.454 OA
ATOM     14  C   UNL     1       8.875  -2.235  -3.177  1.00  0.00     0.468 C 
ENDBRANCH   5   6
ENDBRANCH   1   5
TORSDOF 3
ENDMDL
MODEL 2
REMARK VINA RESULT:      -7.5      1.944      2.414
REMARK SMILES CC(=O)CCc1ccc2c(c1)OCO2
REMARK SMILES IDX 4 1 2 2 1 3 3 4 5 5 6 6 7 7 11 8 8 9 10 10 9 11 12 12 14 13
REMARK SMILES IDX 13 14
REMARK H PARENT
REMARK Flexibility Score: inf
ROOT
ATOM      1  C   UNL     1       5.718   1.246  -0.311  1.00  0.00     0.080 C 
ENDROOT
BRANCH   1   2
ATOM      2  C   UNL     1       5.144   1.235   1.063  1.00  0.00     0.130 C 
ATOM      3  C   UNL     1       5.404   0.117   2.009  1.00  0.00     0.087 C 
ATOM      4  O   UNL     1       4.438   2.150   1.455  1.00  0.00    -0.300 OA
ENDBRANCH   1   2
BRANCH   1   5
ATOM      5  C   UNL     1       7.223   1.066  -0.281  1.00  0.00     0.043 C 
BRANCH   5   6
ATOM      6  C   UNL     1       7.632  -0.216  -0.881  1.00  0.00    -0.044 A 
ATOM      7  C   UNL     1       7.774  -0.366  -2.265  1.00  0.00     0.008 A 
ATOM      8  C   UNL     1       7.886  -1.299  -0.069  1.00  0.00     0.054 A 
ATOM      9  C   UNL     1       8.162  -1.593  -2.771  1.00  0.00     0.051 A 
ATOM     10  C   UNL     1       8.278  -2.537  -0.585  1.00  0.00     0.166 A 
ATOM     11  C   UNL     1       8.417  -2.686  -1.947  1.00  0.00     0.165 A 
ATOM     12  O   UNL     1       8.583  -3.746   0.003  1.00  0.00    -0.454 OA
ATOM     13  O   UNL     1       8.810  -3.996  -2.170  1.00  0.00    -0.454 OA
ATOM     14  C   UNL     1       9.015  -4.678  -0.955  1.00  0.00     0.468 C 
ENDBRANCH   5   6
ENDBRANCH   1   5
TORSDOF 3
ENDMDL
MODEL 3
REMARK VINA RESULT:      -7.2      2.077      2.646
REMARK SMILES CC(=O)CCc1ccc2c(c1)OCO2
REMARK SMILES IDX 4 1 2 2 1 3 3 4 5 5 6 6 7 7 11 8 8 9 10 10 9 11 12 12 14 13
REMARK SMILES IDX 13 14
REMARK H PARENT
REMARK Flexibility Score: inf
ROOT
ATOM      1  C   UNL     1       5.427  -0.053   2.010  1.00  0.00     0.080 C 
ENDROOT
BRANCH   1   2
ATOM      2  C   UNL     1       4.577   1.146   1.765  1.00  0.00     0.130 C 
ATOM      3  C   UNL     1       4.909   2.136   0.705  1.00  0.00     0.087 C 
ATOM      4  O   UNL     1       3.577   1.352   2.433  1.00  0.00    -0.300 OA
ENDBRANCH   1   2
BRANCH   1   5
ATOM      5  C   UNL     1       6.862   0.195   1.590  1.00  0.00     0.043 C 
BRANCH   5   6
ATOM      6  C   UNL     1       7.290  -0.736   0.531  1.00  0.00    -0.044 A 
ATOM      7  C   UNL     1       7.169  -0.410  -0.825  1.00  0.00     0.008 A 
ATOM      8  C   UNL     1       7.825  -1.957   0.871  1.00  0.00     0.054 A 
ATOM      9  C   UNL     1       7.588  -1.323  -1.775  1.00  0.00     0.051 A 
ATOM     10  C   UNL     1       8.248  -2.877  -0.093  1.00  0.00     0.166 A 
ATOM     11  C   UNL     1       8.128  -2.557  -1.427  1.00  0.00     0.165 A 
ATOM     12  O   UNL     1       8.804  -4.136  -0.011  1.00  0.00    -0.454 OA
ATOM     13  O   UNL     1       8.619  -3.638  -2.144  1.00  0.00    -0.454 OA
ATOM     14  C   UNL     1       9.141  -4.623  -1.284  1.00  0.00     0.468 C 
ENDBRANCH   5   6
ENDBRANCH   1   5
TORSDOF 3
ENDMDL
MODEL 4
REMARK VINA RESULT:      -7.1      1.259      1.483
REMARK SMILES CC(=O)CCc1ccc2c(c1)OCO2
REMARK SMILES IDX 4 1 2 2 1 3 3 4 5 5 6 6 7 7 11 8 8 9 10 10 9 11 12 12 14 13
REMARK SMILES IDX 13 14
REMARK H PARENT
REMARK Flexibility Score: inf
ROOT
ATOM      1  C   UNL     1       6.377   1.191   0.932  1.00  0.00     0.080 C 
ENDROOT
BRANCH   1   2
ATOM      2  C   UNL     1       5.658   0.370   1.946  1.00  0.00     0.130 C 
ATOM      3  C   UNL     1       6.262  -0.858   2.527  1.00  0.00     0.087 C 
ATOM      4  O   UNL     1       4.543   0.685   2.330  1.00  0.00    -0.300 OA
ENDBRANCH   1   2
BRANCH   1   5
ATOM      5  C   UNL     1       5.864   0.913  -0.467  1.00  0.00     0.043 C 
BRANCH   5   6
ATOM      6  C   UNL     1       6.812   0.096  -1.244  1.00  0.00    -0.044 A 
ATOM      7  C   UNL     1       7.491   0.616  -2.352  1.00  0.00     0.008 A 
ATOM      8  C   UNL     1       7.046  -1.211  -0.880  1.00  0.00     0.054 A 
ATOM      9  C   UNL     1       8.370  -0.198  -3.043  1.00  0.00     0.051 A 
ATOM     10  C   UNL     1       7.936  -2.029  -1.582  1.00  0.00     0.166 A 
ATOM     11  C   UNL     1       8.603  -1.518  -2.673  1.00  0.00     0.165 A 
ATOM     12  O   UNL     1       8.333  -3.340  -1.421  1.00  0.00    -0.454 OA
ATOM     13  O   UNL     1       9.406  -2.536  -3.164  1.00  0.00    -0.454 OA
ATOM     14  C   UNL     1       9.334  -3.680  -2.347  1.00  0.00     0.468 C 
ENDBRANCH   5   6
ENDBRANCH   1   5
TORSDOF 3
ENDMDL
MODEL 5
REMARK VINA RESULT:      -6.8      1.274      1.752
REMARK SMILES CC(=O)CCc1ccc2c(c1)OCO2
REMARK SMILES IDX 4 1 2 2 1 3 3 4 5 5 6 6 7 7 11 8 8 9 10 10 9 11 12 12 14 13
REMARK SMILES IDX 13 14
REMARK H PARENT
REMARK Flexibility Score: inf
ROOT
ATOM      1  C   UNL     1       5.325  -0.064   1.980  1.00  0.00     0.080 C 
ENDROOT
BRANCH   1   2
ATOM      2  C   UNL     1       4.440   1.119   1.789  1.00  0.00     0.130 C 
ATOM      3  C   UNL     1       4.726   2.150   0.756  1.00  0.00     0.087 C 
ATOM      4  O   UNL     1       3.448   1.277   2.481  1.00  0.00    -0.300 OA
ENDBRANCH   1   2
BRANCH   1   5
ATOM      5  C   UNL     1       6.788   0.327   1.910  1.00  0.00     0.043 C 
BRANCH   5   6
ATOM      6  C   UNL     1       7.389  -0.033   0.614  1.00  0.00    -0.044 A 
ATOM      7  C   UNL     1       7.882   0.942  -0.262  1.00  0.00     0.008 A 
ATOM      8  C   UNL     1       7.474  -1.356   0.245  1.00  0.00     0.054 A 
ATOM      9  C   UNL     1       8.436   0.544  -1.465  1.00  0.00     0.051 A 
ATOM     10  C   UNL     1       8.036  -1.753  -0.972  1.00  0.00     0.166 A 
ATOM     11  C   UNL     1       8.520  -0.795  -1.835  1.00  0.00     0.165 A 
ATOM     12  O   UNL     1       8.233  -2.985  -1.559  1.00  0.00    -0.454 OA
ATOM     13  O   UNL     1       9.011  -1.465  -2.944  1.00  0.00    -0.454 OA
ATOM     14  C   UNL     1       8.931  -2.860  -2.772  1.00  0.00     0.468 C 
ENDBRANCH   5   6
ENDBRANCH   1   5
TORSDOF 3
ENDMDL
