@<TRIPOS>MOLECULE
/home/cewinharhar/GITHUB/reincatalyze/data/processed/docking_pred/2023-May-30-2130_sub9_nm5_bs15_s42_ex16_mel10_mts10000_k50_ec05_g099_lra3e-4_lrc3e-3/e1ac879641feb84a16575019a922afe40680d27c_ligand_9.pdbqt
 14 15 0 0 0
SMALL
GASTEIGER

@<TRIPOS>ATOM
      1  C          5.5140    1.8950    1.2970 C.3     1  UNL1        0.0800
      2  C          5.0570    0.6740    2.0180 C.2     1  UNL1        0.1300
      3  C          5.9260   -0.5250    2.1520 C.3     1  UNL1        0.0870
      4  O          3.9460    0.6240    2.5220 O.2     1  UNL1       -0.3000
      5  C          5.3910    1.7260   -0.2040 C.3     1  UNL1        0.0430
      6  C          6.5620    1.0380   -0.7750 C.2     1  UNL1       -0.0440
      7  C          7.8660    1.4810   -0.5270 C.2     1  UNL1        0.0080
      8  C          6.3810   -0.0710   -1.5710 C.2     1  UNL1        0.0540
      9  C          8.9270    0.7940   -1.0890 C.2     1  UNL1        0.0510
     10  C          7.4570   -0.7620   -2.1360 C.2     1  UNL1        0.1660
     11  C          8.7400   -0.3260   -1.8930 C.2     1  UNL1        0.1650
     12  O          7.5370   -1.8720   -2.9490 O.2     1  UNL1       -0.4540
     13  O          9.5910   -1.1870   -2.5680 O.2     1  UNL1       -0.4540
     14  C          8.8750   -2.2350   -3.1770 C.3     1  UNL1        0.4680
@<TRIPOS>BOND
     1    14    12    1
     2    14    13    1
     3    12    10    1
     4    13    11    1
     5    10    11    2
     6    10     8    1
     7    11     9    1
     8     8     6    2
     9     9     7    2
    10     6     7    1
    11     6     5    1
    12     5     1    1
    13     1     2    1
    14     2     3    1
    15     2     4    2
