@<TRIPOS>MOLECULE
/home/cewinharhar/GITHUB/reincatalyze/data/processed/docking_pred/2023-May-30-2130_sub9_nm5_bs15_s42_ex16_mel10_mts10000_k50_ec05_g099_lra3e-4_lrc3e-3/e1ac879641feb84a16575019a922afe40680d27c_ligand_9.pdbqt
 14 15 0 0 0
SMALL
GASTEIGER

@<TRIPOS>ATOM
      1  C          5.3250   -0.0640    1.9800 C.3     1  UNL1        0.0800
      2  C          4.4400    1.1190    1.7890 C.2     1  UNL1        0.1300
      3  C          4.7260    2.1500    0.7560 C.3     1  UNL1        0.0870
      4  O          3.4480    1.2770    2.4810 O.2     1  UNL1       -0.3000
      5  C          6.7880    0.3270    1.9100 C.3     1  UNL1        0.0430
      6  C          7.3890   -0.0330    0.6140 C.2     1  UNL1       -0.0440
      7  C          7.8820    0.9420   -0.2620 C.2     1  UNL1        0.0080
      8  C          7.4740   -1.3560    0.2450 C.2     1  UNL1        0.0540
      9  C          8.4360    0.5440   -1.4650 C.2     1  UNL1        0.0510
     10  C          8.0360   -1.7530   -0.9720 C.2     1  UNL1        0.1660
     11  C          8.5200   -0.7950   -1.8350 C.2     1  UNL1        0.1650
     12  O          8.2330   -2.9850   -1.5590 O.2     1  UNL1       -0.4540
     13  O          9.0110   -1.4650   -2.9440 O.2     1  UNL1       -0.4540
     14  C          8.9310   -2.8600   -2.7720 C.3     1  UNL1        0.4680
@<TRIPOS>BOND
     1    13    14    1
     2    13    11    1
     3    14    12    1
     4    11     9    2
     5    11    10    1
     6    12    10    1
     7     9     7    1
     8    10     8    2
     9     7     6    2
    10     8     6    1
    11     6     5    1
    12     3     2    1
    13     2     1    1
    14     2     4    2
    15     5     1    1
