@<TRIPOS>MOLECULE
/home/cewinharhar/GITHUB/reincatalyze/data/processed/docking_pred/2023-May-30-2130_sub9_nm5_bs15_s42_ex16_mel10_mts10000_k50_ec05_g099_lra3e-4_lrc3e-3/e281d12024db848d687da958e708daeec302f4e2_ligand_9.pdbqt
 14 15 0 0 0
SMALL
GASTEIGER

@<TRIPOS>ATOM
      1  C          5.5730    1.8500    1.2950 C.3     1  UNL1        0.0800
      2  C          5.1050    0.6340    2.0150 C.2     1  UNL1        0.1300
      3  C          5.9760   -0.5600    2.1800 C.3     1  UNL1        0.0870
      4  O          3.9830    0.5830    2.4940 O.2     1  UNL1       -0.3000
      5  C          5.4360    1.6880   -0.2060 C.3     1  UNL1        0.0430
      6  C          6.5980    0.9940   -0.7890 C.2     1  UNL1       -0.0440
      7  C          7.9050    1.4490   -0.5800 C.2     1  UNL1        0.0080
      8  C          6.4050   -0.1320   -1.5580 C.2     1  UNL1        0.0540
      9  C          8.9560    0.7560   -1.1520 C.2     1  UNL1        0.0510
     10  C          7.4710   -0.8290   -2.1330 C.2     1  UNL1        0.1660
     11  C          8.7570   -0.3820   -1.9290 C.2     1  UNL1        0.1650
     12  O          7.5390   -1.9560   -2.9250 O.2     1  UNL1       -0.4540
     13  O          9.5970   -1.2520   -2.6060 O.2     1  UNL1       -0.4540
     14  C          8.8730   -2.3170   -3.1750 C.3     1  UNL1        0.4680
@<TRIPOS>BOND
     1    14    12    1
     2    14    13    1
     3    12    10    1
     4    13    11    1
     5    10    11    2
     6    10     8    1
     7    11     9    1
     8     8     6    2
     9     9     7    2
    10     6     7    1
    11     6     5    1
    12     5     1    1
    13     1     2    1
    14     2     3    1
    15     2     4    2
