MODEL 1
REMARK VINA RESULT:      -7.6      0.000      0.000
REMARK SMILES CC(=O)CCc1ccc2c(c1)OCO2
REMARK SMILES IDX 4 1 2 2 1 3 3 4 5 5 6 6 7 7 11 8 8 9 10 10 9 11 12 12 14 13
REMARK SMILES IDX 13 14
REMARK H PARENT
REMARK Flexibility Score: inf
ROOT
ATOM      1  C   UNL     1       5.573   1.850   1.295  1.00  0.00     0.080 C 
ENDROOT
BRANCH   1   2
ATOM      2  C   UNL     1       5.105   0.634   2.015  1.00  0.00     0.130 C 
ATOM      3  C   UNL     1       5.976  -0.560   2.180  1.00  0.00     0.087 C 
ATOM      4  O   UNL     1       3.983   0.583   2.494  1.00  0.00    -0.300 OA
ENDBRANCH   1   2
BRANCH   1   5
ATOM      5  C   UNL     1       5.436   1.688  -0.206  1.00  0.00     0.043 C 
BRANCH   5   6
ATOM      6  C   UNL     1       6.598   0.994  -0.789  1.00  0.00    -0.044 A 
ATOM      7  C   UNL     1       7.905   1.449  -0.580  1.00  0.00     0.008 A 
ATOM      8  C   UNL     1       6.405  -0.132  -1.558  1.00  0.00     0.054 A 
ATOM      9  C   UNL     1       8.956   0.756  -1.152  1.00  0.00     0.051 A 
ATOM     10  C   UNL     1       7.471  -0.829  -2.133  1.00  0.00     0.166 A 
ATOM     11  C   UNL     1       8.757  -0.382  -1.929  1.00  0.00     0.165 A 
ATOM     12  O   UNL     1       7.539  -1.956  -2.925  1.00  0.00    -0.454 OA
ATOM     13  O   UNL     1       9.597  -1.252  -2.606  1.00  0.00    -0.454 OA
ATOM     14  C   UNL     1       8.873  -2.317  -3.175  1.00  0.00     0.468 C 
ENDBRANCH   5   6
ENDBRANCH   1   5
TORSDOF 3
ENDMDL
MODEL 2
REMARK VINA RESULT:      -7.4      1.898      2.363
REMARK SMILES CC(=O)CCc1ccc2c(c1)OCO2
REMARK SMILES IDX 4 1 2 2 1 3 3 4 5 5 6 6 7 7 11 8 8 9 10 10 9 11 12 12 14 13
REMARK SMILES IDX 13 14
REMARK H PARENT
REMARK Flexibility Score: inf
ROOT
ATOM      1  C   UNL     1       5.611   1.338  -0.280  1.00  0.00     0.080 C 
ENDROOT
BRANCH   1   2
ATOM      2  C   UNL     1       5.049   1.257   1.097  1.00  0.00     0.130 C 
ATOM      3  C   UNL     1       5.480   0.205   2.056  1.00  0.00     0.087 C 
ATOM      4  O   UNL     1       4.212   2.058   1.480  1.00  0.00    -0.300 OA
ENDBRANCH   1   2
BRANCH   1   5
ATOM      5  C   UNL     1       7.113   1.136  -0.274  1.00  0.00     0.043 C 
BRANCH   5   6
ATOM      6  C   UNL     1       7.491  -0.166  -0.852  1.00  0.00    -0.044 A 
ATOM      7  C   UNL     1       7.498  -0.380  -2.236  1.00  0.00     0.008 A 
ATOM      8  C   UNL     1       7.850  -1.203  -0.021  1.00  0.00     0.054 A 
ATOM      9  C   UNL     1       7.863  -1.623  -2.721  1.00  0.00     0.051 A 
ATOM     10  C   UNL     1       8.219  -2.457  -0.517  1.00  0.00     0.166 A 
ATOM     11  C   UNL     1       8.225  -2.669  -1.878  1.00  0.00     0.165 A 
ATOM     12  O   UNL     1       8.609  -3.631   0.093  1.00  0.00    -0.454 OA
ATOM     13  O   UNL     1       8.625  -3.981  -2.077  1.00  0.00    -0.454 OA
ATOM     14  C   UNL     1       8.966  -4.599  -0.860  1.00  0.00     0.468 C 
ENDBRANCH   5   6
ENDBRANCH   1   5
TORSDOF 3
ENDMDL
MODEL 3
REMARK VINA RESULT:      -7.2      2.035      2.599
REMARK SMILES CC(=O)CCc1ccc2c(c1)OCO2
REMARK SMILES IDX 4 1 2 2 1 3 3 4 5 5 6 6 7 7 11 8 8 9 10 10 9 11 12 12 14 13
REMARK SMILES IDX 13 14
REMARK H PARENT
REMARK Flexibility Score: inf
ROOT
ATOM      1  C   UNL     1       5.431  -0.046   2.003  1.00  0.00     0.080 C 
ENDROOT
BRANCH   1   2
ATOM      2  C   UNL     1       4.579   1.151   1.758  1.00  0.00     0.130 C 
ATOM      3  C   UNL     1       4.899   2.131   0.686  1.00  0.00     0.087 C 
ATOM      4  O   UNL     1       3.588   1.364   2.437  1.00  0.00    -0.300 OA
ENDBRANCH   1   2
BRANCH   1   5
ATOM      5  C   UNL     1       6.865   0.203   1.579  1.00  0.00     0.043 C 
BRANCH   5   6
ATOM      6  C   UNL     1       7.289  -0.725   0.516  1.00  0.00    -0.044 A 
ATOM      7  C   UNL     1       7.162  -0.395  -0.839  1.00  0.00     0.008 A 
ATOM      8  C   UNL     1       7.828  -1.947   0.850  1.00  0.00     0.054 A 
ATOM      9  C   UNL     1       7.578  -1.305  -1.793  1.00  0.00     0.051 A 
ATOM     10  C   UNL     1       8.248  -2.863  -0.119  1.00  0.00     0.166 A 
ATOM     11  C   UNL     1       8.121  -2.540  -1.451  1.00  0.00     0.165 A 
ATOM     12  O   UNL     1       8.805  -4.122  -0.043  1.00  0.00    -0.454 OA
ATOM     13  O   UNL     1       8.610  -3.617  -2.173  1.00  0.00    -0.454 OA
ATOM     14  C   UNL     1       9.137  -4.604  -1.319  1.00  0.00     0.468 C 
ENDBRANCH   5   6
ENDBRANCH   1   5
TORSDOF 3
ENDMDL
MODEL 4
REMARK VINA RESULT:      -7.1      1.239      1.438
REMARK SMILES CC(=O)CCc1ccc2c(c1)OCO2
REMARK SMILES IDX 4 1 2 2 1 3 3 4 5 5 6 6 7 7 11 8 8 9 10 10 9 11 12 12 14 13
REMARK SMILES IDX 13 14
REMARK H PARENT
REMARK Flexibility Score: inf
ROOT
ATOM      1  C   UNL     1       6.401   1.186   0.941  1.00  0.00     0.080 C 
ENDROOT
BRANCH   1   2
ATOM      2  C   UNL     1       5.663   0.369   1.944  1.00  0.00     0.130 C 
ATOM      3  C   UNL     1       6.253  -0.863   2.533  1.00  0.00     0.087 C 
ATOM      4  O   UNL     1       4.545   0.689   2.314  1.00  0.00    -0.300 OA
ENDBRANCH   1   2
BRANCH   1   5
ATOM      5  C   UNL     1       5.896   0.920  -0.464  1.00  0.00     0.043 C 
BRANCH   5   6
ATOM      6  C   UNL     1       6.839   0.091  -1.235  1.00  0.00    -0.044 A 
ATOM      7  C   UNL     1       7.524   0.599  -2.345  1.00  0.00     0.008 A 
ATOM      8  C   UNL     1       7.061  -1.216  -0.863  1.00  0.00     0.054 A 
ATOM      9  C   UNL     1       8.397  -0.226  -3.030  1.00  0.00     0.051 A 
ATOM     10  C   UNL     1       7.945  -2.046  -1.559  1.00  0.00     0.166 A 
ATOM     11  C   UNL     1       8.618  -1.547  -2.652  1.00  0.00     0.165 A 
ATOM     12  O   UNL     1       8.331  -3.358  -1.391  1.00  0.00    -0.454 OA
ATOM     13  O   UNL     1       9.413  -2.574  -3.136  1.00  0.00    -0.454 OA
ATOM     14  C   UNL     1       9.330  -3.712  -2.312  1.00  0.00     0.468 C 
ENDBRANCH   5   6
ENDBRANCH   1   5
TORSDOF 3
ENDMDL
MODEL 5
REMARK VINA RESULT:      -6.9      1.911      2.523
REMARK SMILES CC(=O)CCc1ccc2c(c1)OCO2
REMARK SMILES IDX 4 1 2 2 1 3 3 4 5 5 6 6 7 7 11 8 8 9 10 10 9 11 12 12 14 13
REMARK SMILES IDX 13 14
REMARK H PARENT
REMARK Flexibility Score: inf
ROOT
ATOM      1  C   UNL     1       6.925   0.916   0.969  1.00  0.00     0.080 C 
ENDROOT
BRANCH   1   2
ATOM      2  C   UNL     1       5.506   1.126   1.372  1.00  0.00     0.130 C 
ATOM      3  C   UNL     1       4.651   2.150   0.714  1.00  0.00     0.087 C 
ATOM      4  O   UNL     1       5.002   0.459   2.260  1.00  0.00    -0.300 OA
ENDBRANCH   1   2
BRANCH   1   5
ATOM      5  C   UNL     1       7.082   0.958  -0.538  1.00  0.00     0.043 C 
BRANCH   5   6
ATOM      6  C   UNL     1       7.557  -0.330  -1.075  1.00  0.00    -0.044 A 
ATOM      7  C   UNL     1       7.774  -0.518  -2.444  1.00  0.00     0.008 A 
ATOM      8  C   UNL     1       7.798  -1.379  -0.217  1.00  0.00     0.054 A 
ATOM      9  C   UNL     1       8.221  -1.748  -2.890  1.00  0.00     0.051 A 
ATOM     10  C   UNL     1       8.250  -2.621  -0.672  1.00  0.00     0.166 A 
ATOM     11  C   UNL     1       8.463  -2.807  -2.020  1.00  0.00     0.165 A 
ATOM     12  O   UNL     1       8.558  -3.802  -0.031  1.00  0.00    -0.454 OA
ATOM     13  O   UNL     1       8.903  -4.112  -2.180  1.00  0.00    -0.454 OA
ATOM     14  C   UNL     1       9.064  -4.750  -0.935  1.00  0.00     0.468 C 
ENDBRANCH   5   6
ENDBRANCH   1   5
TORSDOF 3
ENDMDL
