@<TRIPOS>MOLECULE
/home/cewinharhar/GITHUB/reincatalyze/data/processed/docking_pred/2023-May-30-2130_sub9_nm5_bs15_s42_ex16_mel10_mts10000_k50_ec05_g099_lra3e-4_lrc3e-3/e281d12024db848d687da958e708daeec302f4e2_ligand_9.pdbqt
 14 15 0 0 0
SMALL
GASTEIGER

@<TRIPOS>ATOM
      1  C          5.4310   -0.0460    2.0030 C.3     1  UNL1        0.0800
      2  C          4.5790    1.1510    1.7580 C.2     1  UNL1        0.1300
      3  C          4.8990    2.1310    0.6860 C.3     1  UNL1        0.0870
      4  O          3.5880    1.3640    2.4370 O.2     1  UNL1       -0.3000
      5  C          6.8650    0.2030    1.5790 C.3     1  UNL1        0.0430
      6  C          7.2890   -0.7250    0.5160 C.2     1  UNL1       -0.0440
      7  C          7.1620   -0.3950   -0.8390 C.2     1  UNL1        0.0080
      8  C          7.8280   -1.9470    0.8500 C.2     1  UNL1        0.0540
      9  C          7.5780   -1.3050   -1.7930 C.2     1  UNL1        0.0510
     10  C          8.2480   -2.8630   -0.1190 C.2     1  UNL1        0.1660
     11  C          8.1210   -2.5400   -1.4510 C.2     1  UNL1        0.1650
     12  O          8.8050   -4.1220   -0.0430 O.2     1  UNL1       -0.4540
     13  O          8.6100   -3.6170   -2.1730 O.2     1  UNL1       -0.4540
     14  C          9.1370   -4.6040   -1.3190 C.3     1  UNL1        0.4680
@<TRIPOS>BOND
     1    13    11    1
     2    13    14    1
     3     9    11    2
     4     9     7    1
     5    11    10    1
     6    14    12    1
     7     7     6    2
     8    10    12    1
     9    10     8    2
    10     6     8    1
    11     6     5    1
    12     3     2    1
    13     5     1    1
    14     2     1    1
    15     2     4    2
