@<TRIPOS>MOLECULE
/home/cewinharhar/GITHUB/reincatalyze/data/processed/docking_pred/2023-May-30-2130_sub9_nm5_bs15_s42_ex16_mel10_mts10000_k50_ec05_g099_lra3e-4_lrc3e-3/e281d12024db848d687da958e708daeec302f4e2_ligand_9.pdbqt
 14 15 0 0 0
SMALL
GASTEIGER

@<TRIPOS>ATOM
      1  C          6.4010    1.1860    0.9410 C.3     1  UNL1        0.0800
      2  C          5.6630    0.3690    1.9440 C.2     1  UNL1        0.1300
      3  C          6.2530   -0.8630    2.5330 C.3     1  UNL1        0.0870
      4  O          4.5450    0.6890    2.3140 O.2     1  UNL1       -0.3000
      5  C          5.8960    0.9200   -0.4640 C.3     1  UNL1        0.0430
      6  C          6.8390    0.0910   -1.2350 C.2     1  UNL1       -0.0440
      7  C          7.5240    0.5990   -2.3450 C.2     1  UNL1        0.0080
      8  C          7.0610   -1.2160   -0.8630 C.2     1  UNL1        0.0540
      9  C          8.3970   -0.2260   -3.0300 C.2     1  UNL1        0.0510
     10  C          7.9450   -2.0460   -1.5590 C.2     1  UNL1        0.1660
     11  C          8.6180   -1.5470   -2.6520 C.2     1  UNL1        0.1650
     12  O          8.3310   -3.3580   -1.3910 O.2     1  UNL1       -0.4540
     13  O          9.4130   -2.5740   -3.1360 O.2     1  UNL1       -0.4540
     14  C          9.3300   -3.7120   -2.3120 C.3     1  UNL1        0.4680
@<TRIPOS>BOND
     1    13    11    1
     2    13    14    1
     3     9    11    2
     4     9     7    1
     5    11    10    1
     6     7     6    2
     7    14    12    1
     8    10    12    1
     9    10     8    2
    10     6     8    1
    11     6     5    1
    12     5     1    1
    13     1     2    1
    14     2     4    2
    15     2     3    1
