@<TRIPOS>MOLECULE
/home/cewinharhar/GITHUB/reincatalyze/data/processed/docking_pred/2023-May-30-2130_sub9_nm5_bs15_s42_ex16_mel10_mts10000_k50_ec05_g099_lra3e-4_lrc3e-3/e33fc02a2c605d994bfafb576cf962440eafd15b_ligand_9.pdbqt
 14 15 0 0 0
SMALL
GASTEIGER

@<TRIPOS>ATOM
      1  C          5.4220   -0.0720    1.9830 C.3     1  UNL1        0.0800
      2  C          4.5860    1.1380    1.7440 C.2     1  UNL1        0.1300
      3  C          4.9130    2.1120    0.6680 C.3     1  UNL1        0.0870
      4  O          3.6030    1.3660    2.4290 O.2     1  UNL1       -0.3000
      5  C          6.8620    0.1650    1.5740 C.3     1  UNL1        0.0430
      6  C          7.2820   -0.7510    0.4980 C.2     1  UNL1       -0.0440
      7  C          7.1210   -0.4180   -0.8510 C.2     1  UNL1        0.0080
      8  C          7.8500   -1.9630    0.8170 C.2     1  UNL1        0.0540
      9  C          7.5340   -1.3170   -1.8180 C.2     1  UNL1        0.0510
     10  C          8.2670   -2.8680   -0.1640 C.2     1  UNL1        0.1660
     11  C          8.1080   -2.5420   -1.4920 C.2     1  UNL1        0.1650
     12  O          8.8490   -4.1160   -0.1040 O.2     1  UNL1       -0.4540
     13  O          8.6010   -3.6080   -2.2280 O.2     1  UNL1       -0.4540
     14  C          9.1640   -4.5880   -1.3890 C.3     1  UNL1        0.4680
@<TRIPOS>BOND
     1    13    11    1
     2    13    14    1
     3     9    11    2
     4     9     7    1
     5    11    10    1
     6    14    12    1
     7     7     6    2
     8    10    12    1
     9    10     8    2
    10     6     8    1
    11     6     5    1
    12     3     2    1
    13     5     1    1
    14     2     1    1
    15     2     4    2
