MODEL 1
REMARK VINA RESULT:      -7.5      0.000      0.000
REMARK SMILES CC(=O)CCc1ccc2c(c1)OCO2
REMARK SMILES IDX 4 1 2 2 1 3 3 4 5 5 6 6 7 7 11 8 8 9 10 10 9 11 12 12 14 13
REMARK SMILES IDX 13 14
REMARK H PARENT
REMARK Flexibility Score: inf
ROOT
ATOM      1  C   UNL     1       5.511   1.892   1.286  1.00  0.00     0.080 C 
ENDROOT
BRANCH   1   2
ATOM      2  C   UNL     1       5.067   0.671   2.014  1.00  0.00     0.130 C 
ATOM      3  C   UNL     1       5.953  -0.515   2.163  1.00  0.00     0.087 C 
ATOM      4  O   UNL     1       3.955   0.608   2.513  1.00  0.00    -0.300 OA
ENDBRANCH   1   2
BRANCH   1   5
ATOM      5  C   UNL     1       5.384   1.715  -0.214  1.00  0.00     0.043 C 
BRANCH   5   6
ATOM      6  C   UNL     1       6.553   1.021  -0.783  1.00  0.00    -0.044 A 
ATOM      7  C   UNL     1       7.859   1.465  -0.542  1.00  0.00     0.008 A 
ATOM      8  C   UNL     1       6.369  -0.093  -1.571  1.00  0.00     0.054 A 
ATOM      9  C   UNL     1       8.917   0.773  -1.101  1.00  0.00     0.051 A 
ATOM     10  C   UNL     1       7.443  -0.789  -2.134  1.00  0.00     0.166 A 
ATOM     11  C   UNL     1       8.728  -0.352  -1.897  1.00  0.00     0.165 A 
ATOM     12  O   UNL     1       7.520  -1.905  -2.940  1.00  0.00    -0.454 OA
ATOM     13  O   UNL     1       9.576  -1.218  -2.569  1.00  0.00    -0.454 OA
ATOM     14  C   UNL     1       8.857  -2.270  -3.168  1.00  0.00     0.468 C 
ENDBRANCH   5   6
ENDBRANCH   1   5
TORSDOF 3
ENDMDL
MODEL 2
REMARK VINA RESULT:      -7.1      1.917      2.424
REMARK SMILES CC(=O)CCc1ccc2c(c1)OCO2
REMARK SMILES IDX 4 1 2 2 1 3 3 4 5 5 6 6 7 7 11 8 8 9 10 10 9 11 12 12 14 13
REMARK SMILES IDX 13 14
REMARK H PARENT
REMARK Flexibility Score: inf
ROOT
ATOM      1  C   UNL     1       5.757   1.171  -0.333  1.00  0.00     0.080 C 
ENDROOT
BRANCH   1   2
ATOM      2  C   UNL     1       5.298   1.187   1.084  1.00  0.00     0.130 C 
ATOM      3  C   UNL     1       5.544   0.038   1.997  1.00  0.00     0.087 C 
ATOM      4  O   UNL     1       4.703   2.150   1.539  1.00  0.00    -0.300 OA
ENDBRANCH   1   2
BRANCH   1   5
ATOM      5  C   UNL     1       7.265   1.045  -0.422  1.00  0.00     0.043 C 
BRANCH   5   6
ATOM      6  C   UNL     1       7.672  -0.248  -1.001  1.00  0.00    -0.044 A 
ATOM      7  C   UNL     1       7.809  -0.422  -2.383  1.00  0.00     0.008 A 
ATOM      8  C   UNL     1       7.928  -1.316  -0.172  1.00  0.00     0.054 A 
ATOM      9  C   UNL     1       8.195  -1.658  -2.869  1.00  0.00     0.051 A 
ATOM     10  C   UNL     1       8.319  -2.563  -0.668  1.00  0.00     0.166 A 
ATOM     11  C   UNL     1       8.452  -2.736  -2.028  1.00  0.00     0.165 A 
ATOM     12  O   UNL     1       8.626  -3.762  -0.060  1.00  0.00    -0.454 OA
ATOM     13  O   UNL     1       8.844  -4.050  -2.229  1.00  0.00    -0.454 OA
ATOM     14  C   UNL     1       9.054  -4.711  -1.004  1.00  0.00     0.468 C 
ENDBRANCH   5   6
ENDBRANCH   1   5
TORSDOF 3
ENDMDL
MODEL 3
REMARK VINA RESULT:      -7.0      1.246      1.448
REMARK SMILES CC(=O)CCc1ccc2c(c1)OCO2
REMARK SMILES IDX 4 1 2 2 1 3 3 4 5 5 6 6 7 7 11 8 8 9 10 10 9 11 12 12 14 13
REMARK SMILES IDX 13 14
REMARK H PARENT
REMARK Flexibility Score: inf
ROOT
ATOM      1  C   UNL     1       6.366   1.251   0.919  1.00  0.00     0.080 C 
ENDROOT
BRANCH   1   2
ATOM      2  C   UNL     1       5.659   0.404   1.920  1.00  0.00     0.130 C 
ATOM      3  C   UNL     1       6.292  -0.810   2.501  1.00  0.00     0.087 C 
ATOM      4  O   UNL     1       4.531   0.683   2.293  1.00  0.00    -0.300 OA
ENDBRANCH   1   2
BRANCH   1   5
ATOM      5  C   UNL     1       5.868   0.975  -0.486  1.00  0.00     0.043 C 
BRANCH   5   6
ATOM      6  C   UNL     1       6.814   0.138  -1.246  1.00  0.00    -0.044 A 
ATOM      7  C   UNL     1       7.516   0.641  -2.347  1.00  0.00     0.008 A 
ATOM      8  C   UNL     1       7.022  -1.169  -0.871  1.00  0.00     0.054 A 
ATOM      9  C   UNL     1       8.392  -0.190  -3.022  1.00  0.00     0.051 A 
ATOM     10  C   UNL     1       7.909  -2.006  -1.556  1.00  0.00     0.166 A 
ATOM     11  C   UNL     1       8.599  -1.512  -2.640  1.00  0.00     0.165 A 
ATOM     12  O   UNL     1       8.283  -3.321  -1.382  1.00  0.00    -0.454 OA
ATOM     13  O   UNL     1       9.392  -2.545  -3.115  1.00  0.00    -0.454 OA
ATOM     14  C   UNL     1       9.291  -3.683  -2.292  1.00  0.00     0.468 C 
ENDBRANCH   5   6
ENDBRANCH   1   5
TORSDOF 3
ENDMDL
MODEL 4
REMARK VINA RESULT:      -7.0      2.037      2.613
REMARK SMILES CC(=O)CCc1ccc2c(c1)OCO2
REMARK SMILES IDX 4 1 2 2 1 3 3 4 5 5 6 6 7 7 11 8 8 9 10 10 9 11 12 12 14 13
REMARK SMILES IDX 13 14
REMARK H PARENT
REMARK Flexibility Score: inf
ROOT
ATOM      1  C   UNL     1       5.422  -0.072   1.983  1.00  0.00     0.080 C 
ENDROOT
BRANCH   1   2
ATOM      2  C   UNL     1       4.586   1.138   1.744  1.00  0.00     0.130 C 
ATOM      3  C   UNL     1       4.913   2.112   0.668  1.00  0.00     0.087 C 
ATOM      4  O   UNL     1       3.603   1.366   2.429  1.00  0.00    -0.300 OA
ENDBRANCH   1   2
BRANCH   1   5
ATOM      5  C   UNL     1       6.862   0.165   1.574  1.00  0.00     0.043 C 
BRANCH   5   6
ATOM      6  C   UNL     1       7.282  -0.751   0.498  1.00  0.00    -0.044 A 
ATOM      7  C   UNL     1       7.121  -0.418  -0.851  1.00  0.00     0.008 A 
ATOM      8  C   UNL     1       7.850  -1.963   0.817  1.00  0.00     0.054 A 
ATOM      9  C   UNL     1       7.534  -1.317  -1.818  1.00  0.00     0.051 A 
ATOM     10  C   UNL     1       8.267  -2.868  -0.164  1.00  0.00     0.166 A 
ATOM     11  C   UNL     1       8.108  -2.542  -1.492  1.00  0.00     0.165 A 
ATOM     12  O   UNL     1       8.849  -4.116  -0.104  1.00  0.00    -0.454 OA
ATOM     13  O   UNL     1       8.601  -3.608  -2.228  1.00  0.00    -0.454 OA
ATOM     14  C   UNL     1       9.164  -4.588  -1.389  1.00  0.00     0.468 C 
ENDBRANCH   5   6
ENDBRANCH   1   5
TORSDOF 3
ENDMDL
MODEL 5
REMARK VINA RESULT:      -6.7      1.189      5.175
REMARK SMILES CC(=O)CCc1ccc2c(c1)OCO2
REMARK SMILES IDX 4 1 2 2 1 3 3 4 5 5 6 6 7 7 11 8 8 9 10 10 9 11 12 12 14 13
REMARK SMILES IDX 13 14
REMARK H PARENT
REMARK Flexibility Score: inf
ROOT
ATOM      1  C   UNL     1       8.334   0.206  -2.637  1.00  0.00     0.080 C 
ENDROOT
BRANCH   1   2
ATOM      2  C   UNL     1       8.047  -1.252  -2.743  1.00  0.00     0.130 C 
ATOM      3  C   UNL     1       9.126  -2.244  -2.998  1.00  0.00     0.087 C 
ATOM      4  O   UNL     1       6.909  -1.678  -2.624  1.00  0.00    -0.300 OA
ENDBRANCH   1   2
BRANCH   1   5
ATOM      5  C   UNL     1       8.854   0.565  -1.259  1.00  0.00     0.043 C 
BRANCH   5   6
ATOM      6  C   UNL     1       7.811   0.424  -0.227  1.00  0.00    -0.044 A 
ATOM      7  C   UNL     1       7.903  -0.543   0.780  1.00  0.00     0.008 A 
ATOM      8  C   UNL     1       6.717   1.259  -0.244  1.00  0.00     0.054 A 
ATOM      9  C   UNL     1       6.895  -0.628   1.723  1.00  0.00     0.051 A 
ATOM     10  C   UNL     1       5.700   1.169   0.711  1.00  0.00     0.166 A 
ATOM     11  C   UNL     1       5.790   0.217   1.703  1.00  0.00     0.165 A 
ATOM     12  O   UNL     1       4.530   1.871   0.907  1.00  0.00    -0.454 OA
ATOM     13  O   UNL     1       4.661   0.357   2.495  1.00  0.00    -0.454 OA
ATOM     14  C   UNL     1       3.881   1.452   2.080  1.00  0.00     0.468 C 
ENDBRANCH   5   6
ENDBRANCH   1   5
TORSDOF 3
ENDMDL
