@<TRIPOS>MOLECULE
/home/cewinharhar/GITHUB/reincatalyze/data/processed/docking_pred/2023-May-30-2130_sub9_nm5_bs15_s42_ex16_mel10_mts10000_k50_ec05_g099_lra3e-4_lrc3e-3/e33fc02a2c605d994bfafb576cf962440eafd15b_ligand_9.pdbqt
 14 15 0 0 0
SMALL
GASTEIGER

@<TRIPOS>ATOM
      1  C          8.3340    0.2060   -2.6370 C.3     1  UNL1        0.0800
      2  C          8.0470   -1.2520   -2.7430 C.2     1  UNL1        0.1300
      3  C          9.1260   -2.2440   -2.9980 C.3     1  UNL1        0.0870
      4  O          6.9090   -1.6780   -2.6240 O.2     1  UNL1       -0.3000
      5  C          8.8540    0.5650   -1.2590 C.3     1  UNL1        0.0430
      6  C          7.8110    0.4240   -0.2270 C.2     1  UNL1       -0.0440
      7  C          7.9030   -0.5430    0.7800 C.2     1  UNL1        0.0080
      8  C          6.7170    1.2590   -0.2440 C.2     1  UNL1        0.0540
      9  C          6.8950   -0.6280    1.7230 C.2     1  UNL1        0.0510
     10  C          5.7000    1.1690    0.7110 C.2     1  UNL1        0.1660
     11  C          5.7900    0.2170    1.7030 C.2     1  UNL1        0.1650
     12  O          4.5300    1.8710    0.9070 O.2     1  UNL1       -0.4540
     13  O          4.6610    0.3570    2.4950 O.2     1  UNL1       -0.4540
     14  C          3.8810    1.4520    2.0800 C.3     1  UNL1        0.4680
@<TRIPOS>BOND
     1     3     2    1
     2     2     1    1
     3     2     4    2
     4     1     5    1
     5     5     6    1
     6     8     6    2
     7     8    10    1
     8     6     7    1
     9    10    12    1
    10    10    11    2
    11     7     9    2
    12    12    14    1
    13    11     9    1
    14    11    13    1
    15    14    13    1
