@<TRIPOS>MOLECULE
/home/cewinharhar/GITHUB/reincatalyze/data/processed/docking_pred/2023-May-30-2130_sub9_nm5_bs15_s42_ex16_mel10_mts10000_k50_ec05_g099_lra3e-4_lrc3e-3/e33fc02a2c605d994bfafb576cf962440eafd15b_ligand_9.pdbqt
 14 15 0 0 0
SMALL
GASTEIGER

@<TRIPOS>ATOM
      1  C          5.7570    1.1710   -0.3330 C.3     1  UNL1        0.0800
      2  C          5.2980    1.1870    1.0840 C.2     1  UNL1        0.1300
      3  C          5.5440    0.0380    1.9970 C.3     1  UNL1        0.0870
      4  O          4.7030    2.1500    1.5390 O.2     1  UNL1       -0.3000
      5  C          7.2650    1.0450   -0.4220 C.3     1  UNL1        0.0430
      6  C          7.6720   -0.2480   -1.0010 C.2     1  UNL1       -0.0440
      7  C          7.8090   -0.4220   -2.3830 C.2     1  UNL1        0.0080
      8  C          7.9280   -1.3160   -0.1720 C.2     1  UNL1        0.0540
      9  C          8.1950   -1.6580   -2.8690 C.2     1  UNL1        0.0510
     10  C          8.3190   -2.5630   -0.6680 C.2     1  UNL1        0.1660
     11  C          8.4520   -2.7360   -2.0280 C.2     1  UNL1        0.1650
     12  O          8.6260   -3.7620   -0.0600 O.2     1  UNL1       -0.4540
     13  O          8.8440   -4.0500   -2.2290 O.2     1  UNL1       -0.4540
     14  C          9.0540   -4.7110   -1.0040 C.3     1  UNL1        0.4680
@<TRIPOS>BOND
     1     9     7    1
     2     9    11    2
     3     7     6    2
     4    13    11    1
     5    13    14    1
     6    11    10    1
     7    14    12    1
     8     6     5    1
     9     6     8    1
    10    10     8    2
    11    10    12    1
    12     5     1    1
    13     1     2    1
    14     2     4    2
    15     2     3    1
