@<TRIPOS>MOLECULE
/home/cewinharhar/GITHUB/reincatalyze/data/processed/docking_pred/2023-May-30-2130_sub9_nm5_bs15_s42_ex16_mel10_mts10000_k50_ec05_g099_lra3e-4_lrc3e-3/e35db10e4b28a2099dd85492d8d02f81387cb183_ligand_9.pdbqt
 14 15 0 0 0
SMALL
GASTEIGER

@<TRIPOS>ATOM
      1  C          6.6460    0.0260    1.9230 C.3     1  UNL1        0.0800
      2  C          5.3680    0.7630    1.7120 C.2     1  UNL1        0.1300
      3  C          5.1980    1.7250    0.5910 C.3     1  UNL1        0.0870
      4  O          4.4190    0.5970    2.4600 O.2     1  UNL1       -0.3000
      5  C          6.5230   -1.4220    1.4910 C.3     1  UNL1        0.0430
      6  C          7.2680   -1.6860    0.2470 C.2     1  UNL1       -0.0440
      7  C          6.8630   -1.1450   -0.9790 C.2     1  UNL1        0.0080
      8  C          8.3910   -2.4800    0.2800 C.2     1  UNL1        0.0540
      9  C          7.6020   -1.4270   -2.1140 C.2     1  UNL1        0.0510
     10  C          9.1350   -2.7620   -0.8700 C.2     1  UNL1        0.1660
     11  C          8.7370   -2.2310   -2.0770 C.2     1  UNL1        0.1650
     12  O         10.2700   -3.5110   -1.0950 O.2     1  UNL1       -0.4540
     13  O          9.6460   -2.6690   -3.0270 O.2     1  UNL1       -0.4540
     14  C         10.6860   -3.4090   -2.4330 C.3     1  UNL1        0.4680
@<TRIPOS>BOND
     1    13    14    1
     2    13    11    1
     3    14    12    1
     4     9    11    2
     5     9     7    1
     6    11    10    1
     7    12    10    1
     8     7     6    2
     9    10     8    2
    10     6     8    1
    11     6     5    1
    12     3     2    1
    13     5     1    1
    14     2     1    1
    15     2     4    2
