@<TRIPOS>MOLECULE
/home/cewinharhar/GITHUB/reincatalyze/data/processed/docking_pred/2023-May-30-2130_sub9_nm5_bs15_s42_ex16_mel10_mts10000_k50_ec05_g099_lra3e-4_lrc3e-3/e3e0f9713a2c6d1770d60d03407d62bfa70f046f_ligand_9.pdbqt
 14 15 0 0 0
SMALL
GASTEIGER

@<TRIPOS>ATOM
      1  C          5.4860    1.9280    1.2480 C.3     1  UNL1        0.0800
      2  C          4.9820    0.7300    1.9770 C.2     1  UNL1        0.1300
      3  C          5.7750   -0.5250    2.0580 C.3     1  UNL1        0.0870
      4  O          3.8960    0.7460    2.5320 O.2     1  UNL1       -0.3000
      5  C          5.3760    1.7460   -0.2530 C.3     1  UNL1        0.0430
      6  C          6.5490    1.0450   -0.8060 C.2     1  UNL1       -0.0440
      7  C          7.8540    1.4780   -0.5410 C.2     1  UNL1        0.0080
      8  C          6.3690   -0.0640   -1.6010 C.2     1  UNL1        0.0540
      9  C          8.9160    0.7800   -1.0860 C.2     1  UNL1        0.0510
     10  C          7.4460   -0.7660   -2.1490 C.2     1  UNL1        0.1660
     11  C          8.7300   -0.3410   -1.8900 C.2     1  UNL1        0.1650
     12  O          7.5280   -1.8800   -2.9580 O.2     1  UNL1       -0.4540
     13  O          9.5820   -1.2110   -2.5520 O.2     1  UNL1       -0.4540
     14  C          8.8650   -2.2550   -3.1670 C.3     1  UNL1        0.4680
@<TRIPOS>BOND
     1    14    12    1
     2    14    13    1
     3    12    10    1
     4    13    11    1
     5    10    11    2
     6    10     8    1
     7    11     9    1
     8     8     6    2
     9     9     7    2
    10     6     7    1
    11     6     5    1
    12     5     1    1
    13     1     2    1
    14     2     3    1
    15     2     4    2
