@<TRIPOS>MOLECULE
/home/cewinharhar/GITHUB/reincatalyze/data/processed/docking_pred/2023-May-30-2130_sub9_nm5_bs15_s42_ex16_mel10_mts10000_k50_ec05_g099_lra3e-4_lrc3e-3/e3e0f9713a2c6d1770d60d03407d62bfa70f046f_ligand_9.pdbqt
 14 15 0 0 0
SMALL
GASTEIGER

@<TRIPOS>ATOM
      1  C          6.3170    0.3650    1.1420 C.3     1  UNL1        0.0800
      2  C          6.0930    0.7310   -0.2850 C.2     1  UNL1        0.1300
      3  C          6.8020    0.0330   -1.3910 C.3     1  UNL1        0.0870
      4  O          5.3170    1.6220   -0.5890 O.2     1  UNL1       -0.3000
      5  C          6.4100   -1.1380    1.3160 C.3     1  UNL1        0.0430
      6  C          7.5550   -1.5200    2.1620 C.2     1  UNL1       -0.0440
      7  C          7.6210   -1.1600    3.5120 C.2     1  UNL1        0.0080
      8  C          8.5890   -2.2500    1.6210 C.2     1  UNL1        0.0540
      9  C          8.7200   -1.5470    4.2570 C.2     1  UNL1        0.0510
     10  C          9.6970   -2.6400    2.3790 C.2     1  UNL1        0.1660
     11  C          9.7630   -2.2850    3.7080 C.2     1  UNL1        0.1650
     12  O         10.8360   -3.3570    2.0780 O.2     1  UNL1       -0.4540
     13  O         10.9530   -2.7980    4.2010 O.2     1  UNL1       -0.4540
     14  C         11.6200   -3.5620    3.2250 C.3     1  UNL1        0.4680
@<TRIPOS>BOND
     1     3     2    1
     2     4     2    2
     3     2     1    1
     4     1     5    1
     5     5     6    1
     6     8     6    2
     7     8    10    1
     8    12    10    1
     9    12    14    1
    10     6     7    1
    11    10    11    2
    12    14    13    1
    13     7     9    2
    14    11    13    1
    15    11     9    1
