@<TRIPOS>MOLECULE
/home/cewinharhar/GITHUB/reincatalyze/data/processed/docking_pred/2023-May-30-2130_sub9_nm5_bs15_s42_ex16_mel10_mts10000_k50_ec05_g099_lra3e-4_lrc3e-3/e3e0f9713a2c6d1770d60d03407d62bfa70f046f_ligand_9.pdbqt
 14 15 0 0 0
SMALL
GASTEIGER

@<TRIPOS>ATOM
      1  C          6.9970   -0.2770    1.3530 C.3     1  UNL1        0.0800
      2  C          5.8760    0.6430    1.0140 C.2     1  UNL1        0.1300
      3  C          5.7170    1.2100   -0.3520 C.3     1  UNL1        0.0870
      4  O          5.0500    0.9610    1.8550 O.2     1  UNL1       -0.3000
      5  C          6.8700   -0.8000    2.7700 C.3     1  UNL1        0.0430
      6  C          8.1210   -1.4240    3.2360 C.2     1  UNL1       -0.0440
      7  C          8.5450   -1.3130    4.5660 C.2     1  UNL1        0.0080
      8  C          8.8990   -2.1370    2.3520 C.2     1  UNL1        0.0540
      9  C          9.7280   -1.9210    4.9460 C.2     1  UNL1        0.0510
     10  C         10.0940   -2.7500    2.7420 C.2     1  UNL1        0.1660
     11  C         10.5110   -2.6410    4.0500 C.2     1  UNL1        0.1650
     12  O         11.0290   -3.5010    2.0630 O.2     1  UNL1       -0.4540
     13  O         11.7070   -3.3350    4.1480 O.2     1  UNL1       -0.4540
     14  C         12.0260   -3.9720    2.9340 C.3     1  UNL1        0.4680
@<TRIPOS>BOND
     1     3     2    1
     2     2     1    1
     3     2     4    2
     4     1     5    1
     5    12    10    1
     6    12    14    1
     7     8    10    1
     8     8     6    2
     9    10    11    2
    10     5     6    1
    11    14    13    1
    12     6     7    1
    13    11    13    1
    14    11     9    1
    15     7     9    2
