@<TRIPOS>MOLECULE
/home/cewinharhar/GITHUB/reincatalyze/data/processed/docking_pred/2023-May-30-2130_sub9_nm5_bs15_s42_ex16_mel10_mts10000_k50_ec05_g099_lra3e-4_lrc3e-3/e3e0f9713a2c6d1770d60d03407d62bfa70f046f_ligand_9.pdbqt
 14 15 0 0 0
SMALL
GASTEIGER

@<TRIPOS>ATOM
      1  C          5.2960   -0.0690    1.9860 C.3     1  UNL1        0.0800
      2  C          5.2110    1.0990    1.0640 C.2     1  UNL1        0.1300
      3  C          5.9920    1.1550   -0.2000 C.3     1  UNL1        0.0870
      4  O          4.4920    2.0500    1.3240 O.2     1  UNL1       -0.3000
      5  C          6.0210   -1.2310    1.3350 C.3     1  UNL1        0.0430
      6  C          7.2800   -1.5490    2.0320 C.2     1  UNL1       -0.0440
      7  C          8.3070   -2.2590    1.4010 C.2     1  UNL1        0.0080
      8  C          7.4620   -1.1390    3.3330 C.2     1  UNL1        0.0540
      9  C          9.4680   -2.5270    2.1040 C.2     1  UNL1        0.0510
     10  C          8.6370   -1.4120    4.0400 C.2     1  UNL1        0.1660
     11  C          9.6480   -2.1120    3.4200 C.2     1  UNL1        0.1650
     12  O          9.0530   -1.1190    5.3210 O.2     1  UNL1       -0.4540
     13  O         10.6750   -2.2350    4.3430 O.2     1  UNL1       -0.4540
     14  C         10.3760   -1.5410    5.5310 C.3     1  UNL1        0.4680
@<TRIPOS>BOND
     1     3     2    1
     2     2     4    2
     3     2     1    1
     4     5     1    1
     5     5     6    1
     6     7     6    2
     7     7     9    1
     8     6     8    1
     9     9    11    2
    10     8    10    2
    11    11    10    1
    12    11    13    1
    13    10    12    1
    14    13    14    1
    15    12    14    1
