MODEL 1
REMARK VINA RESULT:      -7.5      0.000      0.000
REMARK SMILES CC(=O)CCc1ccc2c(c1)OCO2
REMARK SMILES IDX 4 1 2 2 1 3 3 4 5 5 6 6 7 7 11 8 8 9 10 10 9 11 12 12 14 13
REMARK SMILES IDX 13 14
REMARK H PARENT
REMARK Flexibility Score: inf
ROOT
ATOM      1  C   UNL     1       5.491  -0.274   1.989  1.00  0.00     0.080 C 
ENDROOT
BRANCH   1   2
ATOM      2  C   UNL     1       5.259   0.966   1.198  1.00  0.00     0.130 C 
ATOM      3  C   UNL     1       5.929   1.195  -0.110  1.00  0.00     0.087 C 
ATOM      4  O   UNL     1       4.507   1.837   1.604  1.00  0.00    -0.300 OA
ENDBRANCH   1   2
BRANCH   1   5
ATOM      5  C   UNL     1       6.467  -1.199   1.290  1.00  0.00     0.043 C 
BRANCH   5   6
ATOM      6  C   UNL     1       7.601  -1.556   2.161  1.00  0.00    -0.044 A 
ATOM      7  C   UNL     1       7.628  -1.198   3.513  1.00  0.00     0.008 A 
ATOM      8  C   UNL     1       8.664  -2.261   1.642  1.00  0.00     0.054 A 
ATOM      9  C   UNL     1       8.719  -1.561   4.282  1.00  0.00     0.051 A 
ATOM     10  C   UNL     1       9.764  -2.627   2.424  1.00  0.00     0.166 A 
ATOM     11  C   UNL     1       9.791  -2.274   3.755  1.00  0.00     0.165 A 
ATOM     12  O   UNL     1      10.925  -3.317   2.148  1.00  0.00    -0.454 OA
ATOM     13  O   UNL     1      10.981  -2.760   4.274  1.00  0.00    -0.454 OA
ATOM     14  C   UNL     1      11.688  -3.506   3.312  1.00  0.00     0.468 C 
ENDBRANCH   5   6
ENDBRANCH   1   5
TORSDOF 3
ENDMDL
MODEL 2
REMARK VINA RESULT:      -7.3      3.866      4.872
REMARK SMILES CC(=O)CCc1ccc2c(c1)OCO2
REMARK SMILES IDX 4 1 2 2 1 3 3 4 5 5 6 6 7 7 11 8 8 9 10 10 9 11 12 12 14 13
REMARK SMILES IDX 13 14
REMARK H PARENT
REMARK Flexibility Score: inf
ROOT
ATOM      1  C   UNL     1       5.486   1.928   1.248  1.00  0.00     0.080 C 
ENDROOT
BRANCH   1   2
ATOM      2  C   UNL     1       4.982   0.730   1.977  1.00  0.00     0.130 C 
ATOM      3  C   UNL     1       5.775  -0.525   2.058  1.00  0.00     0.087 C 
ATOM      4  O   UNL     1       3.896   0.746   2.532  1.00  0.00    -0.300 OA
ENDBRANCH   1   2
BRANCH   1   5
ATOM      5  C   UNL     1       5.376   1.746  -0.253  1.00  0.00     0.043 C 
BRANCH   5   6
ATOM      6  C   UNL     1       6.549   1.045  -0.806  1.00  0.00    -0.044 A 
ATOM      7  C   UNL     1       7.854   1.478  -0.541  1.00  0.00     0.008 A 
ATOM      8  C   UNL     1       6.369  -0.064  -1.601  1.00  0.00     0.054 A 
ATOM      9  C   UNL     1       8.916   0.780  -1.086  1.00  0.00     0.051 A 
ATOM     10  C   UNL     1       7.446  -0.766  -2.149  1.00  0.00     0.166 A 
ATOM     11  C   UNL     1       8.730  -0.341  -1.890  1.00  0.00     0.165 A 
ATOM     12  O   UNL     1       7.528  -1.880  -2.958  1.00  0.00    -0.454 OA
ATOM     13  O   UNL     1       9.582  -1.211  -2.552  1.00  0.00    -0.454 OA
ATOM     14  C   UNL     1       8.865  -2.255  -3.167  1.00  0.00     0.468 C 
ENDBRANCH   5   6
ENDBRANCH   1   5
TORSDOF 3
ENDMDL
MODEL 3
REMARK VINA RESULT:      -7.0      0.890      1.003
REMARK SMILES CC(=O)CCc1ccc2c(c1)OCO2
REMARK SMILES IDX 4 1 2 2 1 3 3 4 5 5 6 6 7 7 11 8 8 9 10 10 9 11 12 12 14 13
REMARK SMILES IDX 13 14
REMARK H PARENT
REMARK Flexibility Score: inf
ROOT
ATOM      1  C   UNL     1       6.317   0.365   1.142  1.00  0.00     0.080 C 
ENDROOT
BRANCH   1   2
ATOM      2  C   UNL     1       6.093   0.731  -0.285  1.00  0.00     0.130 C 
ATOM      3  C   UNL     1       6.802   0.033  -1.391  1.00  0.00     0.087 C 
ATOM      4  O   UNL     1       5.317   1.622  -0.589  1.00  0.00    -0.300 OA
ENDBRANCH   1   2
BRANCH   1   5
ATOM      5  C   UNL     1       6.410  -1.138   1.316  1.00  0.00     0.043 C 
BRANCH   5   6
ATOM      6  C   UNL     1       7.555  -1.520   2.162  1.00  0.00    -0.044 A 
ATOM      7  C   UNL     1       7.621  -1.160   3.512  1.00  0.00     0.008 A 
ATOM      8  C   UNL     1       8.589  -2.250   1.621  1.00  0.00     0.054 A 
ATOM      9  C   UNL     1       8.720  -1.547   4.257  1.00  0.00     0.051 A 
ATOM     10  C   UNL     1       9.697  -2.640   2.379  1.00  0.00     0.166 A 
ATOM     11  C   UNL     1       9.763  -2.285   3.708  1.00  0.00     0.165 A 
ATOM     12  O   UNL     1      10.836  -3.357   2.078  1.00  0.00    -0.454 OA
ATOM     13  O   UNL     1      10.953  -2.798   4.201  1.00  0.00    -0.454 OA
ATOM     14  C   UNL     1      11.620  -3.562   3.225  1.00  0.00     0.468 C 
ENDBRANCH   5   6
ENDBRANCH   1   5
TORSDOF 3
ENDMDL
MODEL 4
REMARK VINA RESULT:      -7.0      0.835      1.031
REMARK SMILES CC(=O)CCc1ccc2c(c1)OCO2
REMARK SMILES IDX 4 1 2 2 1 3 3 4 5 5 6 6 7 7 11 8 8 9 10 10 9 11 12 12 14 13
REMARK SMILES IDX 13 14
REMARK H PARENT
REMARK Flexibility Score: inf
ROOT
ATOM      1  C   UNL     1       6.997  -0.277   1.353  1.00  0.00     0.080 C 
ENDROOT
BRANCH   1   2
ATOM      2  C   UNL     1       5.876   0.643   1.014  1.00  0.00     0.130 C 
ATOM      3  C   UNL     1       5.717   1.210  -0.352  1.00  0.00     0.087 C 
ATOM      4  O   UNL     1       5.050   0.961   1.855  1.00  0.00    -0.300 OA
ENDBRANCH   1   2
BRANCH   1   5
ATOM      5  C   UNL     1       6.870  -0.800   2.770  1.00  0.00     0.043 C 
BRANCH   5   6
ATOM      6  C   UNL     1       8.121  -1.424   3.236  1.00  0.00    -0.044 A 
ATOM      7  C   UNL     1       8.545  -1.313   4.566  1.00  0.00     0.008 A 
ATOM      8  C   UNL     1       8.899  -2.137   2.352  1.00  0.00     0.054 A 
ATOM      9  C   UNL     1       9.728  -1.921   4.946  1.00  0.00     0.051 A 
ATOM     10  C   UNL     1      10.094  -2.750   2.742  1.00  0.00     0.166 A 
ATOM     11  C   UNL     1      10.511  -2.641   4.050  1.00  0.00     0.165 A 
ATOM     12  O   UNL     1      11.029  -3.501   2.063  1.00  0.00    -0.454 OA
ATOM     13  O   UNL     1      11.707  -3.335   4.148  1.00  0.00    -0.454 OA
ATOM     14  C   UNL     1      12.026  -3.972   2.934  1.00  0.00     0.468 C 
ENDBRANCH   5   6
ENDBRANCH   1   5
TORSDOF 3
ENDMDL
MODEL 5
REMARK VINA RESULT:      -7.0      0.993      1.950
REMARK SMILES CC(=O)CCc1ccc2c(c1)OCO2
REMARK SMILES IDX 4 1 2 2 1 3 3 4 5 5 6 6 7 7 11 8 8 9 10 10 9 11 12 12 14 13
REMARK SMILES IDX 13 14
REMARK H PARENT
REMARK Flexibility Score: inf
ROOT
ATOM      1  C   UNL     1       5.296  -0.069   1.986  1.00  0.00     0.080 C 
ENDROOT
BRANCH   1   2
ATOM      2  C   UNL     1       5.211   1.099   1.064  1.00  0.00     0.130 C 
ATOM      3  C   UNL     1       5.992   1.155  -0.200  1.00  0.00     0.087 C 
ATOM      4  O   UNL     1       4.492   2.050   1.324  1.00  0.00    -0.300 OA
ENDBRANCH   1   2
BRANCH   1   5
ATOM      5  C   UNL     1       6.021  -1.231   1.335  1.00  0.00     0.043 C 
BRANCH   5   6
ATOM      6  C   UNL     1       7.280  -1.549   2.032  1.00  0.00    -0.044 A 
ATOM      7  C   UNL     1       8.307  -2.259   1.401  1.00  0.00     0.008 A 
ATOM      8  C   UNL     1       7.462  -1.139   3.333  1.00  0.00     0.054 A 
ATOM      9  C   UNL     1       9.468  -2.527   2.104  1.00  0.00     0.051 A 
ATOM     10  C   UNL     1       8.637  -1.412   4.040  1.00  0.00     0.166 A 
ATOM     11  C   UNL     1       9.648  -2.112   3.420  1.00  0.00     0.165 A 
ATOM     12  O   UNL     1       9.053  -1.119   5.321  1.00  0.00    -0.454 OA
ATOM     13  O   UNL     1      10.675  -2.235   4.343  1.00  0.00    -0.454 OA
ATOM     14  C   UNL     1      10.376  -1.541   5.531  1.00  0.00     0.468 C 
ENDBRANCH   5   6
ENDBRANCH   1   5
TORSDOF 3
ENDMDL
