@<TRIPOS>MOLECULE
/home/cewinharhar/GITHUB/reincatalyze/data/processed/docking_pred/2023-May-30-2130_sub9_nm5_bs15_s42_ex16_mel10_mts10000_k50_ec05_g099_lra3e-4_lrc3e-3/e3e0f9713a2c6d1770d60d03407d62bfa70f046f_ligand_9.pdbqt
 14 15 0 0 0
SMALL
GASTEIGER

@<TRIPOS>ATOM
      1  C          5.4910   -0.2740    1.9890 C.3     1  UNL1        0.0800
      2  C          5.2590    0.9660    1.1980 C.2     1  UNL1        0.1300
      3  C          5.9290    1.1950   -0.1100 C.3     1  UNL1        0.0870
      4  O          4.5070    1.8370    1.6040 O.2     1  UNL1       -0.3000
      5  C          6.4670   -1.1990    1.2900 C.3     1  UNL1        0.0430
      6  C          7.6010   -1.5560    2.1610 C.2     1  UNL1       -0.0440
      7  C          7.6280   -1.1980    3.5130 C.2     1  UNL1        0.0080
      8  C          8.6640   -2.2610    1.6420 C.2     1  UNL1        0.0540
      9  C          8.7190   -1.5610    4.2820 C.2     1  UNL1        0.0510
     10  C          9.7640   -2.6270    2.4240 C.2     1  UNL1        0.1660
     11  C          9.7910   -2.2740    3.7550 C.2     1  UNL1        0.1650
     12  O         10.9250   -3.3170    2.1480 O.2     1  UNL1       -0.4540
     13  O         10.9810   -2.7600    4.2740 O.2     1  UNL1       -0.4540
     14  C         11.6880   -3.5060    3.3120 C.3     1  UNL1        0.4680
@<TRIPOS>BOND
     1     3     2    1
     2     2     4    2
     3     2     1    1
     4     5     1    1
     5     5     6    1
     6     8     6    2
     7     8    10    1
     8    12    10    1
     9    12    14    1
    10     6     7    1
    11    10    11    2
    12    14    13    1
    13     7     9    2
    14    11    13    1
    15    11     9    1
