@<TRIPOS>MOLECULE
/home/cewinharhar/GITHUB/reincatalyze/data/processed/docking_pred/2023-May-30-2130_sub9_nm5_bs15_s42_ex16_mel10_mts10000_k50_ec05_g099_lra3e-4_lrc3e-3/e3fbdfe9b196bdc40f83d7817e536621cd4b8c1b_ligand_9.pdbqt
 14 15 0 0 0
SMALL
GASTEIGER

@<TRIPOS>ATOM
      1  C          6.9250    0.8490    1.1730 C.3     1  UNL1        0.0800
      2  C          5.4900    1.1290    1.4570 C.2     1  UNL1        0.1300
      3  C          4.7270    2.1500    0.6900 C.3     1  UNL1        0.0870
      4  O          4.8950    0.5250    2.3350 O.2     1  UNL1       -0.3000
      5  C          7.2270    0.9700   -0.3070 C.3     1  UNL1        0.0430
      6  C          7.5990   -0.3290   -0.8960 C.2     1  UNL1       -0.0440
      7  C          7.6250   -0.5250   -2.2820 C.2     1  UNL1        0.0080
      8  C          7.9330   -1.3810   -0.0730 C.2     1  UNL1        0.0540
      9  C          7.9840   -1.7660   -2.7770 C.2     1  UNL1        0.0510
     10  C          8.2950   -2.6330   -0.5790 C.2     1  UNL1        0.1660
     11  C          8.3200   -2.8270   -1.9430 C.2     1  UNL1        0.1650
     12  O          8.6630   -3.8180    0.0210 O.2     1  UNL1       -0.4540
     13  O          8.7080   -4.1410   -2.1530 O.2     1  UNL1       -0.4540
     14  C          9.0230   -4.7790   -0.9390 C.3     1  UNL1        0.4680
@<TRIPOS>BOND
     1     9     7    1
     2     9    11    2
     3     7     6    2
     4    13    11    1
     5    13    14    1
     6    11    10    1
     7    14    12    1
     8     6     5    1
     9     6     8    1
    10    10     8    2
    11    10    12    1
    12     5     1    1
    13     3     2    1
    14     1     2    1
    15     2     4    2
