@<TRIPOS>MOLECULE
/home/cewinharhar/GITHUB/reincatalyze/data/processed/docking_pred/2023-May-30-2130_sub9_nm5_bs15_s42_ex16_mel10_mts10000_k50_ec05_g099_lra3e-4_lrc3e-3/e4036567ae6c7c824a0e93db279f74886267d276_ligand_9.pdbqt
 14 15 0 0 0
SMALL
GASTEIGER

@<TRIPOS>ATOM
      1  C          5.7350    1.3690   -0.2050 C.3     1  UNL1        0.0800
      2  C          5.0920    1.2440    1.1320 C.2     1  UNL1        0.1300
      3  C          5.3750    0.0920    2.0300 C.3     1  UNL1        0.0870
      4  O          4.3080    2.0890    1.5330 O.2     1  UNL1       -0.3000
      5  C          7.2270    1.1100   -0.1250 C.3     1  UNL1        0.0430
      6  C          7.5940   -0.1690   -0.7590 C.2     1  UNL1       -0.0440
      7  C          7.6370   -0.3120   -2.1510 C.2     1  UNL1        0.0080
      8  C          7.9050   -1.2550    0.0260 C.2     1  UNL1        0.0540
      9  C          7.9890   -1.5360   -2.6900 C.2     1  UNL1        0.0510
     10  C          8.2610   -2.4910   -0.5230 C.2     1  UNL1        0.1660
     11  C          8.3030   -2.6320   -1.8920 C.2     1  UNL1        0.1650
     12  O          8.6080   -3.7030    0.0350 O.2     1  UNL1       -0.4540
     13  O          8.6800   -3.9410   -2.1490 O.2     1  UNL1       -0.4540
     14  C          8.9720   -4.6290   -0.9560 C.3     1  UNL1        0.4680
@<TRIPOS>BOND
     1     9     7    1
     2     9    11    2
     3     7     6    2
     4    13    11    1
     5    13    14    1
     6    11    10    1
     7    14    12    1
     8     6     5    1
     9     6     8    1
    10    10     8    2
    11    10    12    1
    12     1     5    1
    13     1     2    1
    14     2     4    2
    15     2     3    1
