@<TRIPOS>MOLECULE
/home/cewinharhar/GITHUB/reincatalyze/data/processed/docking_pred/2023-May-30-2130_sub9_nm5_bs15_s42_ex16_mel10_mts10000_k50_ec05_g099_lra3e-4_lrc3e-3/e5153a6a2872aa0f73be7da8df97a591d10f8a10_ligand_9.pdbqt
 14 15 0 0 0
SMALL
GASTEIGER

@<TRIPOS>ATOM
      1  C          6.3100    1.2220    0.8750 C.3     1  UNL1        0.0800
      2  C          5.6400    0.3860    1.9090 C.2     1  UNL1        0.1300
      3  C          6.2880   -0.8290    2.4710 C.3     1  UNL1        0.0870
      4  O          4.5310    0.6770    2.3280 O.2     1  UNL1       -0.3000
      5  C          5.8030    0.8900   -0.5150 C.3     1  UNL1        0.0430
      6  C          6.7760    0.0820   -1.2720 C.2     1  UNL1       -0.0440
      7  C          7.4790    0.6120   -2.3600 C.2     1  UNL1        0.0080
      8  C          7.0070   -1.2250   -0.9090 C.2     1  UNL1        0.0540
      9  C          8.3800   -0.1930   -3.0330 C.2     1  UNL1        0.0510
     10  C          7.9190   -2.0350   -1.5920 C.2     1  UNL1        0.1660
     11  C          8.6110   -1.5150   -2.6630 C.2     1  UNL1        0.1650
     12  O          8.3190   -3.3440   -1.4290 O.2     1  UNL1       -0.4540
     13  O          9.4310   -2.5260   -3.1390 O.2     1  UNL1       -0.4540
     14  C          9.3450   -3.6740   -2.3300 C.3     1  UNL1        0.4680
@<TRIPOS>BOND
     1    13    11    1
     2    13    14    1
     3     9    11    2
     4     9     7    1
     5    11    10    1
     6     7     6    2
     7    14    12    1
     8    10    12    1
     9    10     8    2
    10     6     8    1
    11     6     5    1
    12     5     1    1
    13     1     2    1
    14     2     4    2
    15     2     3    1
