@<TRIPOS>MOLECULE
/home/cewinharhar/GITHUB/reincatalyze/data/processed/docking_pred/2023-May-30-2130_sub9_nm5_bs15_s42_ex16_mel10_mts10000_k50_ec05_g099_lra3e-4_lrc3e-3/e69dee760b6a4f483691253cffcee702e9155e2b_ligand_9.pdbqt
 14 15 0 0 0
SMALL
GASTEIGER

@<TRIPOS>ATOM
      1  C          5.5700    1.8710    1.2890 C.3     1  UNL1        0.0800
      2  C          5.1180    0.6530    2.0180 C.2     1  UNL1        0.1300
      3  C          6.0070   -0.5260    2.1930 C.3     1  UNL1        0.0870
      4  O          3.9970    0.5880    2.4940 O.2     1  UNL1       -0.3000
      5  C          5.4320    1.6990   -0.2110 C.3     1  UNL1        0.0430
      6  C          6.5910    0.9980   -0.7900 C.2     1  UNL1       -0.0440
      7  C          7.9010    1.4380   -0.5660 C.2     1  UNL1        0.0080
      8  C          6.3940   -0.1190   -1.5690 C.2     1  UNL1        0.0540
      9  C          8.9500    0.7400   -1.1340 C.2     1  UNL1        0.0510
     10  C          7.4580   -0.8230   -2.1410 C.2     1  UNL1        0.1660
     11  C          8.7470   -0.3890   -1.9220 C.2     1  UNL1        0.1650
     12  O          7.5220   -1.9430   -2.9410 O.2     1  UNL1       -0.4540
     13  O          9.5840   -1.2630   -2.5990 O.2     1  UNL1       -0.4540
     14  C          8.8550   -2.3150   -3.1830 C.3     1  UNL1        0.4680
@<TRIPOS>BOND
     1    14    12    1
     2    14    13    1
     3    12    10    1
     4    13    11    1
     5    10    11    2
     6    10     8    1
     7    11     9    1
     8     8     6    2
     9     9     7    2
    10     6     7    1
    11     6     5    1
    12     5     1    1
    13     1     2    1
    14     2     3    1
    15     2     4    2
