@<TRIPOS>MOLECULE
/home/cewinharhar/GITHUB/reincatalyze/data/processed/docking_pred/2023-May-30-2130_sub9_nm5_bs15_s42_ex16_mel10_mts10000_k50_ec05_g099_lra3e-4_lrc3e-3/e69dee760b6a4f483691253cffcee702e9155e2b_ligand_9.pdbqt
 14 15 0 0 0
SMALL
GASTEIGER

@<TRIPOS>ATOM
      1  C          5.3170   -0.0620    1.9750 C.3     1  UNL1        0.0800
      2  C          4.4370    1.1240    1.7820 C.2     1  UNL1        0.1300
      3  C          4.7260    2.1500    0.7450 C.3     1  UNL1        0.0870
      4  O          3.4470    1.2890    2.4760 O.2     1  UNL1       -0.3000
      5  C          6.7820    0.3230    1.9130 C.3     1  UNL1        0.0430
      6  C          7.3860   -0.0320    0.6170 C.2     1  UNL1       -0.0440
      7  C          7.8830    0.9460   -0.2530 C.2     1  UNL1        0.0080
      8  C          7.4700   -1.3540    0.2420 C.2     1  UNL1        0.0540
      9  C          8.4400    0.5530   -1.4560 C.2     1  UNL1        0.0510
     10  C          8.0350   -1.7460   -0.9750 C.2     1  UNL1        0.1660
     11  C          8.5230   -0.7840   -1.8320 C.2     1  UNL1        0.1650
     12  O          8.2320   -2.9750   -1.5670 O.2     1  UNL1       -0.4540
     13  O          9.0160   -1.4500   -2.9430 O.2     1  UNL1       -0.4540
     14  C          8.9330   -2.8460   -2.7770 C.3     1  UNL1        0.4680
@<TRIPOS>BOND
     1    13    14    1
     2    13    11    1
     3    14    12    1
     4    11     9    2
     5    11    10    1
     6    12    10    1
     7     9     7    1
     8    10     8    2
     9     7     6    2
    10     8     6    1
    11     6     5    1
    12     3     2    1
    13     2     1    1
    14     2     4    2
    15     5     1    1
