@<TRIPOS>MOLECULE
/home/cewinharhar/GITHUB/reincatalyze/data/processed/docking_pred/2023-May-30-2130_sub9_nm5_bs15_s42_ex16_mel10_mts10000_k50_ec05_g099_lra3e-4_lrc3e-3/e69dee760b6a4f483691253cffcee702e9155e2b_ligand_9.pdbqt
 14 15 0 0 0
SMALL
GASTEIGER

@<TRIPOS>ATOM
      1  C          6.3560    1.2730    0.8970 C.3     1  UNL1        0.0800
      2  C          5.6700    0.4210    1.9090 C.2     1  UNL1        0.1300
      3  C          6.3290   -0.7740    2.4990 C.3     1  UNL1        0.0870
      4  O          4.5390    0.6820    2.2840 O.2     1  UNL1       -0.3000
      5  C          5.8560    0.9750   -0.5030 C.3     1  UNL1        0.0430
      6  C          6.8100    0.1430   -1.2570 C.2     1  UNL1       -0.0440
      7  C          7.5250    0.6520   -2.3470 C.2     1  UNL1        0.0080
      8  C          7.0110   -1.1680   -0.8890 C.2     1  UNL1        0.0540
      9  C          8.4080   -0.1760   -3.0170 C.2     1  UNL1        0.0510
     10  C          7.9050   -2.0010   -1.5690 C.2     1  UNL1        0.1660
     11  C          8.6080   -1.5010   -2.6420 C.2     1  UNL1        0.1650
     12  O          8.2750   -3.3180   -1.4000 O.2     1  UNL1       -0.4540
     13  O          9.4050   -2.5320   -3.1140 O.2     1  UNL1       -0.4540
     14  C          9.2930   -3.6750   -2.3000 C.3     1  UNL1        0.4680
@<TRIPOS>BOND
     1    13    11    1
     2    13    14    1
     3     9    11    2
     4     9     7    1
     5    11    10    1
     6     7     6    2
     7    14    12    1
     8    10    12    1
     9    10     8    2
    10     6     8    1
    11     6     5    1
    12     5     1    1
    13     1     2    1
    14     2     4    2
    15     2     3    1
