@<TRIPOS>MOLECULE
/home/cewinharhar/GITHUB/reincatalyze/data/processed/docking_pred/2023-May-30-2130_sub9_nm5_bs15_s42_ex16_mel10_mts10000_k50_ec05_g099_lra3e-4_lrc3e-3/e72dfb9ce69b60d9dd63e32278a4acfac8a78322_ligand_9.pdbqt
 14 15 0 0 0
SMALL
GASTEIGER

@<TRIPOS>ATOM
      1  C          5.5410    1.9140    1.2680 C.3     1  UNL1        0.0800
      2  C          5.0860    0.7050    2.0100 C.2     1  UNL1        0.1300
      3  C          5.9630   -0.4840    2.1790 C.3     1  UNL1        0.0870
      4  O          3.9700    0.6550    2.5020 O.2     1  UNL1       -0.3000
      5  C          5.4090    1.7220   -0.2300 C.3     1  UNL1        0.0430
      6  C          6.5760    1.0230   -0.7970 C.2     1  UNL1       -0.0440
      7  C          7.8820    1.4710   -0.5660 C.2     1  UNL1        0.0080
      8  C          6.3900   -0.1000   -1.5700 C.2     1  UNL1        0.0540
      9  C          8.9390    0.7730   -1.1230 C.2     1  UNL1        0.0510
     10  C          7.4610   -0.8020   -2.1300 C.2     1  UNL1        0.1660
     11  C          8.7460   -0.3610   -1.9050 C.2     1  UNL1        0.1650
     12  O          7.5360   -1.9270   -2.9230 O.2     1  UNL1       -0.4540
     13  O          9.5920   -1.2350   -2.5700 O.2     1  UNL1       -0.4540
     14  C          8.8720   -2.2940   -3.1540 C.3     1  UNL1        0.4680
@<TRIPOS>BOND
     1    14    12    1
     2    14    13    1
     3    12    10    1
     4    13    11    1
     5    10    11    2
     6    10     8    1
     7    11     9    1
     8     8     6    2
     9     9     7    2
    10     6     7    1
    11     6     5    1
    12     5     1    1
    13     1     2    1
    14     2     3    1
    15     2     4    2
