MODEL 1
REMARK VINA RESULT:      -7.6      0.000      0.000
REMARK SMILES CC(=O)CCc1ccc2c(c1)OCO2
REMARK SMILES IDX 4 1 2 2 1 3 3 4 5 5 6 6 7 7 11 8 8 9 10 10 9 11 12 12 14 13
REMARK SMILES IDX 13 14
REMARK H PARENT
REMARK Flexibility Score: inf
ROOT
ATOM      1  C   UNL     1       5.541   1.914   1.268  1.00  0.00     0.080 C 
ENDROOT
BRANCH   1   2
ATOM      2  C   UNL     1       5.086   0.705   2.010  1.00  0.00     0.130 C 
ATOM      3  C   UNL     1       5.963  -0.484   2.179  1.00  0.00     0.087 C 
ATOM      4  O   UNL     1       3.970   0.655   2.502  1.00  0.00    -0.300 OA
ENDBRANCH   1   2
BRANCH   1   5
ATOM      5  C   UNL     1       5.409   1.722  -0.230  1.00  0.00     0.043 C 
BRANCH   5   6
ATOM      6  C   UNL     1       6.576   1.023  -0.797  1.00  0.00    -0.044 A 
ATOM      7  C   UNL     1       7.882   1.471  -0.566  1.00  0.00     0.008 A 
ATOM      8  C   UNL     1       6.390  -0.100  -1.570  1.00  0.00     0.054 A 
ATOM      9  C   UNL     1       8.939   0.773  -1.123  1.00  0.00     0.051 A 
ATOM     10  C   UNL     1       7.461  -0.802  -2.130  1.00  0.00     0.166 A 
ATOM     11  C   UNL     1       8.746  -0.361  -1.905  1.00  0.00     0.165 A 
ATOM     12  O   UNL     1       7.536  -1.927  -2.923  1.00  0.00    -0.454 OA
ATOM     13  O   UNL     1       9.592  -1.235  -2.570  1.00  0.00    -0.454 OA
ATOM     14  C   UNL     1       8.872  -2.294  -3.154  1.00  0.00     0.468 C 
ENDBRANCH   5   6
ENDBRANCH   1   5
TORSDOF 3
ENDMDL
MODEL 2
REMARK VINA RESULT:      -7.2      2.042      2.606
REMARK SMILES CC(=O)CCc1ccc2c(c1)OCO2
REMARK SMILES IDX 4 1 2 2 1 3 3 4 5 5 6 6 7 7 11 8 8 9 10 10 9 11 12 12 14 13
REMARK SMILES IDX 13 14
REMARK H PARENT
REMARK Flexibility Score: inf
ROOT
ATOM      1  C   UNL     1       5.446  -0.027   2.021  1.00  0.00     0.080 C 
ENDROOT
BRANCH   1   2
ATOM      2  C   UNL     1       4.573   1.153   1.766  1.00  0.00     0.130 C 
ATOM      3  C   UNL     1       4.888   2.142   0.701  1.00  0.00     0.087 C 
ATOM      4  O   UNL     1       3.566   1.342   2.430  1.00  0.00    -0.300 OA
ENDBRANCH   1   2
BRANCH   1   5
ATOM      5  C   UNL     1       6.871   0.237   1.574  1.00  0.00     0.043 C 
BRANCH   5   6
ATOM      6  C   UNL     1       7.294  -0.700   0.517  1.00  0.00    -0.044 A 
ATOM      7  C   UNL     1       7.171  -0.378  -0.839  1.00  0.00     0.008 A 
ATOM      8  C   UNL     1       7.826  -1.921   0.862  1.00  0.00     0.054 A 
ATOM      9  C   UNL     1       7.586  -1.296  -1.787  1.00  0.00     0.051 A 
ATOM     10  C   UNL     1       8.244  -2.846  -0.100  1.00  0.00     0.166 A 
ATOM     11  C   UNL     1       8.123  -2.531  -1.435  1.00  0.00     0.165 A 
ATOM     12  O   UNL     1       8.795  -4.107  -0.014  1.00  0.00    -0.454 OA
ATOM     13  O   UNL     1       8.608  -3.615  -2.149  1.00  0.00    -0.454 OA
ATOM     14  C   UNL     1       9.129  -4.599  -1.287  1.00  0.00     0.468 C 
ENDBRANCH   5   6
ENDBRANCH   1   5
TORSDOF 3
ENDMDL
MODEL 3
REMARK VINA RESULT:      -7.1      1.684      2.069
REMARK SMILES CC(=O)CCc1ccc2c(c1)OCO2
REMARK SMILES IDX 4 1 2 2 1 3 3 4 5 5 6 6 7 7 11 8 8 9 10 10 9 11 12 12 14 13
REMARK SMILES IDX 13 14
REMARK H PARENT
REMARK Flexibility Score: inf
ROOT
ATOM      1  C   UNL     1       5.689   1.593  -0.260  1.00  0.00     0.080 C 
ENDROOT
BRANCH   1   2
ATOM      2  C   UNL     1       5.088   1.385   1.087  1.00  0.00     0.130 C 
ATOM      3  C   UNL     1       5.490   0.246   1.955  1.00  0.00     0.087 C 
ATOM      4  O   UNL     1       4.241   2.150   1.520  1.00  0.00    -0.300 OA
ENDBRANCH   1   2
BRANCH   1   5
ATOM      5  C   UNL     1       7.194   1.414  -0.225  1.00  0.00     0.043 C 
BRANCH   5   6
ATOM      6  C   UNL     1       7.614   0.182  -0.917  1.00  0.00    -0.044 A 
ATOM      7  C   UNL     1       7.823   0.154  -2.301  1.00  0.00     0.008 A 
ATOM      8  C   UNL     1       7.811  -0.973  -0.195  1.00  0.00     0.054 A 
ATOM      9  C   UNL     1       8.217  -1.030  -2.896  1.00  0.00     0.051 A 
ATOM     10  C   UNL     1       8.210  -2.168  -0.802  1.00  0.00     0.166 A 
ATOM     11  C   UNL     1       8.415  -2.196  -2.163  1.00  0.00     0.165 A 
ATOM     12  O   UNL     1       8.468  -3.430  -0.311  1.00  0.00    -0.454 OA
ATOM     13  O   UNL     1       8.799  -3.489  -2.484  1.00  0.00    -0.454 OA
ATOM     14  C   UNL     1       8.933  -4.281  -1.328  1.00  0.00     0.468 C 
ENDBRANCH   5   6
ENDBRANCH   1   5
TORSDOF 3
ENDMDL
MODEL 4
REMARK VINA RESULT:      -7.0      1.245      1.442
REMARK SMILES CC(=O)CCc1ccc2c(c1)OCO2
REMARK SMILES IDX 4 1 2 2 1 3 3 4 5 5 6 6 7 7 11 8 8 9 10 10 9 11 12 12 14 13
REMARK SMILES IDX 13 14
REMARK H PARENT
REMARK Flexibility Score: inf
ROOT
ATOM      1  C   UNL     1       6.317   1.226   0.887  1.00  0.00     0.080 C 
ENDROOT
BRANCH   1   2
ATOM      2  C   UNL     1       5.640   0.384   1.912  1.00  0.00     0.130 C 
ATOM      3  C   UNL     1       6.281  -0.840   2.463  1.00  0.00     0.087 C 
ATOM      4  O   UNL     1       4.532   0.676   2.331  1.00  0.00    -0.300 OA
ENDBRANCH   1   2
BRANCH   1   5
ATOM      5  C   UNL     1       5.813   0.909  -0.507  1.00  0.00     0.043 C 
BRANCH   5   6
ATOM      6  C   UNL     1       6.779   0.093  -1.265  1.00  0.00    -0.044 A 
ATOM      7  C   UNL     1       7.477   0.614  -2.360  1.00  0.00     0.008 A 
ATOM      8  C   UNL     1       7.009  -1.212  -0.894  1.00  0.00     0.054 A 
ATOM      9  C   UNL     1       8.372  -0.198  -3.033  1.00  0.00     0.051 A 
ATOM     10  C   UNL     1       7.916  -2.028  -1.577  1.00  0.00     0.166 A 
ATOM     11  C   UNL     1       8.602  -1.517  -2.655  1.00  0.00     0.165 A 
ATOM     12  O   UNL     1       8.314  -3.337  -1.406  1.00  0.00    -0.454 OA
ATOM     13  O   UNL     1       9.417  -2.533  -3.130  1.00  0.00    -0.454 OA
ATOM     14  C   UNL     1       9.333  -3.676  -2.312  1.00  0.00     0.468 C 
ENDBRANCH   5   6
ENDBRANCH   1   5
TORSDOF 3
ENDMDL
MODEL 5
REMARK VINA RESULT:      -6.8      1.835      2.534
REMARK SMILES CC(=O)CCc1ccc2c(c1)OCO2
REMARK SMILES IDX 4 1 2 2 1 3 3 4 5 5 6 6 7 7 11 8 8 9 10 10 9 11 12 12 14 13
REMARK SMILES IDX 13 14
REMARK H PARENT
REMARK Flexibility Score: inf
ROOT
ATOM      1  C   UNL     1       6.787   1.257   1.122  1.00  0.00     0.080 C 
ENDROOT
BRANCH   1   2
ATOM      2  C   UNL     1       5.399   1.708   0.825  1.00  0.00     0.130 C 
ATOM      3  C   UNL     1       4.997   2.150  -0.537  1.00  0.00     0.087 C 
ATOM      4  O   UNL     1       4.547   1.729   1.697  1.00  0.00    -0.300 OA
ENDBRANCH   1   2
BRANCH   1   5
ATOM      5  C   UNL     1       7.672   1.353  -0.105  1.00  0.00     0.043 C 
BRANCH   5   6
ATOM      6  C   UNL     1       7.851   0.042  -0.754  1.00  0.00    -0.044 A 
ATOM      7  C   UNL     1       7.701  -0.118  -2.136  1.00  0.00     0.008 A 
ATOM      8  C   UNL     1       8.175  -1.058   0.008  1.00  0.00     0.054 A 
ATOM      9  C   UNL     1       7.881  -1.373  -2.690  1.00  0.00     0.051 A 
ATOM     10  C   UNL     1       8.357  -2.324  -0.557  1.00  0.00     0.166 A 
ATOM     11  C   UNL     1       8.209  -2.483  -1.917  1.00  0.00     0.165 A 
ATOM     12  O   UNL     1       8.677  -3.554  -0.023  1.00  0.00    -0.454 OA
ATOM     13  O   UNL     1       8.444  -3.820  -2.193  1.00  0.00    -0.454 OA
ATOM     14  C   UNL     1       8.833  -4.517  -1.033  1.00  0.00     0.468 C 
ENDBRANCH   5   6
ENDBRANCH   1   5
TORSDOF 3
ENDMDL
