@<TRIPOS>MOLECULE
/home/cewinharhar/GITHUB/reincatalyze/data/processed/docking_pred/2023-May-30-2130_sub9_nm5_bs15_s42_ex16_mel10_mts10000_k50_ec05_g099_lra3e-4_lrc3e-3/e72dfb9ce69b60d9dd63e32278a4acfac8a78322_ligand_9.pdbqt
 14 15 0 0 0
SMALL
GASTEIGER

@<TRIPOS>ATOM
      1  C          5.6890    1.5930   -0.2600 C.3     1  UNL1        0.0800
      2  C          5.0880    1.3850    1.0870 C.2     1  UNL1        0.1300
      3  C          5.4900    0.2460    1.9550 C.3     1  UNL1        0.0870
      4  O          4.2410    2.1500    1.5200 O.2     1  UNL1       -0.3000
      5  C          7.1940    1.4140   -0.2250 C.3     1  UNL1        0.0430
      6  C          7.6140    0.1820   -0.9170 C.2     1  UNL1       -0.0440
      7  C          7.8230    0.1540   -2.3010 C.2     1  UNL1        0.0080
      8  C          7.8110   -0.9730   -0.1950 C.2     1  UNL1        0.0540
      9  C          8.2170   -1.0300   -2.8960 C.2     1  UNL1        0.0510
     10  C          8.2100   -2.1680   -0.8020 C.2     1  UNL1        0.1660
     11  C          8.4150   -2.1960   -2.1630 C.2     1  UNL1        0.1650
     12  O          8.4680   -3.4300   -0.3110 O.2     1  UNL1       -0.4540
     13  O          8.7990   -3.4890   -2.4840 O.2     1  UNL1       -0.4540
     14  C          8.9330   -4.2810   -1.3280 C.3     1  UNL1        0.4680
@<TRIPOS>BOND
     1     9     7    1
     2     9    11    2
     3    13    11    1
     4    13    14    1
     5     7     6    2
     6    11    10    1
     7    14    12    1
     8     6     5    1
     9     6     8    1
    10    10    12    1
    11    10     8    2
    12     1     5    1
    13     1     2    1
    14     2     4    2
    15     2     3    1
