@<TRIPOS>MOLECULE
/home/cewinharhar/GITHUB/reincatalyze/data/processed/docking_pred/2023-May-30-2130_sub9_nm5_bs15_s42_ex16_mel10_mts10000_k50_ec05_g099_lra3e-4_lrc3e-3/e743b996860f571666c6245a074490b4455d41b0_ligand_9.pdbqt
 14 15 0 0 0
SMALL
GASTEIGER

@<TRIPOS>ATOM
      1  C          6.7700    0.8330    1.3310 C.3     1  UNL1        0.0800
      2  C          5.3240    1.1710    1.4590 C.2     1  UNL1        0.1300
      3  C          4.6680    2.1500    0.5520 C.3     1  UNL1        0.0870
      4  O          4.6330    0.6490    2.3180 O.2     1  UNL1       -0.3000
      5  C          7.2610    1.0420   -0.0880 C.3     1  UNL1        0.0430
      6  C          7.6080   -0.2340   -0.7390 C.2     1  UNL1       -0.0440
      7  C          7.6130   -0.3680   -2.1320 C.2     1  UNL1        0.0080
      8  C          7.9410   -1.3240    0.0320 C.2     1  UNL1        0.0540
      9  C          7.9490   -1.5900   -2.6870 C.2     1  UNL1        0.0510
     10  C          8.2800   -2.5570   -0.5340 C.2     1  UNL1        0.1660
     11  C          8.2840   -2.6910   -1.9050 C.2     1  UNL1        0.1650
     12  O          8.6420   -3.7720    0.0080 O.2     1  UNL1       -0.4540
     13  O          8.6520   -3.9990   -2.1790 O.2     1  UNL1       -0.4540
     14  C          8.9760   -4.6930   -0.9980 C.3     1  UNL1        0.4680
@<TRIPOS>BOND
     1     9     7    1
     2     9    11    2
     3    13    11    1
     4    13    14    1
     5     7     6    2
     6    11    10    1
     7    14    12    1
     8     6     5    1
     9     6     8    1
    10    10    12    1
    11    10     8    2
    12     5     1    1
    13     3     2    1
    14     1     2    1
    15     2     4    2
