@<TRIPOS>MOLECULE
/home/cewinharhar/GITHUB/reincatalyze/data/processed/docking_pred/2023-May-30-2130_sub9_nm5_bs15_s42_ex16_mel10_mts10000_k50_ec05_g099_lra3e-4_lrc3e-3/e743b996860f571666c6245a074490b4455d41b0_ligand_9.pdbqt
 14 15 0 0 0
SMALL
GASTEIGER

@<TRIPOS>ATOM
      1  C          5.6580    1.1810   -0.3610 C.3     1  UNL1        0.0800
      2  C          5.1480    1.2310    1.0370 C.2     1  UNL1        0.1300
      3  C          5.4850    0.1760    2.0300 C.3     1  UNL1        0.0870
      4  O          4.4330    2.1470    1.4110 O.2     1  UNL1       -0.3000
      5  C          7.1680    1.0470   -0.3910 C.3     1  UNL1        0.0430
      6  C          7.5910   -0.2390   -0.9730 C.2     1  UNL1       -0.0440
      7  C          7.7690   -0.3970   -2.3520 C.2     1  UNL1        0.0080
      8  C          7.8220   -1.3170   -0.1490 C.2     1  UNL1        0.0540
      9  C          8.1690   -1.6270   -2.8410 C.2     1  UNL1        0.0510
     10  C          8.2260   -2.5590   -0.6480 C.2     1  UNL1        0.1660
     11  C          8.4000   -2.7160   -2.0050 C.2     1  UNL1        0.1650
     12  O          8.5140   -3.7660   -0.0460 O.2     1  UNL1       -0.4540
     13  O          8.7970   -4.0280   -2.2100 O.2     1  UNL1       -0.4540
     14  C          8.9690   -4.7030   -0.9870 C.3     1  UNL1        0.4680
@<TRIPOS>BOND
     1     9     7    1
     2     9    11    2
     3     7     6    2
     4    13    11    1
     5    13    14    1
     6    11    10    1
     7    14    12    1
     8     6     5    1
     9     6     8    1
    10    10     8    2
    11    10    12    1
    12     5     1    1
    13     1     2    1
    14     2     4    2
    15     2     3    1
