MODEL 1
REMARK VINA RESULT:      -7.6      0.000      0.000
REMARK SMILES CC(=O)CCc1ccc2c(c1)OCO2
REMARK SMILES IDX 4 1 2 2 1 3 3 4 5 5 6 6 7 7 11 8 8 9 10 10 9 11 12 12 14 13
REMARK SMILES IDX 13 14
REMARK H PARENT
REMARK Flexibility Score: inf
ROOT
ATOM      1  C   UNL     1       5.508   1.934   1.259  1.00  0.00     0.080 C 
ENDROOT
BRANCH   1   2
ATOM      2  C   UNL     1       5.070   0.719   2.002  1.00  0.00     0.130 C 
ATOM      3  C   UNL     1       5.962  -0.460   2.167  1.00  0.00     0.087 C 
ATOM      4  O   UNL     1       3.957   0.656   2.499  1.00  0.00    -0.300 OA
ENDBRANCH   1   2
BRANCH   1   5
ATOM      5  C   UNL     1       5.384   1.737  -0.239  1.00  0.00     0.043 C 
BRANCH   5   6
ATOM      6  C   UNL     1       6.555   1.036  -0.797  1.00  0.00    -0.044 A 
ATOM      7  C   UNL     1       7.860   1.471  -0.540  1.00  0.00     0.008 A 
ATOM      8  C   UNL     1       6.371  -0.074  -1.588  1.00  0.00     0.054 A 
ATOM      9  C   UNL     1       8.920   0.773  -1.090  1.00  0.00     0.051 A 
ATOM     10  C   UNL     1       7.446  -0.777  -2.141  1.00  0.00     0.166 A 
ATOM     11  C   UNL     1       8.731  -0.349  -1.890  1.00  0.00     0.165 A 
ATOM     12  O   UNL     1       7.524  -1.892  -2.948  1.00  0.00    -0.454 OA
ATOM     13  O   UNL     1       9.580  -1.221  -2.555  1.00  0.00    -0.454 OA
ATOM     14  C   UNL     1       8.861  -2.266  -3.163  1.00  0.00     0.468 C 
ENDBRANCH   5   6
ENDBRANCH   1   5
TORSDOF 3
ENDMDL
MODEL 2
REMARK VINA RESULT:      -7.4      1.912      2.405
REMARK SMILES CC(=O)CCc1ccc2c(c1)OCO2
REMARK SMILES IDX 4 1 2 2 1 3 3 4 5 5 6 6 7 7 11 8 8 9 10 10 9 11 12 12 14 13
REMARK SMILES IDX 13 14
REMARK H PARENT
REMARK Flexibility Score: inf
ROOT
ATOM      1  C   UNL     1       5.658   1.181  -0.361  1.00  0.00     0.080 C 
ENDROOT
BRANCH   1   2
ATOM      2  C   UNL     1       5.148   1.231   1.037  1.00  0.00     0.130 C 
ATOM      3  C   UNL     1       5.485   0.176   2.030  1.00  0.00     0.087 C 
ATOM      4  O   UNL     1       4.433   2.147   1.411  1.00  0.00    -0.300 OA
ENDBRANCH   1   2
BRANCH   1   5
ATOM      5  C   UNL     1       7.168   1.047  -0.391  1.00  0.00     0.043 C 
BRANCH   5   6
ATOM      6  C   UNL     1       7.591  -0.239  -0.973  1.00  0.00    -0.044 A 
ATOM      7  C   UNL     1       7.769  -0.397  -2.352  1.00  0.00     0.008 A 
ATOM      8  C   UNL     1       7.822  -1.317  -0.149  1.00  0.00     0.054 A 
ATOM      9  C   UNL     1       8.169  -1.627  -2.841  1.00  0.00     0.051 A 
ATOM     10  C   UNL     1       8.226  -2.559  -0.648  1.00  0.00     0.166 A 
ATOM     11  C   UNL     1       8.400  -2.716  -2.005  1.00  0.00     0.165 A 
ATOM     12  O   UNL     1       8.514  -3.766  -0.046  1.00  0.00    -0.454 OA
ATOM     13  O   UNL     1       8.797  -4.028  -2.210  1.00  0.00    -0.454 OA
ATOM     14  C   UNL     1       8.969  -4.703  -0.987  1.00  0.00     0.468 C 
ENDBRANCH   5   6
ENDBRANCH   1   5
TORSDOF 3
ENDMDL
MODEL 3
REMARK VINA RESULT:      -7.2      2.052      2.622
REMARK SMILES CC(=O)CCc1ccc2c(c1)OCO2
REMARK SMILES IDX 4 1 2 2 1 3 3 4 5 5 6 6 7 7 11 8 8 9 10 10 9 11 12 12 14 13
REMARK SMILES IDX 13 14
REMARK H PARENT
REMARK Flexibility Score: inf
ROOT
ATOM      1  C   UNL     1       5.432  -0.044   2.003  1.00  0.00     0.080 C 
ENDROOT
BRANCH   1   2
ATOM      2  C   UNL     1       4.579   1.152   1.756  1.00  0.00     0.130 C 
ATOM      3  C   UNL     1       4.902   2.134   0.687  1.00  0.00     0.087 C 
ATOM      4  O   UNL     1       3.584   1.361   2.431  1.00  0.00    -0.300 OA
ENDBRANCH   1   2
BRANCH   1   5
ATOM      5  C   UNL     1       6.866   0.206   1.578  1.00  0.00     0.043 C 
BRANCH   5   6
ATOM      6  C   UNL     1       7.291  -0.722   0.515  1.00  0.00    -0.044 A 
ATOM      7  C   UNL     1       7.165  -0.391  -0.840  1.00  0.00     0.008 A 
ATOM      8  C   UNL     1       7.827  -1.944   0.849  1.00  0.00     0.054 A 
ATOM      9  C   UNL     1       7.581  -1.301  -1.794  1.00  0.00     0.051 A 
ATOM     10  C   UNL     1       8.247  -2.860  -0.120  1.00  0.00     0.166 A 
ATOM     11  C   UNL     1       8.122  -2.536  -1.452  1.00  0.00     0.165 A 
ATOM     12  O   UNL     1       8.803  -4.120  -0.044  1.00  0.00    -0.454 OA
ATOM     13  O   UNL     1       8.610  -3.614  -2.174  1.00  0.00    -0.454 OA
ATOM     14  C   UNL     1       9.135  -4.602  -1.320  1.00  0.00     0.468 C 
ENDBRANCH   5   6
ENDBRANCH   1   5
TORSDOF 3
ENDMDL
MODEL 4
REMARK VINA RESULT:      -7.1      1.960      2.512
REMARK SMILES CC(=O)CCc1ccc2c(c1)OCO2
REMARK SMILES IDX 4 1 2 2 1 3 3 4 5 5 6 6 7 7 11 8 8 9 10 10 9 11 12 12 14 13
REMARK SMILES IDX 13 14
REMARK H PARENT
REMARK Flexibility Score: inf
ROOT
ATOM      1  C   UNL     1       6.770   0.833   1.331  1.00  0.00     0.080 C 
ENDROOT
BRANCH   1   2
ATOM      2  C   UNL     1       5.324   1.171   1.459  1.00  0.00     0.130 C 
ATOM      3  C   UNL     1       4.668   2.150   0.552  1.00  0.00     0.087 C 
ATOM      4  O   UNL     1       4.633   0.649   2.318  1.00  0.00    -0.300 OA
ENDBRANCH   1   2
BRANCH   1   5
ATOM      5  C   UNL     1       7.261   1.042  -0.088  1.00  0.00     0.043 C 
BRANCH   5   6
ATOM      6  C   UNL     1       7.608  -0.234  -0.739  1.00  0.00    -0.044 A 
ATOM      7  C   UNL     1       7.613  -0.368  -2.132  1.00  0.00     0.008 A 
ATOM      8  C   UNL     1       7.941  -1.324   0.032  1.00  0.00     0.054 A 
ATOM      9  C   UNL     1       7.949  -1.590  -2.687  1.00  0.00     0.051 A 
ATOM     10  C   UNL     1       8.280  -2.557  -0.534  1.00  0.00     0.166 A 
ATOM     11  C   UNL     1       8.284  -2.691  -1.905  1.00  0.00     0.165 A 
ATOM     12  O   UNL     1       8.642  -3.772   0.008  1.00  0.00    -0.454 OA
ATOM     13  O   UNL     1       8.652  -3.999  -2.179  1.00  0.00    -0.454 OA
ATOM     14  C   UNL     1       8.976  -4.693  -0.998  1.00  0.00     0.468 C 
ENDBRANCH   5   6
ENDBRANCH   1   5
TORSDOF 3
ENDMDL
MODEL 5
REMARK VINA RESULT:      -7.1      1.251      1.460
REMARK SMILES CC(=O)CCc1ccc2c(c1)OCO2
REMARK SMILES IDX 4 1 2 2 1 3 3 4 5 5 6 6 7 7 11 8 8 9 10 10 9 11 12 12 14 13
REMARK SMILES IDX 13 14
REMARK H PARENT
REMARK Flexibility Score: inf
ROOT
ATOM      1  C   UNL     1       6.333   1.262   0.867  1.00  0.00     0.080 C 
ENDROOT
BRANCH   1   2
ATOM      2  C   UNL     1       5.662   0.451   1.920  1.00  0.00     0.130 C 
ATOM      3  C   UNL     1       6.298  -0.766   2.492  1.00  0.00     0.087 C 
ATOM      4  O   UNL     1       4.561   0.763   2.345  1.00  0.00    -0.300 OA
ENDBRANCH   1   2
BRANCH   1   5
ATOM      5  C   UNL     1       5.814   0.911  -0.514  1.00  0.00     0.043 C 
BRANCH   5   6
ATOM      6  C   UNL     1       6.783   0.098  -1.271  1.00  0.00    -0.044 A 
ATOM      7  C   UNL     1       7.489   0.624  -2.359  1.00  0.00     0.008 A 
ATOM      8  C   UNL     1       7.008  -1.210  -0.907  1.00  0.00     0.054 A 
ATOM      9  C   UNL     1       8.385  -0.186  -3.032  1.00  0.00     0.051 A 
ATOM     10  C   UNL     1       7.916  -2.024  -1.590  1.00  0.00     0.166 A 
ATOM     11  C   UNL     1       8.610  -1.508  -2.662  1.00  0.00     0.165 A 
ATOM     12  O   UNL     1       8.310  -3.335  -1.426  1.00  0.00    -0.454 OA
ATOM     13  O   UNL     1       9.425  -2.523  -3.138  1.00  0.00    -0.454 OA
ATOM     14  C   UNL     1       9.333  -3.671  -2.328  1.00  0.00     0.468 C 
ENDBRANCH   5   6
ENDBRANCH   1   5
TORSDOF 3
ENDMDL
