@<TRIPOS>MOLECULE
/home/cewinharhar/GITHUB/reincatalyze/data/processed/docking_pred/2023-May-30-2130_sub9_nm5_bs15_s42_ex16_mel10_mts10000_k50_ec05_g099_lra3e-4_lrc3e-3/e8fc6854485d68a8d0bf78bf523603f1a9cbeca9_ligand_9.pdbqt
 14 15 0 0 0
SMALL
GASTEIGER

@<TRIPOS>ATOM
      1  C          5.4480   -0.0420    1.9860 C.3     1  UNL1        0.0800
      2  C          4.5820    1.1440    1.7360 C.2     1  UNL1        0.1300
      3  C          4.8770    2.1100    0.6450 C.3     1  UNL1        0.0870
      4  O          3.5980    1.3580    2.4260 O.2     1  UNL1       -0.3000
      5  C          6.8740    0.2140    1.5410 C.3     1  UNL1        0.0430
      6  C          7.2950   -0.7270    0.4870 C.2     1  UNL1       -0.0440
      7  C          7.1620   -0.4140   -0.8700 C.2     1  UNL1        0.0080
      8  C          7.8350   -1.9440    0.8360 C.2     1  UNL1        0.0540
      9  C          7.5760   -1.3370   -1.8140 C.2     1  UNL1        0.0510
     10  C          8.2520   -2.8720   -0.1220 C.2     1  UNL1        0.1660
     11  C          8.1210   -2.5660   -1.4580 C.2     1  UNL1        0.1650
     12  O          8.8100   -4.1300   -0.0320 O.2     1  UNL1       -0.4540
     13  O          8.6070   -3.6530   -2.1680 O.2     1  UNL1       -0.4540
     14  C          9.1380   -4.6290   -1.3030 C.3     1  UNL1        0.4680
@<TRIPOS>BOND
     1    13    11    1
     2    13    14    1
     3     9    11    2
     4     9     7    1
     5    11    10    1
     6    14    12    1
     7     7     6    2
     8    10    12    1
     9    10     8    2
    10     6     8    1
    11     6     5    1
    12     3     2    1
    13     5     1    1
    14     2     1    1
    15     2     4    2
