@<TRIPOS>MOLECULE
/home/cewinharhar/GITHUB/reincatalyze/data/processed/docking_pred/2023-May-30-2130_sub9_nm5_bs15_s42_ex16_mel10_mts10000_k50_ec05_g099_lra3e-4_lrc3e-3/ea9f39b4277e7ba3f00603e8654b95ed05d2571c_ligand_9.pdbqt
 14 15 0 0 0
SMALL
GASTEIGER

@<TRIPOS>ATOM
      1  C          5.4950    1.8990    1.2630 C.3     1  UNL1        0.0800
      2  C          5.0090    0.6950    1.9940 C.2     1  UNL1        0.1300
      3  C          5.8250   -0.5450    2.0860 C.3     1  UNL1        0.0870
      4  O          3.9190    0.6930    2.5420 O.2     1  UNL1       -0.3000
      5  C          5.3770    1.7160   -0.2370 C.3     1  UNL1        0.0430
      6  C          6.5510    1.0230   -0.7970 C.2     1  UNL1       -0.0440
      7  C          7.8550    1.4610   -0.5380 C.2     1  UNL1        0.0080
      8  C          6.3720   -0.0850   -1.5940 C.2     1  UNL1        0.0540
      9  C          8.9170    0.7700   -1.0900 C.2     1  UNL1        0.0510
     10  C          7.4500   -0.7810   -2.1490 C.2     1  UNL1        0.1660
     11  C          8.7330   -0.3500   -1.8950 C.2     1  UNL1        0.1650
     12  O          7.5330   -1.8920   -2.9620 O.2     1  UNL1       -0.4540
     13  O          9.5860   -1.2150   -2.5630 O.2     1  UNL1       -0.4540
     14  C          8.8710   -2.2610   -3.1770 C.3     1  UNL1        0.4680
@<TRIPOS>BOND
     1    14    12    1
     2    14    13    1
     3    12    10    1
     4    13    11    1
     5    10    11    2
     6    10     8    1
     7    11     9    1
     8     8     6    2
     9     9     7    2
    10     6     7    1
    11     6     5    1
    12     5     1    1
    13     1     2    1
    14     2     3    1
    15     2     4    2
