@<TRIPOS>MOLECULE
/home/cewinharhar/GITHUB/reincatalyze/data/processed/docking_pred/2023-May-30-2130_sub9_nm5_bs15_s42_ex16_mel10_mts10000_k50_ec05_g099_lra3e-4_lrc3e-3/ea9f39b4277e7ba3f00603e8654b95ed05d2571c_ligand_9.pdbqt
 14 15 0 0 0
SMALL
GASTEIGER

@<TRIPOS>ATOM
      1  C          6.8050    0.8070    1.3950 C.3     1  UNL1        0.0800
      2  C          5.3570    1.1510    1.4490 C.2     1  UNL1        0.1300
      3  C          4.7510    2.1300    0.5060 C.3     1  UNL1        0.0870
      4  O          4.6210    0.6370    2.2750 O.2     1  UNL1       -0.3000
      5  C          7.3750    1.0390    0.0090 C.3     1  UNL1        0.0430
      6  C          7.6650   -0.2300   -0.6820 C.2     1  UNL1       -0.0440
      7  C          7.6070   -0.3360   -2.0760 C.2     1  UNL1        0.0080
      8  C          8.0040   -1.3440    0.0520 C.2     1  UNL1        0.0540
      9  C          7.8900   -1.5520   -2.6690 C.2     1  UNL1        0.0510
     10  C          8.2900   -2.5720   -0.5530 C.2     1  UNL1        0.1660
     11  C          8.2320   -2.6770   -1.9250 C.2     1  UNL1        0.1650
     12  O          8.6450   -3.8060   -0.0510 O.2     1  UNL1       -0.4540
     13  O          8.5570   -3.9870   -2.2400 O.2     1  UNL1       -0.4540
     14  C          8.9150   -4.7130   -1.0890 C.3     1  UNL1        0.4680
@<TRIPOS>BOND
     1     9     7    1
     2     9    11    2
     3    13    11    1
     4    13    14    1
     5     7     6    2
     6    11    10    1
     7    14    12    1
     8     6     5    1
     9     6     8    1
    10    10    12    1
    11    10     8    2
    12     5     1    1
    13     3     2    1
    14     1     2    1
    15     2     4    2
