@<TRIPOS>MOLECULE
/home/cewinharhar/GITHUB/reincatalyze/data/processed/docking_pred/2023-May-30-2130_sub9_nm5_bs15_s42_ex16_mel10_mts10000_k50_ec05_g099_lra3e-4_lrc3e-3/ea9f39b4277e7ba3f00603e8654b95ed05d2571c_ligand_9.pdbqt
 14 15 0 0 0
SMALL
GASTEIGER

@<TRIPOS>ATOM
      1  C          6.3580    1.2510    0.9060 C.3     1  UNL1        0.0800
      2  C          5.6550    0.4150    1.9190 C.2     1  UNL1        0.1300
      3  C          6.2810   -0.8070    2.4930 C.3     1  UNL1        0.0870
      4  O          4.5370    0.7100    2.3080 O.2     1  UNL1       -0.3000
      5  C          5.8560    0.9580   -0.4940 C.3     1  UNL1        0.0430
      6  C          6.8080    0.1290   -1.2540 C.2     1  UNL1       -0.0440
      7  C          7.5090    0.6380   -2.3540 C.2     1  UNL1        0.0080
      8  C          7.0230   -1.1780   -0.8810 C.2     1  UNL1        0.0540
      9  C          8.3900   -0.1870   -3.0280 C.2     1  UNL1        0.0510
     10  C          7.9160   -2.0080   -1.5660 C.2     1  UNL1        0.1660
     11  C          8.6050   -1.5080   -2.6480 C.2     1  UNL1        0.1650
     12  O          8.2990   -3.3220   -1.3940 O.2     1  UNL1       -0.4540
     13  O          9.4050   -2.5360   -3.1240 O.2     1  UNL1       -0.4540
     14  C          9.3100   -3.6750   -2.3030 C.3     1  UNL1        0.4680
@<TRIPOS>BOND
     1    13    11    1
     2    13    14    1
     3     9    11    2
     4     9     7    1
     5    11    10    1
     6     7     6    2
     7    14    12    1
     8    10    12    1
     9    10     8    2
    10     6     8    1
    11     6     5    1
    12     5     1    1
    13     1     2    1
    14     2     4    2
    15     2     3    1
