MODEL 1
REMARK VINA RESULT:      -7.7      0.000      0.000
REMARK SMILES CC(=O)CCc1ccc2c(c1)OCO2
REMARK SMILES IDX 4 1 2 2 1 3 3 4 5 5 6 6 7 7 11 8 8 9 10 10 9 11 12 12 14 13
REMARK SMILES IDX 13 14
REMARK H PARENT
REMARK Flexibility Score: inf
ROOT
ATOM      1  C   UNL     1       5.495   1.899   1.263  1.00  0.00     0.080 C 
ENDROOT
BRANCH   1   2
ATOM      2  C   UNL     1       5.009   0.695   1.994  1.00  0.00     0.130 C 
ATOM      3  C   UNL     1       5.825  -0.545   2.086  1.00  0.00     0.087 C 
ATOM      4  O   UNL     1       3.919   0.693   2.542  1.00  0.00    -0.300 OA
ENDBRANCH   1   2
BRANCH   1   5
ATOM      5  C   UNL     1       5.377   1.716  -0.237  1.00  0.00     0.043 C 
BRANCH   5   6
ATOM      6  C   UNL     1       6.551   1.023  -0.797  1.00  0.00    -0.044 A 
ATOM      7  C   UNL     1       7.855   1.461  -0.538  1.00  0.00     0.008 A 
ATOM      8  C   UNL     1       6.372  -0.085  -1.594  1.00  0.00     0.054 A 
ATOM      9  C   UNL     1       8.917   0.770  -1.090  1.00  0.00     0.051 A 
ATOM     10  C   UNL     1       7.450  -0.781  -2.149  1.00  0.00     0.166 A 
ATOM     11  C   UNL     1       8.733  -0.350  -1.895  1.00  0.00     0.165 A 
ATOM     12  O   UNL     1       7.533  -1.892  -2.962  1.00  0.00    -0.454 OA
ATOM     13  O   UNL     1       9.586  -1.215  -2.563  1.00  0.00    -0.454 OA
ATOM     14  C   UNL     1       8.871  -2.261  -3.177  1.00  0.00     0.468 C 
ENDBRANCH   5   6
ENDBRANCH   1   5
TORSDOF 3
ENDMDL
MODEL 2
REMARK VINA RESULT:      -7.4      1.926      2.413
REMARK SMILES CC(=O)CCc1ccc2c(c1)OCO2
REMARK SMILES IDX 4 1 2 2 1 3 3 4 5 5 6 6 7 7 11 8 8 9 10 10 9 11 12 12 14 13
REMARK SMILES IDX 13 14
REMARK H PARENT
REMARK Flexibility Score: inf
ROOT
ATOM      1  C   UNL     1       5.804   1.323  -0.286  1.00  0.00     0.080 C 
ENDROOT
BRANCH   1   2
ATOM      2  C   UNL     1       5.258   1.249   1.098  1.00  0.00     0.130 C 
ATOM      3  C   UNL     1       5.527   0.084   1.982  1.00  0.00     0.087 C 
ATOM      4  O   UNL     1       4.569   2.150   1.548  1.00  0.00    -0.300 OA
ENDBRANCH   1   2
BRANCH   1   5
ATOM      5  C   UNL     1       7.303   1.093  -0.299  1.00  0.00     0.043 C 
BRANCH   5   6
ATOM      6  C   UNL     1       7.651  -0.206  -0.902  1.00  0.00    -0.044 A 
ATOM      7  C   UNL     1       7.692  -0.382  -2.290  1.00  0.00     0.008 A 
ATOM      8  C   UNL     1       7.947  -1.277  -0.091  1.00  0.00     0.054 A 
ATOM      9  C   UNL     1       8.027  -1.624  -2.799  1.00  0.00     0.051 A 
ATOM     10  C   UNL     1       8.285  -2.530  -0.610  1.00  0.00     0.166 A 
ATOM     11  C   UNL     1       8.325  -2.705  -1.976  1.00  0.00     0.165 A 
ATOM     12  O   UNL     1       8.615  -3.733  -0.023  1.00  0.00    -0.454 OA
ATOM     13  O   UNL     1       8.683  -4.025  -2.201  1.00  0.00    -0.454 OA
ATOM     14  C   UNL     1       8.965  -4.688  -0.991  1.00  0.00     0.468 C 
ENDBRANCH   5   6
ENDBRANCH   1   5
TORSDOF 3
ENDMDL
MODEL 3
REMARK VINA RESULT:      -7.2      2.066      2.622
REMARK SMILES CC(=O)CCc1ccc2c(c1)OCO2
REMARK SMILES IDX 4 1 2 2 1 3 3 4 5 5 6 6 7 7 11 8 8 9 10 10 9 11 12 12 14 13
REMARK SMILES IDX 13 14
REMARK H PARENT
REMARK Flexibility Score: inf
ROOT
ATOM      1  C   UNL     1       5.429  -0.046   1.997  1.00  0.00     0.080 C 
ENDROOT
BRANCH   1   2
ATOM      2  C   UNL     1       4.581   1.154   1.754  1.00  0.00     0.130 C 
ATOM      3  C   UNL     1       4.909   2.139   0.688  1.00  0.00     0.087 C 
ATOM      4  O   UNL     1       3.586   1.365   2.428  1.00  0.00    -0.300 OA
ENDBRANCH   1   2
BRANCH   1   5
ATOM      5  C   UNL     1       6.866   0.201   1.580  1.00  0.00     0.043 C 
BRANCH   5   6
ATOM      6  C   UNL     1       7.293  -0.727   0.518  1.00  0.00    -0.044 A 
ATOM      7  C   UNL     1       7.175  -0.395  -0.836  1.00  0.00     0.008 A 
ATOM      8  C   UNL     1       7.826  -1.950   0.855  1.00  0.00     0.054 A 
ATOM      9  C   UNL     1       7.594  -1.305  -1.789  1.00  0.00     0.051 A 
ATOM     10  C   UNL     1       8.249  -2.867  -0.113  1.00  0.00     0.166 A 
ATOM     11  C   UNL     1       8.131  -2.542  -1.446  1.00  0.00     0.165 A 
ATOM     12  O   UNL     1       8.801  -4.128  -0.034  1.00  0.00    -0.454 OA
ATOM     13  O   UNL     1       8.621  -3.620  -2.166  1.00  0.00    -0.454 OA
ATOM     14  C   UNL     1       9.139  -4.610  -1.310  1.00  0.00     0.468 C 
ENDBRANCH   5   6
ENDBRANCH   1   5
TORSDOF 3
ENDMDL
MODEL 4
REMARK VINA RESULT:      -7.1      1.258      1.462
REMARK SMILES CC(=O)CCc1ccc2c(c1)OCO2
REMARK SMILES IDX 4 1 2 2 1 3 3 4 5 5 6 6 7 7 11 8 8 9 10 10 9 11 12 12 14 13
REMARK SMILES IDX 13 14
REMARK H PARENT
REMARK Flexibility Score: inf
ROOT
ATOM      1  C   UNL     1       6.358   1.251   0.906  1.00  0.00     0.080 C 
ENDROOT
BRANCH   1   2
ATOM      2  C   UNL     1       5.655   0.415   1.919  1.00  0.00     0.130 C 
ATOM      3  C   UNL     1       6.281  -0.807   2.493  1.00  0.00     0.087 C 
ATOM      4  O   UNL     1       4.537   0.710   2.308  1.00  0.00    -0.300 OA
ENDBRANCH   1   2
BRANCH   1   5
ATOM      5  C   UNL     1       5.856   0.958  -0.494  1.00  0.00     0.043 C 
BRANCH   5   6
ATOM      6  C   UNL     1       6.808   0.129  -1.254  1.00  0.00    -0.044 A 
ATOM      7  C   UNL     1       7.509   0.638  -2.354  1.00  0.00     0.008 A 
ATOM      8  C   UNL     1       7.023  -1.178  -0.881  1.00  0.00     0.054 A 
ATOM      9  C   UNL     1       8.390  -0.187  -3.028  1.00  0.00     0.051 A 
ATOM     10  C   UNL     1       7.916  -2.008  -1.566  1.00  0.00     0.166 A 
ATOM     11  C   UNL     1       8.605  -1.508  -2.648  1.00  0.00     0.165 A 
ATOM     12  O   UNL     1       8.299  -3.322  -1.394  1.00  0.00    -0.454 OA
ATOM     13  O   UNL     1       9.405  -2.536  -3.124  1.00  0.00    -0.454 OA
ATOM     14  C   UNL     1       9.310  -3.675  -2.303  1.00  0.00     0.468 C 
ENDBRANCH   5   6
ENDBRANCH   1   5
TORSDOF 3
ENDMDL
MODEL 5
REMARK VINA RESULT:      -7.1      1.952      2.515
REMARK SMILES CC(=O)CCc1ccc2c(c1)OCO2
REMARK SMILES IDX 4 1 2 2 1 3 3 4 5 5 6 6 7 7 11 8 8 9 10 10 9 11 12 12 14 13
REMARK SMILES IDX 13 14
REMARK H PARENT
REMARK Flexibility Score: inf
ROOT
ATOM      1  C   UNL     1       6.805   0.807   1.395  1.00  0.00     0.080 C 
ENDROOT
BRANCH   1   2
ATOM      2  C   UNL     1       5.357   1.151   1.449  1.00  0.00     0.130 C 
ATOM      3  C   UNL     1       4.751   2.130   0.506  1.00  0.00     0.087 C 
ATOM      4  O   UNL     1       4.621   0.637   2.275  1.00  0.00    -0.300 OA
ENDBRANCH   1   2
BRANCH   1   5
ATOM      5  C   UNL     1       7.375   1.039   0.009  1.00  0.00     0.043 C 
BRANCH   5   6
ATOM      6  C   UNL     1       7.665  -0.230  -0.682  1.00  0.00    -0.044 A 
ATOM      7  C   UNL     1       7.607  -0.336  -2.076  1.00  0.00     0.008 A 
ATOM      8  C   UNL     1       8.004  -1.344   0.052  1.00  0.00     0.054 A 
ATOM      9  C   UNL     1       7.890  -1.552  -2.669  1.00  0.00     0.051 A 
ATOM     10  C   UNL     1       8.290  -2.572  -0.553  1.00  0.00     0.166 A 
ATOM     11  C   UNL     1       8.232  -2.677  -1.925  1.00  0.00     0.165 A 
ATOM     12  O   UNL     1       8.645  -3.806  -0.051  1.00  0.00    -0.454 OA
ATOM     13  O   UNL     1       8.557  -3.987  -2.240  1.00  0.00    -0.454 OA
ATOM     14  C   UNL     1       8.915  -4.713  -1.089  1.00  0.00     0.468 C 
ENDBRANCH   5   6
ENDBRANCH   1   5
TORSDOF 3
ENDMDL
