@<TRIPOS>MOLECULE
/home/cewinharhar/GITHUB/reincatalyze/data/processed/docking_pred/2023-May-30-2130_sub9_nm5_bs15_s42_ex16_mel10_mts10000_k50_ec05_g099_lra3e-4_lrc3e-3/ea9f39b4277e7ba3f00603e8654b95ed05d2571c_ligand_9.pdbqt
 14 15 0 0 0
SMALL
GASTEIGER

@<TRIPOS>ATOM
      1  C          5.8040    1.3230   -0.2860 C.3     1  UNL1        0.0800
      2  C          5.2580    1.2490    1.0980 C.2     1  UNL1        0.1300
      3  C          5.5270    0.0840    1.9820 C.3     1  UNL1        0.0870
      4  O          4.5690    2.1500    1.5480 O.2     1  UNL1       -0.3000
      5  C          7.3030    1.0930   -0.2990 C.3     1  UNL1        0.0430
      6  C          7.6510   -0.2060   -0.9020 C.2     1  UNL1       -0.0440
      7  C          7.6920   -0.3820   -2.2900 C.2     1  UNL1        0.0080
      8  C          7.9470   -1.2770   -0.0910 C.2     1  UNL1        0.0540
      9  C          8.0270   -1.6240   -2.7990 C.2     1  UNL1        0.0510
     10  C          8.2850   -2.5300   -0.6100 C.2     1  UNL1        0.1660
     11  C          8.3250   -2.7050   -1.9760 C.2     1  UNL1        0.1650
     12  O          8.6150   -3.7330   -0.0230 O.2     1  UNL1       -0.4540
     13  O          8.6830   -4.0250   -2.2010 O.2     1  UNL1       -0.4540
     14  C          8.9650   -4.6880   -0.9910 C.3     1  UNL1        0.4680
@<TRIPOS>BOND
     1     9     7    1
     2     9    11    2
     3     7     6    2
     4    13    11    1
     5    13    14    1
     6    11    10    1
     7    14    12    1
     8     6     5    1
     9     6     8    1
    10    10     8    2
    11    10    12    1
    12     5     1    1
    13     1     2    1
    14     2     4    2
    15     2     3    1
