@<TRIPOS>MOLECULE
/home/cewinharhar/GITHUB/reincatalyze/data/processed/docking_pred/2023-May-30-2130_sub9_nm5_bs15_s42_ex16_mel10_mts10000_k50_ec05_g099_lra3e-4_lrc3e-3/eb53456adf8787420c4e8f25112cf644d6bf88f9_ligand_9.pdbqt
 14 15 0 0 0
SMALL
GASTEIGER

@<TRIPOS>ATOM
      1  C          8.3490    0.2090   -2.6270 C.3     1  UNL1        0.0800
      2  C          8.0390   -1.2440   -2.7340 C.2     1  UNL1        0.1300
      3  C          9.0950   -2.2470   -3.0360 C.3     1  UNL1        0.0870
      4  O          6.9010   -1.6560   -2.5770 O.2     1  UNL1       -0.3000
      5  C          8.8630    0.5620   -1.2460 C.3     1  UNL1        0.0430
      6  C          7.8130    0.4260   -0.2200 C.2     1  UNL1       -0.0440
      7  C          7.8990   -0.5350    0.7940 C.2     1  UNL1        0.0080
      8  C          6.7190    1.2600   -0.2500 C.2     1  UNL1        0.0540
      9  C          6.8840   -0.6160    1.7290 C.2     1  UNL1        0.0510
     10  C          5.6950    1.1750    0.6990 C.2     1  UNL1        0.1660
     11  C          5.7780    0.2290    1.6960 C.2     1  UNL1        0.1650
     12  O          4.5230    1.8770    0.8820 O.2     1  UNL1       -0.4540
     13  O          4.6440    0.3720    2.4800 O.2     1  UNL1       -0.4540
     14  C          3.8660    1.4640    2.0530 C.3     1  UNL1        0.4680
@<TRIPOS>BOND
     1     3     2    1
     2     2     1    1
     3     2     4    2
     4     1     5    1
     5     5     6    1
     6     8     6    2
     7     8    10    1
     8     6     7    1
     9    10    12    1
    10    10    11    2
    11     7     9    2
    12    12    14    1
    13    11     9    1
    14    11    13    1
    15    14    13    1
