@<TRIPOS>MOLECULE
/home/cewinharhar/GITHUB/reincatalyze/data/processed/docking_pred/2023-May-30-2130_sub9_nm5_bs15_s42_ex16_mel10_mts10000_k50_ec05_g099_lra3e-4_lrc3e-3/eb9358f7bad4db9539b7d0967c6d7dee777b6146_ligand_9.pdbqt
 14 15 0 0 0
SMALL
GASTEIGER

@<TRIPOS>ATOM
      1  C          5.3300   -0.0810    1.9460 C.3     1  UNL1        0.0800
      2  C          4.4520    1.1100    1.7770 C.2     1  UNL1        0.1300
      3  C          4.7340    2.1500    0.7520 C.3     1  UNL1        0.0870
      4  O          3.4680    1.2680    2.4820 O.2     1  UNL1       -0.3000
      5  C          6.7950    0.3030    1.8880 C.3     1  UNL1        0.0430
      6  C          7.4040   -0.0590    0.5960 C.2     1  UNL1       -0.0440
      7  C          7.9120    0.9140   -0.2730 C.2     1  UNL1        0.0080
      8  C          7.4840   -1.3820    0.2250 C.2     1  UNL1        0.0540
      9  C          8.4730    0.5160   -1.4730 C.2     1  UNL1        0.0510
     10  C          8.0530   -1.7800   -0.9890 C.2     1  UNL1        0.1660
     11  C          8.5510   -0.8230   -1.8450 C.2     1  UNL1        0.1650
     12  O          8.2460   -3.0120   -1.5770 O.2     1  UNL1       -0.4540
     13  O          9.0460   -1.4940   -2.9520 O.2     1  UNL1       -0.4540
     14  C          8.9550   -2.8890   -2.7830 C.3     1  UNL1        0.4680
@<TRIPOS>BOND
     1    13    14    1
     2    13    11    1
     3    14    12    1
     4    11     9    2
     5    11    10    1
     6    12    10    1
     7     9     7    1
     8    10     8    2
     9     7     6    2
    10     8     6    1
    11     6     5    1
    12     3     2    1
    13     2     1    1
    14     2     4    2
    15     5     1    1
