MODEL 1
REMARK VINA RESULT:      -7.6      0.000      0.000
REMARK SMILES CC(=O)CCc1ccc2c(c1)OCO2
REMARK SMILES IDX 4 1 2 2 1 3 3 4 5 5 6 6 7 7 11 8 8 9 10 10 9 11 12 12 14 13
REMARK SMILES IDX 13 14
REMARK H PARENT
REMARK Flexibility Score: inf
ROOT
ATOM      1  C   UNL     1       5.533   1.926   1.256  1.00  0.00     0.080 C 
ENDROOT
BRANCH   1   2
ATOM      2  C   UNL     1       5.106   0.711   2.005  1.00  0.00     0.130 C 
ATOM      3  C   UNL     1       6.012  -0.456   2.181  1.00  0.00     0.087 C 
ATOM      4  O   UNL     1       3.993   0.637   2.498  1.00  0.00    -0.300 OA
ENDBRANCH   1   2
BRANCH   1   5
ATOM      5  C   UNL     1       5.397   1.726  -0.240  1.00  0.00     0.043 C 
BRANCH   5   6
ATOM      6  C   UNL     1       6.565   1.028  -0.807  1.00  0.00    -0.044 A 
ATOM      7  C   UNL     1       7.871   1.467  -0.561  1.00  0.00     0.008 A 
ATOM      8  C   UNL     1       6.379  -0.084  -1.595  1.00  0.00     0.054 A 
ATOM      9  C   UNL     1       8.929   0.771  -1.118  1.00  0.00     0.051 A 
ATOM     10  C   UNL     1       7.451  -0.785  -2.156  1.00  0.00     0.166 A 
ATOM     11  C   UNL     1       8.737  -0.353  -1.916  1.00  0.00     0.165 A 
ATOM     12  O   UNL     1       7.526  -1.900  -2.962  1.00  0.00    -0.454 OA
ATOM     13  O   UNL     1       9.583  -1.223  -2.586  1.00  0.00    -0.454 OA
ATOM     14  C   UNL     1       8.862  -2.271  -3.187  1.00  0.00     0.468 C 
ENDBRANCH   5   6
ENDBRANCH   1   5
TORSDOF 3
ENDMDL
MODEL 2
REMARK VINA RESULT:      -7.4      1.945      2.431
REMARK SMILES CC(=O)CCc1ccc2c(c1)OCO2
REMARK SMILES IDX 4 1 2 2 1 3 3 4 5 5 6 6 7 7 11 8 8 9 10 10 9 11 12 12 14 13
REMARK SMILES IDX 13 14
REMARK H PARENT
REMARK Flexibility Score: inf
ROOT
ATOM      1  C   UNL     1       5.752   1.162  -0.327  1.00  0.00     0.080 C 
ENDROOT
BRANCH   1   2
ATOM      2  C   UNL     1       5.282   1.158   1.087  1.00  0.00     0.130 C 
ATOM      3  C   UNL     1       5.416  -0.045   1.951  1.00  0.00     0.087 C 
ATOM      4  O   UNL     1       4.768   2.149   1.579  1.00  0.00    -0.300 OA
ENDBRANCH   1   2
BRANCH   1   5
ATOM      5  C   UNL     1       7.261   1.039  -0.405  1.00  0.00     0.043 C 
BRANCH   5   6
ATOM      6  C   UNL     1       7.675  -0.254  -0.977  1.00  0.00    -0.044 A 
ATOM      7  C   UNL     1       7.828  -0.430  -2.357  1.00  0.00     0.008 A 
ATOM      8  C   UNL     1       7.921  -1.321  -0.143  1.00  0.00     0.054 A 
ATOM      9  C   UNL     1       8.220  -1.667  -2.836  1.00  0.00     0.051 A 
ATOM     10  C   UNL     1       8.318  -2.569  -0.633  1.00  0.00     0.166 A 
ATOM     11  C   UNL     1       8.468  -2.744  -1.990  1.00  0.00     0.165 A 
ATOM     12  O   UNL     1       8.618  -3.767  -0.019  1.00  0.00    -0.454 OA
ATOM     13  O   UNL     1       8.862  -4.058  -2.184  1.00  0.00    -0.454 OA
ATOM     14  C   UNL     1       9.057  -4.717  -0.956  1.00  0.00     0.468 C 
ENDBRANCH   5   6
ENDBRANCH   1   5
TORSDOF 3
ENDMDL
MODEL 3
REMARK VINA RESULT:      -7.2      2.089      2.626
REMARK SMILES CC(=O)CCc1ccc2c(c1)OCO2
REMARK SMILES IDX 4 1 2 2 1 3 3 4 5 5 6 6 7 7 11 8 8 9 10 10 9 11 12 12 14 13
REMARK SMILES IDX 13 14
REMARK H PARENT
REMARK Flexibility Score: inf
ROOT
ATOM      1  C   UNL     1       5.538   0.023   1.961  1.00  0.00     0.080 C 
ENDROOT
BRANCH   1   2
ATOM      2  C   UNL     1       4.652   1.179   1.648  1.00  0.00     0.130 C 
ATOM      3  C   UNL     1       4.958   2.118   0.536  1.00  0.00     0.087 C 
ATOM      4  O   UNL     1       3.643   1.390   2.301  1.00  0.00    -0.300 OA
ENDBRANCH   1   2
BRANCH   1   5
ATOM      5  C   UNL     1       6.958   0.275   1.495  1.00  0.00     0.043 C 
BRANCH   5   6
ATOM      6  C   UNL     1       7.371  -0.685   0.456  1.00  0.00    -0.044 A 
ATOM      7  C   UNL     1       7.287  -0.373  -0.905  1.00  0.00     0.008 A 
ATOM      8  C   UNL     1       7.855  -1.920   0.823  1.00  0.00     0.054 A 
ATOM      9  C   UNL     1       7.690  -1.314  -1.836  1.00  0.00     0.051 A 
ATOM     10  C   UNL     1       8.261  -2.868  -0.121  1.00  0.00     0.166 A 
ATOM     11  C   UNL     1       8.178  -2.562  -1.461  1.00  0.00     0.165 A 
ATOM     12  O   UNL     1       8.769  -4.145  -0.012  1.00  0.00    -0.454 OA
ATOM     13  O   UNL     1       8.641  -3.669  -2.155  1.00  0.00    -0.454 OA
ATOM     14  C   UNL     1       9.111  -4.661  -1.273  1.00  0.00     0.468 C 
ENDBRANCH   5   6
ENDBRANCH   1   5
TORSDOF 3
ENDMDL
MODEL 4
REMARK VINA RESULT:      -7.1      1.269      1.482
REMARK SMILES CC(=O)CCc1ccc2c(c1)OCO2
REMARK SMILES IDX 4 1 2 2 1 3 3 4 5 5 6 6 7 7 11 8 8 9 10 10 9 11 12 12 14 13
REMARK SMILES IDX 13 14
REMARK H PARENT
REMARK Flexibility Score: inf
ROOT
ATOM      1  C   UNL     1       6.392   1.169   0.963  1.00  0.00     0.080 C 
ENDROOT
BRANCH   1   2
ATOM      2  C   UNL     1       5.645   0.343   1.952  1.00  0.00     0.130 C 
ATOM      3  C   UNL     1       6.234  -0.886   2.547  1.00  0.00     0.087 C 
ATOM      4  O   UNL     1       4.518   0.654   2.304  1.00  0.00    -0.300 OA
ENDBRANCH   1   2
BRANCH   1   5
ATOM      5  C   UNL     1       5.893   0.926  -0.447  1.00  0.00     0.043 C 
BRANCH   5   6
ATOM      6  C   UNL     1       6.830   0.093  -1.223  1.00  0.00    -0.044 A 
ATOM      7  C   UNL     1       7.494   0.592  -2.349  1.00  0.00     0.008 A 
ATOM      8  C   UNL     1       7.066  -1.207  -0.838  1.00  0.00     0.054 A 
ATOM      9  C   UNL     1       8.363  -0.235  -3.037  1.00  0.00     0.051 A 
ATOM     10  C   UNL     1       7.946  -2.039  -1.536  1.00  0.00     0.166 A 
ATOM     11  C   UNL     1       8.599  -1.549  -2.645  1.00  0.00     0.165 A 
ATOM     12  O   UNL     1       8.344  -3.347  -1.358  1.00  0.00    -0.454 OA
ATOM     13  O   UNL     1       9.394  -2.577  -3.129  1.00  0.00    -0.454 OA
ATOM     14  C   UNL     1       9.331  -3.706  -2.290  1.00  0.00     0.468 C 
ENDBRANCH   5   6
ENDBRANCH   1   5
TORSDOF 3
ENDMDL
MODEL 5
REMARK VINA RESULT:      -6.8      1.269      1.760
REMARK SMILES CC(=O)CCc1ccc2c(c1)OCO2
REMARK SMILES IDX 4 1 2 2 1 3 3 4 5 5 6 6 7 7 11 8 8 9 10 10 9 11 12 12 14 13
REMARK SMILES IDX 13 14
REMARK H PARENT
REMARK Flexibility Score: inf
ROOT
ATOM      1  C   UNL     1       5.330  -0.081   1.946  1.00  0.00     0.080 C 
ENDROOT
BRANCH   1   2
ATOM      2  C   UNL     1       4.452   1.110   1.777  1.00  0.00     0.130 C 
ATOM      3  C   UNL     1       4.734   2.150   0.752  1.00  0.00     0.087 C 
ATOM      4  O   UNL     1       3.468   1.268   2.482  1.00  0.00    -0.300 OA
ENDBRANCH   1   2
BRANCH   1   5
ATOM      5  C   UNL     1       6.795   0.303   1.888  1.00  0.00     0.043 C 
BRANCH   5   6
ATOM      6  C   UNL     1       7.404  -0.059   0.596  1.00  0.00    -0.044 A 
ATOM      7  C   UNL     1       7.912   0.914  -0.273  1.00  0.00     0.008 A 
ATOM      8  C   UNL     1       7.484  -1.382   0.225  1.00  0.00     0.054 A 
ATOM      9  C   UNL     1       8.473   0.516  -1.473  1.00  0.00     0.051 A 
ATOM     10  C   UNL     1       8.053  -1.780  -0.989  1.00  0.00     0.166 A 
ATOM     11  C   UNL     1       8.551  -0.823  -1.845  1.00  0.00     0.165 A 
ATOM     12  O   UNL     1       8.246  -3.012  -1.577  1.00  0.00    -0.454 OA
ATOM     13  O   UNL     1       9.046  -1.494  -2.952  1.00  0.00    -0.454 OA
ATOM     14  C   UNL     1       8.955  -2.889  -2.783  1.00  0.00     0.468 C 
ENDBRANCH   5   6
ENDBRANCH   1   5
TORSDOF 3
ENDMDL
