@<TRIPOS>MOLECULE
/home/cewinharhar/GITHUB/reincatalyze/data/processed/docking_pred/2023-May-30-2130_sub9_nm5_bs15_s42_ex16_mel10_mts10000_k50_ec05_g099_lra3e-4_lrc3e-3/ed9d343121b66b90fb32b78305bbba752ee50376_ligand_9.pdbqt
 14 15 0 0 0
SMALL
GASTEIGER

@<TRIPOS>ATOM
      1  C          5.7910    1.6290    0.7820 C.3     1  UNL1        0.0800
      2  C          5.3550    0.6280    1.7970 C.2     1  UNL1        0.1300
      3  C          6.2060   -0.5370    2.1600 C.3     1  UNL1        0.0870
      4  O          4.2790    0.7370    2.3620 O.2     1  UNL1       -0.3000
      5  C          5.7230    1.0560   -0.6200 C.3     1  UNL1        0.0430
      6  C          6.9850    0.3980   -1.0030 C.2     1  UNL1       -0.0440
      7  C          8.2280    0.9830   -0.7330 C.2     1  UNL1        0.0080
      8  C          6.9520   -0.8210   -1.6400 C.2     1  UNL1        0.0540
      9  C          9.3790    0.3190   -1.1160 C.2     1  UNL1        0.0510
     10  C          8.1190   -1.4890   -2.0240 C.2     1  UNL1        0.1660
     11  C          9.3420   -0.9140   -1.7600 C.2     1  UNL1        0.1650
     12  O          8.3480   -2.6910   -2.6600 O.2     1  UNL1       -0.4540
     13  O         10.3070   -1.7840   -2.2430 O.2     1  UNL1       -0.4540
     14  C          9.7230   -2.9650   -2.7400 C.3     1  UNL1        0.4680
@<TRIPOS>BOND
     1    14    12    1
     2    14    13    1
     3    12    10    1
     4    13    11    1
     5    10    11    2
     6    10     8    1
     7    11     9    1
     8     8     6    2
     9     9     7    2
    10     6     7    1
    11     6     5    1
    12     5     1    1
    13     1     2    1
    14     2     3    1
    15     2     4    2
