@<TRIPOS>MOLECULE
/home/cewinharhar/GITHUB/reincatalyze/data/processed/docking_pred/2023-May-30-2130_sub9_nm5_bs15_s42_ex16_mel10_mts10000_k50_ec05_g099_lra3e-4_lrc3e-3/ed9d343121b66b90fb32b78305bbba752ee50376_ligand_9.pdbqt
 14 15 0 0 0
SMALL
GASTEIGER

@<TRIPOS>ATOM
      1  C          5.8860    1.3370   -0.3420 C.3     1  UNL1        0.0800
      2  C          5.2710    1.1890    1.0070 C.2     1  UNL1        0.1300
      3  C          5.5670    0.0190    1.8760 C.3     1  UNL1        0.0870
      4  O          4.5020    2.0310    1.4400 O.2     1  UNL1       -0.3000
      5  C          7.4000    1.3080   -0.2630 C.3     1  UNL1        0.0430
      6  C          7.9670    0.2000   -1.0520 C.2     1  UNL1       -0.0440
      7  C          7.3860   -0.2150   -2.2560 C.2     1  UNL1        0.0080
      8  C          9.0970   -0.4470   -0.6050 C.2     1  UNL1        0.0540
      9  C          7.9640   -1.2610   -2.9540 C.2     1  UNL1        0.0510
     10  C          9.6770   -1.5020   -1.3150 C.2     1  UNL1        0.1660
     11  C          9.1060   -1.9130   -2.4980 C.2     1  UNL1        0.1650
     12  O         10.7810   -2.2950   -1.0840 O.2     1  UNL1       -0.4540
     13  O          9.8800   -2.9590   -2.9760 O.2     1  UNL1       -0.4540
     14  C         11.0040   -3.1740   -2.1560 C.3     1  UNL1        0.4680
@<TRIPOS>BOND
     1    13    11    1
     2    13    14    1
     3     9    11    2
     4     9     7    1
     5    11    10    1
     6     7     6    2
     7    14    12    1
     8    10    12    1
     9    10     8    2
    10     6     8    1
    11     6     5    1
    12     1     5    1
    13     1     2    1
    14     2     4    2
    15     2     3    1
