@<TRIPOS>MOLECULE
/home/cewinharhar/GITHUB/reincatalyze/data/processed/docking_pred/2023-May-30-2130_sub9_nm5_bs15_s42_ex16_mel10_mts10000_k50_ec05_g099_lra3e-4_lrc3e-3/ed9d343121b66b90fb32b78305bbba752ee50376_ligand_9.pdbqt
 14 15 0 0 0
SMALL
GASTEIGER

@<TRIPOS>ATOM
      1  C          6.1060   -0.9050    2.3430 C.3     1  UNL1        0.0800
      2  C          5.4030    0.2880    1.7940 C.2     1  UNL1        0.1300
      3  C          5.8180    0.9180    0.5130 C.3     1  UNL1        0.0870
      4  O          4.4580    0.7860    2.3850 O.2     1  UNL1       -0.3000
      5  C          7.4650   -1.0880    1.6980 C.3     1  UNL1        0.0430
      6  C          8.4700   -1.5620    2.6660 C.2     1  UNL1       -0.0440
      7  C          8.3480   -1.3040    4.0360 C.2     1  UNL1        0.0080
      8  C          9.5590   -2.2790    2.2230 C.2     1  UNL1        0.0540
      9  C          9.3220   -1.7740    4.8970 C.2     1  UNL1        0.0510
     10  C         10.5410   -2.7530    3.0980 C.2     1  UNL1        0.1660
     11  C         10.4210   -2.4980    4.4460 C.2     1  UNL1        0.1650
     12  O         11.6990   -3.4760    2.9080 O.2     1  UNL1       -0.4540
     13  O         11.5200   -3.0770    5.0620 O.2     1  UNL1       -0.4540
     14  C         12.3070   -3.7860    4.1350 C.3     1  UNL1        0.4680
@<TRIPOS>BOND
     1     3     2    1
     2     5     1    1
     3     5     6    1
     4     2     1    1
     5     2     4    2
     6     8     6    2
     7     8    10    1
     8     6     7    1
     9    12    10    1
    10    12    14    1
    11    10    11    2
    12     7     9    2
    13    14    13    1
    14    11     9    1
    15    11    13    1
