@<TRIPOS>MOLECULE
/home/cewinharhar/GITHUB/reincatalyze/data/processed/docking_pred/2023-May-30-2130_sub9_nm5_bs15_s42_ex16_mel10_mts10000_k50_ec05_g099_lra3e-4_lrc3e-3/ed9d343121b66b90fb32b78305bbba752ee50376_ligand_9.pdbqt
 14 15 0 0 0
SMALL
GASTEIGER

@<TRIPOS>ATOM
      1  C          5.3670   -0.0770    1.9950 C.3     1  UNL1        0.0800
      2  C          5.2040    1.1020    1.0990 C.2     1  UNL1        0.1300
      3  C          5.8350    1.1520   -0.2470 C.3     1  UNL1        0.0870
      4  O          4.5430    2.0670    1.4470 O.2     1  UNL1       -0.3000
      5  C          6.0430   -1.2270    1.2750 C.3     1  UNL1        0.0430
      6  C          7.3240   -1.5900    1.9070 C.2     1  UNL1       -0.0440
      7  C          8.3210   -2.2750    1.2030 C.2     1  UNL1        0.0080
      8  C          7.5570   -1.2520    3.2210 C.2     1  UNL1        0.0540
      9  C          9.5030   -2.5890    1.8480 C.2     1  UNL1        0.0510
     10  C          8.7540   -1.5710    3.8680 C.2     1  UNL1        0.1660
     11  C          9.7350   -2.2460    3.1760 C.2     1  UNL1        0.1650
     12  O          9.2190   -1.3490    5.1470 O.2     1  UNL1       -0.4540
     13  O         10.7930   -2.4250    4.0530 O.2     1  UNL1       -0.4540
     14  C         10.5440   -1.7920    5.2860 C.3     1  UNL1        0.4680
@<TRIPOS>BOND
     1     3     2    1
     2     2     4    2
     3     2     1    1
     4     7     9    1
     5     7     6    2
     6     5     6    1
     7     5     1    1
     8     9    11    2
     9     6     8    1
    10    11    10    1
    11    11    13    1
    12     8    10    2
    13    10    12    1
    14    13    14    1
    15    12    14    1
