@<TRIPOS>MOLECULE
/home/cewinharhar/GITHUB/reincatalyze/data/processed/docking_pred/2023-May-30-2130_sub9_nm5_bs15_s42_ex16_mel10_mts10000_k50_ec05_g099_lra3e-4_lrc3e-3/f1acaff2cf7a86b9bbc999bfeecc6491fc2a0881_ligand_9.pdbqt
 14 15 0 0 0
SMALL
GASTEIGER

@<TRIPOS>ATOM
      1  C          5.3360   -0.0860    1.9760 C.3     1  UNL1        0.0800
      2  C          4.4580    1.1030    1.7970 C.2     1  UNL1        0.1300
      3  C          4.7480    2.1400    0.7700 C.3     1  UNL1        0.0870
      4  O          3.4680    1.2620    2.4920 O.2     1  UNL1       -0.3000
      5  C          6.8020    0.2960    1.9120 C.3     1  UNL1        0.0430
      6  C          7.3990   -0.0450    0.6090 C.2     1  UNL1       -0.0440
      7  C          7.8890    0.9420   -0.2540 C.2     1  UNL1        0.0080
      8  C          7.4850   -1.3630    0.2220 C.2     1  UNL1        0.0540
      9  C          8.4400    0.5630   -1.4640 C.2     1  UNL1        0.0510
     10  C          8.0440   -1.7420   -1.0020 C.2     1  UNL1        0.1660
     11  C          8.5250   -0.7710   -1.8520 C.2     1  UNL1        0.1650
     12  O          8.2400   -2.9650   -1.6070 O.2     1  UNL1       -0.4540
     13  O          9.0120   -1.4250   -2.9730 O.2     1  UNL1       -0.4540
     14  C          8.9350   -2.8220   -2.8200 C.3     1  UNL1        0.4680
@<TRIPOS>BOND
     1    13    14    1
     2    13    11    1
     3    14    12    1
     4    11     9    2
     5    11    10    1
     6    12    10    1
     7     9     7    1
     8    10     8    2
     9     7     6    2
    10     8     6    1
    11     6     5    1
    12     3     2    1
    13     2     1    1
    14     2     4    2
    15     5     1    1
