@<TRIPOS>MOLECULE
/home/cewinharhar/GITHUB/reincatalyze/data/processed/docking_pred/2023-May-30-2130_sub9_nm5_bs15_s42_ex16_mel10_mts10000_k50_ec05_g099_lra3e-4_lrc3e-3/f1acaff2cf7a86b9bbc999bfeecc6491fc2a0881_ligand_9.pdbqt
 14 15 0 0 0
SMALL
GASTEIGER

@<TRIPOS>ATOM
      1  C          5.5460    1.9270    1.2660 C.3     1  UNL1        0.0800
      2  C          5.1130    0.7100    2.0070 C.2     1  UNL1        0.1300
      3  C          6.0200   -0.4540    2.1940 C.3     1  UNL1        0.0870
      4  O          3.9930    0.6320    2.4850 O.2     1  UNL1       -0.3000
      5  C          5.4160    1.7350   -0.2320 C.3     1  UNL1        0.0430
      6  C          6.5800    1.0300   -0.7950 C.2     1  UNL1       -0.0440
      7  C          7.8890    1.4570   -0.5430 C.2     1  UNL1        0.0080
      8  C          6.3890   -0.0780   -1.5890 C.2     1  UNL1        0.0540
      9  C          8.9430    0.7550   -1.0980 C.2     1  UNL1        0.0510
     10  C          7.4580   -0.7850   -2.1480 C.2     1  UNL1        0.1660
     11  C          8.7460   -0.3640   -1.9000 C.2     1  UNL1        0.1650
     12  O          7.5280   -1.8980   -2.9580 O.2     1  UNL1       -0.4540
     13  O          9.5880   -1.2380   -2.5700 O.2     1  UNL1       -0.4540
     14  C          8.8620   -2.2790   -3.1780 C.3     1  UNL1        0.4680
@<TRIPOS>BOND
     1    14    12    1
     2    14    13    1
     3    12    10    1
     4    13    11    1
     5    10    11    2
     6    10     8    1
     7    11     9    1
     8     8     6    2
     9     9     7    2
    10     6     7    1
    11     6     5    1
    12     5     1    1
    13     1     2    1
    14     2     3    1
    15     2     4    2
