MODEL 1
REMARK VINA RESULT:      -7.6      0.000      0.000
REMARK SMILES CC(=O)CCc1ccc2c(c1)OCO2
REMARK SMILES IDX 4 1 2 2 1 3 3 4 5 5 6 6 7 7 11 8 8 9 10 10 9 11 12 12 14 13
REMARK SMILES IDX 13 14
REMARK H PARENT
REMARK Flexibility Score: inf
ROOT
ATOM      1  C   UNL     1       5.546   1.927   1.266  1.00  0.00     0.080 C 
ENDROOT
BRANCH   1   2
ATOM      2  C   UNL     1       5.113   0.710   2.007  1.00  0.00     0.130 C 
ATOM      3  C   UNL     1       6.020  -0.454   2.194  1.00  0.00     0.087 C 
ATOM      4  O   UNL     1       3.993   0.632   2.485  1.00  0.00    -0.300 OA
ENDBRANCH   1   2
BRANCH   1   5
ATOM      5  C   UNL     1       5.416   1.735  -0.232  1.00  0.00     0.043 C 
BRANCH   5   6
ATOM      6  C   UNL     1       6.580   1.030  -0.795  1.00  0.00    -0.044 A 
ATOM      7  C   UNL     1       7.889   1.457  -0.543  1.00  0.00     0.008 A 
ATOM      8  C   UNL     1       6.389  -0.078  -1.589  1.00  0.00     0.054 A 
ATOM      9  C   UNL     1       8.943   0.755  -1.098  1.00  0.00     0.051 A 
ATOM     10  C   UNL     1       7.458  -0.785  -2.148  1.00  0.00     0.166 A 
ATOM     11  C   UNL     1       8.746  -0.364  -1.900  1.00  0.00     0.165 A 
ATOM     12  O   UNL     1       7.528  -1.898  -2.958  1.00  0.00    -0.454 OA
ATOM     13  O   UNL     1       9.588  -1.238  -2.570  1.00  0.00    -0.454 OA
ATOM     14  C   UNL     1       8.862  -2.279  -3.178  1.00  0.00     0.468 C 
ENDBRANCH   5   6
ENDBRANCH   1   5
TORSDOF 3
ENDMDL
MODEL 2
REMARK VINA RESULT:      -7.4      1.949      2.397
REMARK SMILES CC(=O)CCc1ccc2c(c1)OCO2
REMARK SMILES IDX 4 1 2 2 1 3 3 4 5 5 6 6 7 7 11 8 8 9 10 10 9 11 12 12 14 13
REMARK SMILES IDX 13 14
REMARK H PARENT
REMARK Flexibility Score: inf
ROOT
ATOM      1  C   UNL     1       5.778   1.400  -0.269  1.00  0.00     0.080 C 
ENDROOT
BRANCH   1   2
ATOM      2  C   UNL     1       5.109   1.292   1.058  1.00  0.00     0.130 C 
ATOM      3  C   UNL     1       5.361   0.143   1.968  1.00  0.00     0.087 C 
ATOM      4  O   UNL     1       4.329   2.150   1.438  1.00  0.00    -0.300 OA
ENDBRANCH   1   2
BRANCH   1   5
ATOM      5  C   UNL     1       7.262   1.111  -0.162  1.00  0.00     0.043 C 
BRANCH   5   6
ATOM      6  C   UNL     1       7.614  -0.179  -0.780  1.00  0.00    -0.044 A 
ATOM      7  C   UNL     1       7.645  -0.343  -2.170  1.00  0.00     0.008 A 
ATOM      8  C   UNL     1       7.924  -1.256   0.019  1.00  0.00     0.054 A 
ATOM      9  C   UNL     1       7.983  -1.578  -2.693  1.00  0.00     0.051 A 
ATOM     10  C   UNL     1       8.266  -2.502  -0.514  1.00  0.00     0.166 A 
ATOM     11  C   UNL     1       8.295  -2.664  -1.882  1.00  0.00     0.165 A 
ATOM     12  O   UNL     1       8.608  -3.708   0.059  1.00  0.00    -0.454 OA
ATOM     13  O   UNL     1       8.660  -3.980  -2.122  1.00  0.00    -0.454 OA
ATOM     14  C   UNL     1       8.956  -4.652  -0.921  1.00  0.00     0.468 C 
ENDBRANCH   5   6
ENDBRANCH   1   5
TORSDOF 3
ENDMDL
MODEL 3
REMARK VINA RESULT:      -7.2      2.058      2.633
REMARK SMILES CC(=O)CCc1ccc2c(c1)OCO2
REMARK SMILES IDX 4 1 2 2 1 3 3 4 5 5 6 6 7 7 11 8 8 9 10 10 9 11 12 12 14 13
REMARK SMILES IDX 13 14
REMARK H PARENT
REMARK Flexibility Score: inf
ROOT
ATOM      1  C   UNL     1       5.410  -0.062   2.015  1.00  0.00     0.080 C 
ENDROOT
BRANCH   1   2
ATOM      2  C   UNL     1       4.570   1.142   1.764  1.00  0.00     0.130 C 
ATOM      3  C   UNL     1       4.912   2.127   0.703  1.00  0.00     0.087 C 
ATOM      4  O   UNL     1       3.568   1.356   2.427  1.00  0.00    -0.300 OA
ENDBRANCH   1   2
BRANCH   1   5
ATOM      5  C   UNL     1       6.851   0.180   1.611  1.00  0.00     0.043 C 
BRANCH   5   6
ATOM      6  C   UNL     1       7.282  -0.742   0.544  1.00  0.00    -0.044 A 
ATOM      7  C   UNL     1       7.159  -0.405  -0.809  1.00  0.00     0.008 A 
ATOM      8  C   UNL     1       7.821  -1.964   0.875  1.00  0.00     0.054 A 
ATOM      9  C   UNL     1       7.581  -1.309  -1.766  1.00  0.00     0.051 A 
ATOM     10  C   UNL     1       8.246  -2.875  -0.097  1.00  0.00     0.166 A 
ATOM     11  C   UNL     1       8.125  -2.544  -1.429  1.00  0.00     0.165 A 
ATOM     12  O   UNL     1       8.805  -4.133  -0.025  1.00  0.00    -0.454 OA
ATOM     13  O   UNL     1       8.618  -3.617  -2.154  1.00  0.00    -0.454 OA
ATOM     14  C   UNL     1       9.143  -4.608  -1.303  1.00  0.00     0.468 C 
ENDBRANCH   5   6
ENDBRANCH   1   5
TORSDOF 3
ENDMDL
MODEL 4
REMARK VINA RESULT:      -7.1      1.251      1.465
REMARK SMILES CC(=O)CCc1ccc2c(c1)OCO2
REMARK SMILES IDX 4 1 2 2 1 3 3 4 5 5 6 6 7 7 11 8 8 9 10 10 9 11 12 12 14 13
REMARK SMILES IDX 13 14
REMARK H PARENT
REMARK Flexibility Score: inf
ROOT
ATOM      1  C   UNL     1       6.393   1.211   0.917  1.00  0.00     0.080 C 
ENDROOT
BRANCH   1   2
ATOM      2  C   UNL     1       5.667   0.389   1.925  1.00  0.00     0.130 C 
ATOM      3  C   UNL     1       6.269  -0.838   2.512  1.00  0.00     0.087 C 
ATOM      4  O   UNL     1       4.549   0.702   2.301  1.00  0.00    -0.300 OA
ENDBRANCH   1   2
BRANCH   1   5
ATOM      5  C   UNL     1       5.889   0.933  -0.486  1.00  0.00     0.043 C 
BRANCH   5   6
ATOM      6  C   UNL     1       6.837   0.105  -1.253  1.00  0.00    -0.044 A 
ATOM      7  C   UNL     1       7.531   0.616  -2.355  1.00  0.00     0.008 A 
ATOM      8  C   UNL     1       7.053  -1.203  -0.884  1.00  0.00     0.054 A 
ATOM      9  C   UNL     1       8.408  -0.208  -3.037  1.00  0.00     0.051 A 
ATOM     10  C   UNL     1       7.942  -2.032  -1.576  1.00  0.00     0.166 A 
ATOM     11  C   UNL     1       8.624  -1.530  -2.661  1.00  0.00     0.165 A 
ATOM     12  O   UNL     1       8.324  -3.346  -1.409  1.00  0.00    -0.454 OA
ATOM     13  O   UNL     1       9.421  -2.557  -3.143  1.00  0.00    -0.454 OA
ATOM     14  C   UNL     1       9.330  -3.698  -2.324  1.00  0.00     0.468 C 
ENDBRANCH   5   6
ENDBRANCH   1   5
TORSDOF 3
ENDMDL
MODEL 5
REMARK VINA RESULT:      -6.8      1.250      1.748
REMARK SMILES CC(=O)CCc1ccc2c(c1)OCO2
REMARK SMILES IDX 4 1 2 2 1 3 3 4 5 5 6 6 7 7 11 8 8 9 10 10 9 11 12 12 14 13
REMARK SMILES IDX 13 14
REMARK H PARENT
REMARK Flexibility Score: inf
ROOT
ATOM      1  C   UNL     1       5.336  -0.086   1.976  1.00  0.00     0.080 C 
ENDROOT
BRANCH   1   2
ATOM      2  C   UNL     1       4.458   1.103   1.797  1.00  0.00     0.130 C 
ATOM      3  C   UNL     1       4.748   2.140   0.770  1.00  0.00     0.087 C 
ATOM      4  O   UNL     1       3.468   1.262   2.492  1.00  0.00    -0.300 OA
ENDBRANCH   1   2
BRANCH   1   5
ATOM      5  C   UNL     1       6.802   0.296   1.912  1.00  0.00     0.043 C 
BRANCH   5   6
ATOM      6  C   UNL     1       7.399  -0.045   0.609  1.00  0.00    -0.044 A 
ATOM      7  C   UNL     1       7.889   0.942  -0.254  1.00  0.00     0.008 A 
ATOM      8  C   UNL     1       7.485  -1.363   0.222  1.00  0.00     0.054 A 
ATOM      9  C   UNL     1       8.440   0.563  -1.464  1.00  0.00     0.051 A 
ATOM     10  C   UNL     1       8.044  -1.742  -1.002  1.00  0.00     0.166 A 
ATOM     11  C   UNL     1       8.525  -0.771  -1.852  1.00  0.00     0.165 A 
ATOM     12  O   UNL     1       8.240  -2.965  -1.607  1.00  0.00    -0.454 OA
ATOM     13  O   UNL     1       9.012  -1.425  -2.973  1.00  0.00    -0.454 OA
ATOM     14  C   UNL     1       8.935  -2.822  -2.820  1.00  0.00     0.468 C 
ENDBRANCH   5   6
ENDBRANCH   1   5
TORSDOF 3
ENDMDL
