@<TRIPOS>MOLECULE
/home/cewinharhar/GITHUB/reincatalyze/data/processed/docking_pred/2023-May-30-2130_sub9_nm5_bs15_s42_ex16_mel10_mts10000_k50_ec05_g099_lra3e-4_lrc3e-3/f32d20faebe3d2be17d1bcf3c85c7c889e58fe23_ligand_9.pdbqt
 14 15 0 0 0
SMALL
GASTEIGER

@<TRIPOS>ATOM
      1  C          5.6200    0.0030    1.9700 C.3     1  UNL1        0.0800
      2  C          4.6950    1.1260    1.6520 C.2     1  UNL1        0.1300
      3  C          4.9500    2.0500    0.5150 C.3     1  UNL1        0.0870
      4  O          3.6930    1.3220    2.3220 O.2     1  UNL1       -0.3000
      5  C          7.0160    0.2750    1.4470 C.3     1  UNL1        0.0430
      6  C          7.4110   -0.6980    0.4130 C.2     1  UNL1       -0.0440
      7  C          7.2940   -0.4060   -0.9510 C.2     1  UNL1        0.0080
      8  C          7.9120   -1.9250    0.7860 C.2     1  UNL1        0.0540
      9  C          7.6810   -1.3580   -1.8770 C.2     1  UNL1        0.0510
     10  C          8.3030   -2.8830   -0.1540 C.2     1  UNL1        0.1660
     11  C          8.1860   -2.5980   -1.4960 C.2     1  UNL1        0.1650
     12  O          8.8210   -4.1560   -0.0390 O.2     1  UNL1       -0.4540
     13  O          8.6410   -3.7120   -2.1840 O.2     1  UNL1       -0.4540
     14  C          9.1370   -4.6880   -1.2990 C.3     1  UNL1        0.4680
@<TRIPOS>BOND
     1    13    11    1
     2    13    14    1
     3     9    11    2
     4     9     7    1
     5    11    10    1
     6    14    12    1
     7     7     6    2
     8    10    12    1
     9    10     8    2
    10     6     8    1
    11     6     5    1
    12     3     2    1
    13     5     1    1
    14     2     1    1
    15     2     4    2
