@<TRIPOS>MOLECULE
/home/cewinharhar/GITHUB/reincatalyze/data/processed/docking_pred/2023-May-30-2130_sub9_nm5_bs15_s42_ex16_mel10_mts10000_k50_ec05_g099_lra3e-4_lrc3e-3/f411d25023d78b520541a26d40866fe70d26d332_ligand_9.pdbqt
 14 15 0 0 0
SMALL
GASTEIGER

@<TRIPOS>ATOM
      1  C          5.3120   -0.0840    1.9370 C.3     1  UNL1        0.0800
      2  C          4.4380    1.1120    1.7740 C.2     1  UNL1        0.1300
      3  C          4.7200    2.1500    0.7460 C.3     1  UNL1        0.0870
      4  O          3.4600    1.2750    2.4840 O.2     1  UNL1       -0.3000
      5  C          6.7790    0.2960    1.8920 C.3     1  UNL1        0.0430
      6  C          7.3930   -0.0510    0.5980 C.2     1  UNL1       -0.0440
      7  C          7.9030    0.9310   -0.2580 C.2     1  UNL1        0.0080
      8  C          7.4750   -1.3700    0.2140 C.2     1  UNL1        0.0540
      9  C          8.4700    0.5460   -1.4600 C.2     1  UNL1        0.0510
     10  C          8.0490   -1.7550   -1.0010 C.2     1  UNL1        0.1660
     11  C          8.5500   -0.7890   -1.8450 C.2     1  UNL1        0.1650
     12  O          8.2460   -2.9810   -1.6010 O.2     1  UNL1       -0.4540
     13  O          9.0500   -1.4480   -2.9570 O.2     1  UNL1       -0.4540
     14  C          8.9600   -2.8450   -2.8030 C.3     1  UNL1        0.4680
@<TRIPOS>BOND
     1    13    14    1
     2    13    11    1
     3    14    12    1
     4    11     9    2
     5    11    10    1
     6    12    10    1
     7     9     7    1
     8    10     8    2
     9     7     6    2
    10     8     6    1
    11     6     5    1
    12     3     2    1
    13     2     1    1
    14     2     4    2
    15     5     1    1
