MODEL 1
REMARK VINA RESULT:      -7.6      0.000      0.000
REMARK SMILES CC(=O)CCc1ccc2c(c1)OCO2
REMARK SMILES IDX 4 1 2 2 1 3 3 4 5 5 6 6 7 7 11 8 8 9 10 10 9 11 12 12 14 13
REMARK SMILES IDX 13 14
REMARK H PARENT
REMARK Flexibility Score: inf
ROOT
ATOM      1  C   UNL     1       5.560   1.915   1.274  1.00  0.00     0.080 C 
ENDROOT
BRANCH   1   2
ATOM      2  C   UNL     1       5.127   0.700   2.019  1.00  0.00     0.130 C 
ATOM      3  C   UNL     1       6.030  -0.468   2.201  1.00  0.00     0.087 C 
ATOM      4  O   UNL     1       4.009   0.627   2.504  1.00  0.00    -0.300 OA
ENDBRANCH   1   2
BRANCH   1   5
ATOM      5  C   UNL     1       5.423   1.720  -0.223  1.00  0.00     0.043 C 
BRANCH   5   6
ATOM      6  C   UNL     1       6.587   1.019  -0.792  1.00  0.00    -0.044 A 
ATOM      7  C   UNL     1       7.895   1.451  -0.545  1.00  0.00     0.008 A 
ATOM      8  C   UNL     1       6.396  -0.089  -1.585  1.00  0.00     0.054 A 
ATOM      9  C   UNL     1       8.950   0.752  -1.105  1.00  0.00     0.051 A 
ATOM     10  C   UNL     1       7.465  -0.792  -2.149  1.00  0.00     0.166 A 
ATOM     11  C   UNL     1       8.752  -0.368  -1.907  1.00  0.00     0.165 A 
ATOM     12  O   UNL     1       7.535  -1.906  -2.959  1.00  0.00    -0.454 OA
ATOM     13  O   UNL     1       9.595  -1.239  -2.580  1.00  0.00    -0.454 OA
ATOM     14  C   UNL     1       8.869  -2.282  -3.186  1.00  0.00     0.468 C 
ENDBRANCH   5   6
ENDBRANCH   1   5
TORSDOF 3
ENDMDL
MODEL 2
REMARK VINA RESULT:      -7.4      1.882      2.345
REMARK SMILES CC(=O)CCc1ccc2c(c1)OCO2
REMARK SMILES IDX 4 1 2 2 1 3 3 4 5 5 6 6 7 7 11 8 8 9 10 10 9 11 12 12 14 13
REMARK SMILES IDX 13 14
REMARK H PARENT
REMARK Flexibility Score: inf
ROOT
ATOM      1  C   UNL     1       5.759   1.391  -0.276  1.00  0.00     0.080 C 
ENDROOT
BRANCH   1   2
ATOM      2  C   UNL     1       5.171   1.260   1.086  1.00  0.00     0.130 C 
ATOM      3  C   UNL     1       5.394   0.049   1.920  1.00  0.00     0.087 C 
ATOM      4  O   UNL     1       4.483   2.150   1.559  1.00  0.00    -0.300 OA
ENDBRANCH   1   2
BRANCH   1   5
ATOM      5  C   UNL     1       7.255   1.148  -0.255  1.00  0.00     0.043 C 
BRANCH   5   6
ATOM      6  C   UNL     1       7.609  -0.138  -0.881  1.00  0.00    -0.044 A 
ATOM      7  C   UNL     1       7.635  -0.294  -2.272  1.00  0.00     0.008 A 
ATOM      8  C   UNL     1       7.927  -1.218  -0.089  1.00  0.00     0.054 A 
ATOM      9  C   UNL     1       7.976  -1.524  -2.803  1.00  0.00     0.051 A 
ATOM     10  C   UNL     1       8.271  -2.460  -0.631  1.00  0.00     0.166 A 
ATOM     11  C   UNL     1       8.295  -2.614  -1.999  1.00  0.00     0.165 A 
ATOM     12  O   UNL     1       8.620  -3.668  -0.065  1.00  0.00    -0.454 OA
ATOM     13  O   UNL     1       8.664  -3.927  -2.247  1.00  0.00    -0.454 OA
ATOM     14  C   UNL     1       8.968  -4.605  -1.052  1.00  0.00     0.468 C 
ENDBRANCH   5   6
ENDBRANCH   1   5
TORSDOF 3
ENDMDL
MODEL 3
REMARK VINA RESULT:      -7.2      2.052      2.630
REMARK SMILES CC(=O)CCc1ccc2c(c1)OCO2
REMARK SMILES IDX 4 1 2 2 1 3 3 4 5 5 6 6 7 7 11 8 8 9 10 10 9 11 12 12 14 13
REMARK SMILES IDX 13 14
REMARK H PARENT
REMARK Flexibility Score: inf
ROOT
ATOM      1  C   UNL     1       5.383  -0.081   2.028  1.00  0.00     0.080 C 
ENDROOT
BRANCH   1   2
ATOM      2  C   UNL     1       4.539   1.120   1.772  1.00  0.00     0.130 C 
ATOM      3  C   UNL     1       4.891   2.111   0.721  1.00  0.00     0.087 C 
ATOM      4  O   UNL     1       3.528   1.326   2.424  1.00  0.00    -0.300 OA
ENDBRANCH   1   2
BRANCH   1   5
ATOM      5  C   UNL     1       6.825   0.165   1.634  1.00  0.00     0.043 C 
BRANCH   5   6
ATOM      6  C   UNL     1       7.263  -0.748   0.562  1.00  0.00    -0.044 A 
ATOM      7  C   UNL     1       7.146  -0.401  -0.789  1.00  0.00     0.008 A 
ATOM      8  C   UNL     1       7.802  -1.971   0.887  1.00  0.00     0.054 A 
ATOM      9  C   UNL     1       7.573  -1.298  -1.751  1.00  0.00     0.051 A 
ATOM     10  C   UNL     1       8.234  -2.874  -0.089  1.00  0.00     0.166 A 
ATOM     11  C   UNL     1       8.118  -2.535  -1.419  1.00  0.00     0.165 A 
ATOM     12  O   UNL     1       8.795  -4.132  -0.024  1.00  0.00    -0.454 OA
ATOM     13  O   UNL     1       8.617  -3.602  -2.150  1.00  0.00    -0.454 OA
ATOM     14  C   UNL     1       9.140  -4.598  -1.303  1.00  0.00     0.468 C 
ENDBRANCH   5   6
ENDBRANCH   1   5
TORSDOF 3
ENDMDL
MODEL 4
REMARK VINA RESULT:      -7.1      1.244      1.447
REMARK SMILES CC(=O)CCc1ccc2c(c1)OCO2
REMARK SMILES IDX 4 1 2 2 1 3 3 4 5 5 6 6 7 7 11 8 8 9 10 10 9 11 12 12 14 13
REMARK SMILES IDX 13 14
REMARK H PARENT
REMARK Flexibility Score: inf
ROOT
ATOM      1  C   UNL     1       6.371   1.239   0.907  1.00  0.00     0.080 C 
ENDROOT
BRANCH   1   2
ATOM      2  C   UNL     1       5.671   0.408   1.925  1.00  0.00     0.130 C 
ATOM      3  C   UNL     1       6.306  -0.799   2.520  1.00  0.00     0.087 C 
ATOM      4  O   UNL     1       4.547   0.695   2.304  1.00  0.00    -0.300 OA
ENDBRANCH   1   2
BRANCH   1   5
ATOM      5  C   UNL     1       5.865   0.940  -0.490  1.00  0.00     0.043 C 
BRANCH   5   6
ATOM      6  C   UNL     1       6.818   0.114  -1.253  1.00  0.00    -0.044 A 
ATOM      7  C   UNL     1       7.517   0.627  -2.352  1.00  0.00     0.008 A 
ATOM      8  C   UNL     1       7.037  -1.193  -0.882  1.00  0.00     0.054 A 
ATOM      9  C   UNL     1       8.400  -0.194  -3.028  1.00  0.00     0.051 A 
ATOM     10  C   UNL     1       7.932  -2.019  -1.569  1.00  0.00     0.166 A 
ATOM     11  C   UNL     1       8.618  -1.516  -2.651  1.00  0.00     0.165 A 
ATOM     12  O   UNL     1       8.317  -3.332  -1.400  1.00  0.00    -0.454 OA
ATOM     13  O   UNL     1       9.420  -2.540  -3.129  1.00  0.00    -0.454 OA
ATOM     14  C   UNL     1       9.329  -3.682  -2.310  1.00  0.00     0.468 C 
ENDBRANCH   5   6
ENDBRANCH   1   5
TORSDOF 3
ENDMDL
MODEL 5
REMARK VINA RESULT:      -6.8      1.254      1.747
REMARK SMILES CC(=O)CCc1ccc2c(c1)OCO2
REMARK SMILES IDX 4 1 2 2 1 3 3 4 5 5 6 6 7 7 11 8 8 9 10 10 9 11 12 12 14 13
REMARK SMILES IDX 13 14
REMARK H PARENT
REMARK Flexibility Score: inf
ROOT
ATOM      1  C   UNL     1       5.312  -0.084   1.937  1.00  0.00     0.080 C 
ENDROOT
BRANCH   1   2
ATOM      2  C   UNL     1       4.438   1.112   1.774  1.00  0.00     0.130 C 
ATOM      3  C   UNL     1       4.720   2.150   0.746  1.00  0.00     0.087 C 
ATOM      4  O   UNL     1       3.460   1.275   2.484  1.00  0.00    -0.300 OA
ENDBRANCH   1   2
BRANCH   1   5
ATOM      5  C   UNL     1       6.779   0.296   1.892  1.00  0.00     0.043 C 
BRANCH   5   6
ATOM      6  C   UNL     1       7.393  -0.051   0.598  1.00  0.00    -0.044 A 
ATOM      7  C   UNL     1       7.903   0.931  -0.258  1.00  0.00     0.008 A 
ATOM      8  C   UNL     1       7.475  -1.370   0.214  1.00  0.00     0.054 A 
ATOM      9  C   UNL     1       8.470   0.546  -1.460  1.00  0.00     0.051 A 
ATOM     10  C   UNL     1       8.049  -1.755  -1.001  1.00  0.00     0.166 A 
ATOM     11  C   UNL     1       8.550  -0.789  -1.845  1.00  0.00     0.165 A 
ATOM     12  O   UNL     1       8.246  -2.981  -1.601  1.00  0.00    -0.454 OA
ATOM     13  O   UNL     1       9.050  -1.448  -2.957  1.00  0.00    -0.454 OA
ATOM     14  C   UNL     1       8.960  -2.845  -2.803  1.00  0.00     0.468 C 
ENDBRANCH   5   6
ENDBRANCH   1   5
TORSDOF 3
ENDMDL
