@<TRIPOS>MOLECULE
/home/cewinharhar/GITHUB/reincatalyze/data/processed/docking_pred/2023-May-30-2130_sub9_nm5_bs15_s42_ex16_mel10_mts10000_k50_ec05_g099_lra3e-4_lrc3e-3/f43d8cd6194682d8f3e5600fbc578d0750565092_ligand_9.pdbqt
 14 15 0 0 0
SMALL
GASTEIGER

@<TRIPOS>ATOM
      1  C          5.7590    1.3910   -0.2760 C.3     1  UNL1        0.0800
      2  C          5.1710    1.2600    1.0860 C.2     1  UNL1        0.1300
      3  C          5.3940    0.0490    1.9200 C.3     1  UNL1        0.0870
      4  O          4.4830    2.1500    1.5590 O.2     1  UNL1       -0.3000
      5  C          7.2550    1.1480   -0.2550 C.3     1  UNL1        0.0430
      6  C          7.6090   -0.1380   -0.8810 C.2     1  UNL1       -0.0440
      7  C          7.6350   -0.2940   -2.2720 C.2     1  UNL1        0.0080
      8  C          7.9270   -1.2180   -0.0890 C.2     1  UNL1        0.0540
      9  C          7.9760   -1.5240   -2.8030 C.2     1  UNL1        0.0510
     10  C          8.2710   -2.4600   -0.6310 C.2     1  UNL1        0.1660
     11  C          8.2950   -2.6140   -1.9990 C.2     1  UNL1        0.1650
     12  O          8.6200   -3.6680   -0.0650 O.2     1  UNL1       -0.4540
     13  O          8.6640   -3.9270   -2.2470 O.2     1  UNL1       -0.4540
     14  C          8.9680   -4.6050   -1.0520 C.3     1  UNL1        0.4680
@<TRIPOS>BOND
     1     9     7    1
     2     9    11    2
     3     7     6    2
     4    13    11    1
     5    13    14    1
     6    11    10    1
     7    14    12    1
     8     6     5    1
     9     6     8    1
    10    10     8    2
    11    10    12    1
    12     1     5    1
    13     1     2    1
    14     2     4    2
    15     2     3    1
