@<TRIPOS>MOLECULE
/home/cewinharhar/GITHUB/reincatalyze/data/processed/docking_pred/2023-May-30-2130_sub9_nm5_bs15_s42_ex16_mel10_mts10000_k50_ec05_g099_lra3e-4_lrc3e-3/f56adf6440abdf94ed5aca5eaefea0329b307251_ligand_9.pdbqt
 14 15 0 0 0
SMALL
GASTEIGER

@<TRIPOS>ATOM
      1  C          5.4990    1.9150    1.2600 C.3     1  UNL1        0.0800
      2  C          5.0260    0.7080    1.9930 C.2     1  UNL1        0.1300
      3  C          5.8680   -0.5120    2.1150 C.3     1  UNL1        0.0870
      4  O          3.9240    0.6850    2.5170 O.2     1  UNL1       -0.3000
      5  C          5.3820    1.7300   -0.2400 C.3     1  UNL1        0.0430
      6  C          6.5550    1.0340   -0.7980 C.2     1  UNL1       -0.0440
      7  C          7.8590    1.4700   -0.5360 C.2     1  UNL1        0.0080
      8  C          6.3760   -0.0740   -1.5940 C.2     1  UNL1        0.0540
      9  C          8.9220    0.7760   -1.0860 C.2     1  UNL1        0.0510
     10  C          7.4540   -0.7720   -2.1470 C.2     1  UNL1        0.1660
     11  C          8.7370   -0.3430   -1.8920 C.2     1  UNL1        0.1650
     12  O          7.5360   -1.8840   -2.9590 O.2     1  UNL1       -0.4540
     13  O          9.5890   -1.2100   -2.5570 O.2     1  UNL1       -0.4540
     14  C          8.8740   -2.2550   -3.1720 C.3     1  UNL1        0.4680
@<TRIPOS>BOND
     1    14    12    1
     2    14    13    1
     3    12    10    1
     4    13    11    1
     5    10    11    2
     6    10     8    1
     7    11     9    1
     8     8     6    2
     9     9     7    2
    10     6     7    1
    11     6     5    1
    12     5     1    1
    13     1     2    1
    14     2     3    1
    15     2     4    2
