@<TRIPOS>MOLECULE
/home/cewinharhar/GITHUB/reincatalyze/data/processed/docking_pred/2023-May-30-2130_sub9_nm5_bs15_s42_ex16_mel10_mts10000_k50_ec05_g099_lra3e-4_lrc3e-3/f5d21a1fca5b46740ede221944c3c0743e15dd7f_ligand_9.pdbqt
 14 15 0 0 0
SMALL
GASTEIGER

@<TRIPOS>ATOM
      1  C          5.5570    0.0470    1.9430 C.3     1  UNL1        0.0800
      2  C          4.6700    1.1990    1.6190 C.2     1  UNL1        0.1300
      3  C          4.9700    2.1240    0.4950 C.3     1  UNL1        0.0870
      4  O          3.6630    1.4170    2.2730 O.2     1  UNL1       -0.3000
      5  C          6.9760    0.2950    1.4690 C.3     1  UNL1        0.0430
      6  C          7.3840   -0.6740    0.4360 C.2     1  UNL1       -0.0440
      7  C          7.2990   -0.3710   -0.9280 C.2     1  UNL1        0.0080
      8  C          7.8650   -1.9080    0.8100 C.2     1  UNL1        0.0540
      9  C          7.6980   -1.3190   -1.8520 C.2     1  UNL1        0.0510
     10  C          8.2670   -2.8630   -0.1280 C.2     1  UNL1        0.1660
     11  C          8.1830   -2.5660   -1.4700 C.2     1  UNL1        0.1650
     12  O          8.7710   -4.1410   -0.0110 O.2     1  UNL1       -0.4540
     13  O          8.6420   -3.6800   -2.1560 O.2     1  UNL1       -0.4540
     14  C          9.1100   -4.6670   -1.2680 C.3     1  UNL1        0.4680
@<TRIPOS>BOND
     1    13    11    1
     2    13    14    1
     3     9    11    2
     4     9     7    1
     5    11    10    1
     6    14    12    1
     7     7     6    2
     8    10    12    1
     9    10     8    2
    10     6     8    1
    11     6     5    1
    12     3     2    1
    13     5     1    1
    14     2     1    1
    15     2     4    2
