@<TRIPOS>MOLECULE
/home/cewinharhar/GITHUB/reincatalyze/data/processed/docking_pred/2023-May-30-2130_sub9_nm5_bs15_s42_ex16_mel10_mts10000_k50_ec05_g099_lra3e-4_lrc3e-3/f6b0a6d65051a5b20d9eb350202399160ef0f891_ligand_9.pdbqt
 14 15 0 0 0
SMALL
GASTEIGER

@<TRIPOS>ATOM
      1  C          6.3800    1.1830    0.9390 C.3     1  UNL1        0.0800
      2  C          5.6680    0.3600    1.9560 C.2     1  UNL1        0.1300
      3  C          6.2700   -0.8790    2.5180 C.3     1  UNL1        0.0870
      4  O          4.5620    0.6810    2.3590 O.2     1  UNL1       -0.3000
      5  C          5.8610    0.9030   -0.4570 C.3     1  UNL1        0.0430
      6  C          6.8080    0.0880   -1.2390 C.2     1  UNL1       -0.0440
      7  C          7.4830    0.6110   -2.3480 C.2     1  UNL1        0.0080
      8  C          7.0440   -1.2180   -0.8770 C.2     1  UNL1        0.0540
      9  C          8.3610   -0.2000   -3.0430 C.2     1  UNL1        0.0510
     10  C          7.9330   -2.0350   -1.5830 C.2     1  UNL1        0.1660
     11  C          8.5970   -1.5210   -2.6750 C.2     1  UNL1        0.1650
     12  O          8.3330   -3.3450   -1.4260 O.2     1  UNL1       -0.4540
     13  O          9.3990   -2.5370   -3.1710 O.2     1  UNL1       -0.4540
     14  C          9.3310   -3.6830   -2.3550 C.3     1  UNL1        0.4680
@<TRIPOS>BOND
     1    13    11    1
     2    13    14    1
     3     9    11    2
     4     9     7    1
     5    11    10    1
     6    14    12    1
     7     7     6    2
     8    10    12    1
     9    10     8    2
    10     6     8    1
    11     6     5    1
    12     5     1    1
    13     1     2    1
    14     2     4    2
    15     2     3    1
