MODEL 1
REMARK VINA RESULT:      -7.6      0.000      0.000
REMARK SMILES CC(=O)CCc1ccc2c(c1)OCO2
REMARK SMILES IDX 4 1 2 2 1 3 3 4 5 5 6 6 7 7 11 8 8 9 10 10 9 11 12 12 14 13
REMARK SMILES IDX 13 14
REMARK H PARENT
REMARK Flexibility Score: inf
ROOT
ATOM      1  C   UNL     1       5.550   1.936   1.269  1.00  0.00     0.080 C 
ENDROOT
BRANCH   1   2
ATOM      2  C   UNL     1       5.122   0.718   2.012  1.00  0.00     0.130 C 
ATOM      3  C   UNL     1       6.034  -0.442   2.201  1.00  0.00     0.087 C 
ATOM      4  O   UNL     1       4.002   0.637   2.490  1.00  0.00    -0.300 OA
ENDBRANCH   1   2
BRANCH   1   5
ATOM      5  C   UNL     1       5.418   1.743  -0.228  1.00  0.00     0.043 C 
BRANCH   5   6
ATOM      6  C   UNL     1       6.581   1.035  -0.793  1.00  0.00    -0.044 A 
ATOM      7  C   UNL     1       7.891   1.462  -0.544  1.00  0.00     0.008 A 
ATOM      8  C   UNL     1       6.387  -0.076  -1.582  1.00  0.00     0.054 A 
ATOM      9  C   UNL     1       8.943   0.758  -1.100  1.00  0.00     0.051 A 
ATOM     10  C   UNL     1       7.454  -0.785  -2.141  1.00  0.00     0.166 A 
ATOM     11  C   UNL     1       8.743  -0.364  -1.898  1.00  0.00     0.165 A 
ATOM     12  O   UNL     1       7.521  -1.901  -2.947  1.00  0.00    -0.454 OA
ATOM     13  O   UNL     1       9.583  -1.241  -2.567  1.00  0.00    -0.454 OA
ATOM     14  C   UNL     1       8.855  -2.283  -3.170  1.00  0.00     0.468 C 
ENDBRANCH   5   6
ENDBRANCH   1   5
TORSDOF 3
ENDMDL
MODEL 2
REMARK VINA RESULT:      -7.4      1.898      2.357
REMARK SMILES CC(=O)CCc1ccc2c(c1)OCO2
REMARK SMILES IDX 4 1 2 2 1 3 3 4 5 5 6 6 7 7 11 8 8 9 10 10 9 11 12 12 14 13
REMARK SMILES IDX 13 14
REMARK H PARENT
REMARK Flexibility Score: inf
ROOT
ATOM      1  C   UNL     1       5.788   1.451  -0.328  1.00  0.00     0.080 C 
ENDROOT
BRANCH   1   2
ATOM      2  C   UNL     1       5.158   1.354   1.019  1.00  0.00     0.130 C 
ATOM      3  C   UNL     1       5.543   0.290   1.985  1.00  0.00     0.087 C 
ATOM      4  O   UNL     1       4.303   2.150   1.370  1.00  0.00    -0.300 OA
ENDBRANCH   1   2
BRANCH   1   5
ATOM      5  C   UNL     1       7.279   1.186  -0.259  1.00  0.00     0.043 C 
BRANCH   5   6
ATOM      6  C   UNL     1       7.632  -0.110  -0.866  1.00  0.00    -0.044 A 
ATOM      7  C   UNL     1       7.696  -0.276  -2.254  1.00  0.00     0.008 A 
ATOM      8  C   UNL     1       7.909  -1.189  -0.057  1.00  0.00     0.054 A 
ATOM      9  C   UNL     1       8.033  -1.516  -2.766  1.00  0.00     0.051 A 
ATOM     10  C   UNL     1       8.251  -2.439  -0.580  1.00  0.00     0.166 A 
ATOM     11  C   UNL     1       8.313  -2.604  -1.946  1.00  0.00     0.165 A 
ATOM     12  O   UNL     1       8.566  -3.648   0.004  1.00  0.00    -0.454 OA
ATOM     13  O   UNL     1       8.669  -3.924  -2.175  1.00  0.00    -0.454 OA
ATOM     14  C   UNL     1       8.928  -4.597  -0.966  1.00  0.00     0.468 C 
ENDBRANCH   5   6
ENDBRANCH   1   5
TORSDOF 3
ENDMDL
MODEL 3
REMARK VINA RESULT:      -7.2      2.078      2.626
REMARK SMILES CC(=O)CCc1ccc2c(c1)OCO2
REMARK SMILES IDX 4 1 2 2 1 3 3 4 5 5 6 6 7 7 11 8 8 9 10 10 9 11 12 12 14 13
REMARK SMILES IDX 13 14
REMARK H PARENT
REMARK Flexibility Score: inf
ROOT
ATOM      1  C   UNL     1       5.520   0.008   1.966  1.00  0.00     0.080 C 
ENDROOT
BRANCH   1   2
ATOM      2  C   UNL     1       4.653   1.180   1.665  1.00  0.00     0.130 C 
ATOM      3  C   UNL     1       4.982   2.135   0.573  1.00  0.00     0.087 C 
ATOM      4  O   UNL     1       3.639   1.393   2.310  1.00  0.00    -0.300 OA
ENDBRANCH   1   2
BRANCH   1   5
ATOM      5  C   UNL     1       6.947   0.248   1.516  1.00  0.00     0.043 C 
BRANCH   5   6
ATOM      6  C   UNL     1       7.358  -0.705   0.470  1.00  0.00    -0.044 A 
ATOM      7  C   UNL     1       7.255  -0.390  -0.890  1.00  0.00     0.008 A 
ATOM      8  C   UNL     1       7.859  -1.936   0.827  1.00  0.00     0.054 A 
ATOM      9  C   UNL     1       7.657  -1.324  -1.828  1.00  0.00     0.051 A 
ATOM     10  C   UNL     1       8.264  -2.877  -0.125  1.00  0.00     0.166 A 
ATOM     11  C   UNL     1       8.162  -2.568  -1.463  1.00  0.00     0.165 A 
ATOM     12  O   UNL     1       8.786  -4.149  -0.025  1.00  0.00    -0.454 OA
ATOM     13  O   UNL     1       8.629  -3.669  -2.165  1.00  0.00    -0.454 OA
ATOM     14  C   UNL     1       9.119  -4.658  -1.291  1.00  0.00     0.468 C 
ENDBRANCH   5   6
ENDBRANCH   1   5
TORSDOF 3
ENDMDL
MODEL 4
REMARK VINA RESULT:      -7.1      1.255      1.465
REMARK SMILES CC(=O)CCc1ccc2c(c1)OCO2
REMARK SMILES IDX 4 1 2 2 1 3 3 4 5 5 6 6 7 7 11 8 8 9 10 10 9 11 12 12 14 13
REMARK SMILES IDX 13 14
REMARK H PARENT
REMARK Flexibility Score: inf
ROOT
ATOM      1  C   UNL     1       6.380   1.183   0.939  1.00  0.00     0.080 C 
ENDROOT
BRANCH   1   2
ATOM      2  C   UNL     1       5.668   0.360   1.956  1.00  0.00     0.130 C 
ATOM      3  C   UNL     1       6.270  -0.879   2.518  1.00  0.00     0.087 C 
ATOM      4  O   UNL     1       4.562   0.681   2.359  1.00  0.00    -0.300 OA
ENDBRANCH   1   2
BRANCH   1   5
ATOM      5  C   UNL     1       5.861   0.903  -0.457  1.00  0.00     0.043 C 
BRANCH   5   6
ATOM      6  C   UNL     1       6.808   0.088  -1.239  1.00  0.00    -0.044 A 
ATOM      7  C   UNL     1       7.483   0.611  -2.348  1.00  0.00     0.008 A 
ATOM      8  C   UNL     1       7.044  -1.218  -0.877  1.00  0.00     0.054 A 
ATOM      9  C   UNL     1       8.361  -0.200  -3.043  1.00  0.00     0.051 A 
ATOM     10  C   UNL     1       7.933  -2.035  -1.583  1.00  0.00     0.166 A 
ATOM     11  C   UNL     1       8.597  -1.521  -2.675  1.00  0.00     0.165 A 
ATOM     12  O   UNL     1       8.333  -3.345  -1.426  1.00  0.00    -0.454 OA
ATOM     13  O   UNL     1       9.399  -2.537  -3.171  1.00  0.00    -0.454 OA
ATOM     14  C   UNL     1       9.331  -3.683  -2.355  1.00  0.00     0.468 C 
ENDBRANCH   5   6
ENDBRANCH   1   5
TORSDOF 3
ENDMDL
MODEL 5
REMARK VINA RESULT:      -6.8      1.255      1.753
REMARK SMILES CC(=O)CCc1ccc2c(c1)OCO2
REMARK SMILES IDX 4 1 2 2 1 3 3 4 5 5 6 6 7 7 11 8 8 9 10 10 9 11 12 12 14 13
REMARK SMILES IDX 13 14
REMARK H PARENT
REMARK Flexibility Score: inf
ROOT
ATOM      1  C   UNL     1       5.330  -0.097   1.935  1.00  0.00     0.080 C 
ENDROOT
BRANCH   1   2
ATOM      2  C   UNL     1       4.457   1.101   1.783  1.00  0.00     0.130 C 
ATOM      3  C   UNL     1       4.740   2.150   0.768  1.00  0.00     0.087 C 
ATOM      4  O   UNL     1       3.477   1.256   2.494  1.00  0.00    -0.300 OA
ENDBRANCH   1   2
BRANCH   1   5
ATOM      5  C   UNL     1       6.797   0.282   1.887  1.00  0.00     0.043 C 
BRANCH   5   6
ATOM      6  C   UNL     1       7.410  -0.069   0.593  1.00  0.00    -0.044 A 
ATOM      7  C   UNL     1       7.923   0.911  -0.264  1.00  0.00     0.008 A 
ATOM      8  C   UNL     1       7.487  -1.389   0.211  1.00  0.00     0.054 A 
ATOM      9  C   UNL     1       8.488   0.522  -1.465  1.00  0.00     0.051 A 
ATOM     10  C   UNL     1       8.059  -1.776  -1.005  1.00  0.00     0.166 A 
ATOM     11  C   UNL     1       8.563  -0.813  -1.850  1.00  0.00     0.165 A 
ATOM     12  O   UNL     1       8.251  -3.003  -1.604  1.00  0.00    -0.454 OA
ATOM     13  O   UNL     1       9.061  -1.475  -2.961  1.00  0.00    -0.454 OA
ATOM     14  C   UNL     1       8.965  -2.871  -2.806  1.00  0.00     0.468 C 
ENDBRANCH   5   6
ENDBRANCH   1   5
TORSDOF 3
ENDMDL
