@<TRIPOS>MOLECULE
/home/cewinharhar/GITHUB/reincatalyze/data/processed/docking_pred/2023-May-30-2130_sub9_nm5_bs15_s42_ex16_mel10_mts10000_k50_ec05_g099_lra3e-4_lrc3e-3/f6b0a6d65051a5b20d9eb350202399160ef0f891_ligand_9.pdbqt
 14 15 0 0 0
SMALL
GASTEIGER

@<TRIPOS>ATOM
      1  C          5.3300   -0.0970    1.9350 C.3     1  UNL1        0.0800
      2  C          4.4570    1.1010    1.7830 C.2     1  UNL1        0.1300
      3  C          4.7400    2.1500    0.7680 C.3     1  UNL1        0.0870
      4  O          3.4770    1.2560    2.4940 O.2     1  UNL1       -0.3000
      5  C          6.7970    0.2820    1.8870 C.3     1  UNL1        0.0430
      6  C          7.4100   -0.0690    0.5930 C.2     1  UNL1       -0.0440
      7  C          7.9230    0.9110   -0.2640 C.2     1  UNL1        0.0080
      8  C          7.4870   -1.3890    0.2110 C.2     1  UNL1        0.0540
      9  C          8.4880    0.5220   -1.4650 C.2     1  UNL1        0.0510
     10  C          8.0590   -1.7760   -1.0050 C.2     1  UNL1        0.1660
     11  C          8.5630   -0.8130   -1.8500 C.2     1  UNL1        0.1650
     12  O          8.2510   -3.0030   -1.6040 O.2     1  UNL1       -0.4540
     13  O          9.0610   -1.4750   -2.9610 O.2     1  UNL1       -0.4540
     14  C          8.9650   -2.8710   -2.8060 C.3     1  UNL1        0.4680
@<TRIPOS>BOND
     1    13    14    1
     2    13    11    1
     3    14    12    1
     4    11     9    2
     5    11    10    1
     6    12    10    1
     7     9     7    1
     8    10     8    2
     9     7     6    2
    10     8     6    1
    11     6     5    1
    12     3     2    1
    13     2     1    1
    14     2     4    2
    15     5     1    1
