@<TRIPOS>MOLECULE
/home/cewinharhar/GITHUB/reincatalyze/data/processed/docking_pred/2023-May-30-2130_sub9_nm5_bs15_s42_ex16_mel10_mts10000_k50_ec05_g099_lra3e-4_lrc3e-3/f6b0a6d65051a5b20d9eb350202399160ef0f891_ligand_9.pdbqt
 14 15 0 0 0
SMALL
GASTEIGER

@<TRIPOS>ATOM
      1  C          5.7880    1.4510   -0.3280 C.3     1  UNL1        0.0800
      2  C          5.1580    1.3540    1.0190 C.2     1  UNL1        0.1300
      3  C          5.5430    0.2900    1.9850 C.3     1  UNL1        0.0870
      4  O          4.3030    2.1500    1.3700 O.2     1  UNL1       -0.3000
      5  C          7.2790    1.1860   -0.2590 C.3     1  UNL1        0.0430
      6  C          7.6320   -0.1100   -0.8660 C.2     1  UNL1       -0.0440
      7  C          7.6960   -0.2760   -2.2540 C.2     1  UNL1        0.0080
      8  C          7.9090   -1.1890   -0.0570 C.2     1  UNL1        0.0540
      9  C          8.0330   -1.5160   -2.7660 C.2     1  UNL1        0.0510
     10  C          8.2510   -2.4390   -0.5800 C.2     1  UNL1        0.1660
     11  C          8.3130   -2.6040   -1.9460 C.2     1  UNL1        0.1650
     12  O          8.5660   -3.6480    0.0040 O.2     1  UNL1       -0.4540
     13  O          8.6690   -3.9240   -2.1750 O.2     1  UNL1       -0.4540
     14  C          8.9280   -4.5970   -0.9660 C.3     1  UNL1        0.4680
@<TRIPOS>BOND
     1     9     7    1
     2     9    11    2
     3     7     6    2
     4    13    11    1
     5    13    14    1
     6    11    10    1
     7    14    12    1
     8     6     5    1
     9     6     8    1
    10    10     8    2
    11    10    12    1
    12     1     5    1
    13     1     2    1
    14     2     4    2
    15     2     3    1
