@<TRIPOS>MOLECULE
/home/cewinharhar/GITHUB/reincatalyze/data/processed/docking_pred/2023-May-30-2130_sub9_nm5_bs15_s42_ex16_mel10_mts10000_k50_ec05_g099_lra3e-4_lrc3e-3/f6e3ea477952fa895fac814ddb6280364cb1460b_ligand_9.pdbqt
 14 15 0 0 0
SMALL
GASTEIGER

@<TRIPOS>ATOM
      1  C          5.4610   -0.0060    2.0120 C.3     1  UNL1        0.0800
      2  C          4.5790    1.1640    1.7440 C.2     1  UNL1        0.1300
      3  C          4.8870    2.1430    0.6670 C.3     1  UNL1        0.0870
      4  O          3.5720    1.3550    2.4060 O.2     1  UNL1       -0.3000
      5  C          6.8800    0.2570    1.5500 C.3     1  UNL1        0.0430
      6  C          7.3000   -0.6940    0.5050 C.2     1  UNL1       -0.0440
      7  C          7.1800   -0.3890   -0.8550 C.2     1  UNL1        0.0080
      8  C          7.8250   -1.9150    0.8650 C.2     1  UNL1        0.0540
      9  C          7.5920   -1.3210   -1.7910 C.2     1  UNL1        0.0510
     10  C          8.2400   -2.8530   -0.0850 C.2     1  UNL1        0.1660
     11  C          8.1220   -2.5530   -1.4240 C.2     1  UNL1        0.1650
     12  O          8.7850   -4.1150    0.0170 O.2     1  UNL1       -0.4540
     13  O          8.6030   -3.6490   -2.1240 O.2     1  UNL1       -0.4540
     14  C          9.1170   -4.6250   -1.2490 C.3     1  UNL1        0.4680
@<TRIPOS>BOND
     1    13    11    1
     2    13    14    1
     3     9    11    2
     4     9     7    1
     5    11    10    1
     6    14    12    1
     7     7     6    2
     8    10    12    1
     9    10     8    2
    10     6     8    1
    11     6     5    1
    12     3     2    1
    13     5     1    1
    14     2     1    1
    15     2     4    2
