@<TRIPOS>MOLECULE
/home/cewinharhar/GITHUB/reincatalyze/data/processed/docking_pred/2023-May-30-2130_sub9_nm5_bs15_s42_ex16_mel10_mts10000_k50_ec05_g099_lra3e-4_lrc3e-3/f9550a52c30547fdb3e6e224a3b8a38c5560e948_ligand_9.pdbqt
 14 15 0 0 0
SMALL
GASTEIGER

@<TRIPOS>ATOM
      1  C          5.9670    1.5980    1.1200 C.3     1  UNL1        0.0800
      2  C          5.4610    0.4780    1.9620 C.2     1  UNL1        0.1300
      3  C          6.2930   -0.7220    2.2470 C.3     1  UNL1        0.0870
      4  O          4.3400    0.5120    2.4440 O.2     1  UNL1       -0.3000
      5  C          5.6990    1.3460   -0.3510 C.3     1  UNL1        0.0430
      6  C          6.8030    0.6050   -0.9870 C.2     1  UNL1       -0.0440
      7  C          8.1350    1.0160   -0.8540 C.2     1  UNL1        0.0080
      8  C          6.5300   -0.5200   -1.7310 C.2     1  UNL1        0.0540
      9  C          9.1290    0.2810   -1.4740 C.2     1  UNL1        0.0510
     10  C          7.5390   -1.2600   -2.3550 C.2     1  UNL1        0.1660
     11  C          8.8490   -0.8560   -2.2250 C.2     1  UNL1        0.1650
     12  O          7.5250   -2.3960   -3.1370 O.2     1  UNL1       -0.4540
     13  O          9.6200   -1.7620   -2.9360 O.2     1  UNL1       -0.4540
     14  C          8.8300   -2.8060   -3.4540 C.3     1  UNL1        0.4680
@<TRIPOS>BOND
     1    14    12    1
     2    14    13    1
     3    12    10    1
     4    13    11    1
     5    10    11    2
     6    10     8    1
     7    11     9    1
     8     8     6    2
     9     9     7    2
    10     6     7    1
    11     6     5    1
    12     5     1    1
    13     1     2    1
    14     2     3    1
    15     2     4    2
