@<TRIPOS>MOLECULE
/home/cewinharhar/GITHUB/reincatalyze/data/processed/docking_pred/2023-May-30-2130_sub9_nm5_bs15_s42_ex16_mel10_mts10000_k50_ec05_g099_lra3e-4_lrc3e-3/f9550a52c30547fdb3e6e224a3b8a38c5560e948_ligand_9.pdbqt
 14 15 0 0 0
SMALL
GASTEIGER

@<TRIPOS>ATOM
      1  C          8.1240   -2.4810   -3.6080 C.3     1  UNL1        0.0800
      2  C          9.2380   -3.4530   -3.4300 C.2     1  UNL1        0.1300
      3  C          8.9910   -4.9180   -3.3570 C.3     1  UNL1        0.0870
      4  O         10.3930   -3.0720   -3.3380 O.2     1  UNL1       -0.3000
      5  C          8.5190   -1.0980   -3.1290 C.3     1  UNL1        0.0430
      6  C          7.7400   -0.6850   -1.9470 C.2     1  UNL1       -0.0440
      7  C          6.8460    0.3900   -1.9980 C.2     1  UNL1        0.0080
      8  C          7.8860   -1.3680   -0.7620 C.2     1  UNL1        0.0540
      9  C          6.1420    0.7310   -0.8570 C.2     1  UNL1        0.0510
     10  C          7.1720   -1.0200    0.3880 C.2     1  UNL1        0.1660
     11  C          6.2930    0.0390    0.3400 C.2     1  UNL1        0.1650
     12  O          7.1410   -1.5340    1.6680 O.2     1  UNL1       -0.4540
     13  O          5.7340    0.1540    1.6030 O.2     1  UNL1       -0.4540
     14  C          6.1760   -0.8800    2.4510 C.3     1  UNL1        0.4680
@<TRIPOS>BOND
     1     1     2    1
     2     1     5    1
     3     2     3    1
     4     2     4    2
     5     5     6    1
     6     7     6    2
     7     7     9    1
     8     6     8    1
     9     9    11    2
    10     8    10    2
    11    11    10    1
    12    11    13    1
    13    10    12    1
    14    13    14    1
    15    12    14    1
