@<TRIPOS>MOLECULE
/home/cewinharhar/GITHUB/reincatalyze/data/processed/docking_pred/2023-May-30-2130_sub9_nm5_bs15_s42_ex16_mel10_mts10000_k50_ec05_g099_lra3e-4_lrc3e-3/f9550a52c30547fdb3e6e224a3b8a38c5560e948_ligand_9.pdbqt
 14 15 0 0 0
SMALL
GASTEIGER

@<TRIPOS>ATOM
      1  C          5.7510   -0.1450    1.5350 C.3     1  UNL1        0.0800
      2  C          4.8540    1.0440    1.5140 C.2     1  UNL1        0.1300
      3  C          5.0360    2.1420    0.5260 C.3     1  UNL1        0.0870
      4  O          3.9380    1.1530    2.3120 O.2     1  UNL1       -0.3000
      5  C          7.1830    0.2410    1.2220 C.3     1  UNL1        0.0430
      6  C          7.6030   -0.2490   -0.1030 C.2     1  UNL1       -0.0440
      7  C          7.8550    0.6290   -1.1640 C.2     1  UNL1        0.0080
      8  C          7.7580   -1.6010   -0.3140 C.2     1  UNL1        0.0540
      9  C          8.2470    0.1120   -2.3850 C.2     1  UNL1        0.0510
     10  C          8.1550   -2.1190   -1.5500 C.2     1  UNL1        0.1660
     11  C          8.4020   -1.2550   -2.5940 C.2     1  UNL1        0.1650
     12  O          8.3760   -3.4010   -2.0040 O.2     1  UNL1       -0.4540
     13  O          8.7730   -2.0340   -3.6790 O.2     1  UNL1       -0.4540
     14  C          8.8580   -3.3930   -3.3230 C.3     1  UNL1        0.4680
@<TRIPOS>BOND
     1    13    14    1
     2    13    11    1
     3    14    12    1
     4    11     9    2
     5    11    10    1
     6     9     7    1
     7    12    10    1
     8    10     8    2
     9     7     6    2
    10     8     6    1
    11     6     5    1
    12     3     2    1
    13     5     1    1
    14     2     1    1
    15     2     4    2
