@<TRIPOS>MOLECULE
/home/cewinharhar/GITHUB/reincatalyze/data/processed/docking_pred/2023-May-30-2130_sub9_nm5_bs15_s42_ex16_mel10_mts10000_k50_ec05_g099_lra3e-4_lrc3e-3/f9550a52c30547fdb3e6e224a3b8a38c5560e948_ligand_9.pdbqt
 14 15 0 0 0
SMALL
GASTEIGER

@<TRIPOS>ATOM
      1  C          5.7270    0.7690    0.4100 C.3     1  UNL1        0.0800
      2  C          5.4020    0.2860    1.7810 C.2     1  UNL1        0.1300
      3  C          6.2490   -0.7220    2.4740 C.3     1  UNL1        0.0870
      4  O          4.4250    0.7060    2.3790 O.2     1  UNL1       -0.3000
      5  C          7.2250    0.8300    0.1870 C.3     1  UNL1        0.0430
      6  C          7.6460   -0.0260   -0.9370 C.2     1  UNL1       -0.0440
      7  C          7.8780    0.5020   -2.2120 C.2     1  UNL1        0.0080
      8  C          7.8210   -1.3760   -0.7380 C.2     1  UNL1        0.0540
      9  C          8.2730   -0.3490   -3.2280 C.2     1  UNL1        0.0510
     10  C          8.2200   -2.2320   -1.7690 C.2     1  UNL1        0.1660
     11  C          8.4480   -1.7140   -3.0240 C.2     1  UNL1        0.1650
     12  O          8.4580   -3.5890   -1.8240 O.2     1  UNL1       -0.4540
     13  O          8.8260   -2.7750   -3.8330 O.2     1  UNL1       -0.4540
     14  C          8.9330   -3.9660   -3.0910 C.3     1  UNL1        0.4680
@<TRIPOS>BOND
     1    13    14    1
     2    13    11    1
     3     9    11    2
     4     9     7    1
     5    14    12    1
     6    11    10    1
     7     7     6    2
     8    12    10    1
     9    10     8    2
    10     6     8    1
    11     6     5    1
    12     5     1    1
    13     1     2    1
    14     2     4    2
    15     2     3    1
