MODEL 1
REMARK VINA RESULT:      -8.1      0.000      0.000
REMARK SMILES CC(=O)CCc1ccc2c(c1)OCO2
REMARK SMILES IDX 4 1 2 2 1 3 3 4 5 5 6 6 7 7 11 8 8 9 10 10 9 11 12 12 14 13
REMARK SMILES IDX 13 14
REMARK H PARENT
REMARK Flexibility Score: inf
ROOT
ATOM      1  C   UNL     1       5.967   1.598   1.120  1.00  0.00     0.080 C 
ENDROOT
BRANCH   1   2
ATOM      2  C   UNL     1       5.461   0.478   1.962  1.00  0.00     0.130 C 
ATOM      3  C   UNL     1       6.293  -0.722   2.247  1.00  0.00     0.087 C 
ATOM      4  O   UNL     1       4.340   0.512   2.444  1.00  0.00    -0.300 OA
ENDBRANCH   1   2
BRANCH   1   5
ATOM      5  C   UNL     1       5.699   1.346  -0.351  1.00  0.00     0.043 C 
BRANCH   5   6
ATOM      6  C   UNL     1       6.803   0.605  -0.987  1.00  0.00    -0.044 A 
ATOM      7  C   UNL     1       8.135   1.016  -0.854  1.00  0.00     0.008 A 
ATOM      8  C   UNL     1       6.530  -0.520  -1.731  1.00  0.00     0.054 A 
ATOM      9  C   UNL     1       9.129   0.281  -1.474  1.00  0.00     0.051 A 
ATOM     10  C   UNL     1       7.539  -1.260  -2.355  1.00  0.00     0.166 A 
ATOM     11  C   UNL     1       8.849  -0.856  -2.225  1.00  0.00     0.165 A 
ATOM     12  O   UNL     1       7.525  -2.396  -3.137  1.00  0.00    -0.454 OA
ATOM     13  O   UNL     1       9.620  -1.762  -2.936  1.00  0.00    -0.454 OA
ATOM     14  C   UNL     1       8.830  -2.806  -3.454  1.00  0.00     0.468 C 
ENDBRANCH   5   6
ENDBRANCH   1   5
TORSDOF 3
ENDMDL
MODEL 2
REMARK VINA RESULT:      -7.3      1.234      1.374
REMARK SMILES CC(=O)CCc1ccc2c(c1)OCO2
REMARK SMILES IDX 4 1 2 2 1 3 3 4 5 5 6 6 7 7 11 8 8 9 10 10 9 11 12 12 14 13
REMARK SMILES IDX 13 14
REMARK H PARENT
REMARK Flexibility Score: inf
ROOT
ATOM      1  C   UNL     1       5.727   0.769   0.410  1.00  0.00     0.080 C 
ENDROOT
BRANCH   1   2
ATOM      2  C   UNL     1       5.402   0.286   1.781  1.00  0.00     0.130 C 
ATOM      3  C   UNL     1       6.249  -0.722   2.474  1.00  0.00     0.087 C 
ATOM      4  O   UNL     1       4.425   0.706   2.379  1.00  0.00    -0.300 OA
ENDBRANCH   1   2
BRANCH   1   5
ATOM      5  C   UNL     1       7.225   0.830   0.187  1.00  0.00     0.043 C 
BRANCH   5   6
ATOM      6  C   UNL     1       7.646  -0.026  -0.937  1.00  0.00    -0.044 A 
ATOM      7  C   UNL     1       7.878   0.502  -2.212  1.00  0.00     0.008 A 
ATOM      8  C   UNL     1       7.821  -1.376  -0.738  1.00  0.00     0.054 A 
ATOM      9  C   UNL     1       8.273  -0.349  -3.228  1.00  0.00     0.051 A 
ATOM     10  C   UNL     1       8.220  -2.232  -1.769  1.00  0.00     0.166 A 
ATOM     11  C   UNL     1       8.448  -1.714  -3.024  1.00  0.00     0.165 A 
ATOM     12  O   UNL     1       8.458  -3.589  -1.824  1.00  0.00    -0.454 OA
ATOM     13  O   UNL     1       8.826  -2.775  -3.833  1.00  0.00    -0.454 OA
ATOM     14  C   UNL     1       8.933  -3.966  -3.091  1.00  0.00     0.468 C 
ENDBRANCH   5   6
ENDBRANCH   1   5
TORSDOF 3
ENDMDL
MODEL 3
REMARK VINA RESULT:      -7.2      1.240      1.672
REMARK SMILES CC(=O)CCc1ccc2c(c1)OCO2
REMARK SMILES IDX 4 1 2 2 1 3 3 4 5 5 6 6 7 7 11 8 8 9 10 10 9 11 12 12 14 13
REMARK SMILES IDX 13 14
REMARK H PARENT
REMARK Flexibility Score: inf
ROOT
ATOM      1  C   UNL     1       5.751  -0.145   1.535  1.00  0.00     0.080 C 
ENDROOT
BRANCH   1   2
ATOM      2  C   UNL     1       4.854   1.044   1.514  1.00  0.00     0.130 C 
ATOM      3  C   UNL     1       5.036   2.142   0.526  1.00  0.00     0.087 C 
ATOM      4  O   UNL     1       3.938   1.153   2.312  1.00  0.00    -0.300 OA
ENDBRANCH   1   2
BRANCH   1   5
ATOM      5  C   UNL     1       7.183   0.241   1.222  1.00  0.00     0.043 C 
BRANCH   5   6
ATOM      6  C   UNL     1       7.603  -0.249  -0.103  1.00  0.00    -0.044 A 
ATOM      7  C   UNL     1       7.855   0.629  -1.164  1.00  0.00     0.008 A 
ATOM      8  C   UNL     1       7.758  -1.601  -0.314  1.00  0.00     0.054 A 
ATOM      9  C   UNL     1       8.247   0.112  -2.385  1.00  0.00     0.051 A 
ATOM     10  C   UNL     1       8.155  -2.119  -1.550  1.00  0.00     0.166 A 
ATOM     11  C   UNL     1       8.402  -1.255  -2.594  1.00  0.00     0.165 A 
ATOM     12  O   UNL     1       8.376  -3.401  -2.004  1.00  0.00    -0.454 OA
ATOM     13  O   UNL     1       8.773  -2.034  -3.679  1.00  0.00    -0.454 OA
ATOM     14  C   UNL     1       8.858  -3.393  -3.323  1.00  0.00     0.468 C 
ENDBRANCH   5   6
ENDBRANCH   1   5
TORSDOF 3
ENDMDL
MODEL 4
REMARK VINA RESULT:      -7.2      1.579      5.557
REMARK SMILES CC(=O)CCc1ccc2c(c1)OCO2
REMARK SMILES IDX 4 1 2 2 1 3 3 4 5 5 6 6 7 7 11 8 8 9 10 10 9 11 12 12 14 13
REMARK SMILES IDX 13 14
REMARK H PARENT
REMARK Flexibility Score: inf
ROOT
ATOM      1  C   UNL     1       8.085  -2.493  -3.545  1.00  0.00     0.080 C 
ENDROOT
BRANCH   1   2
ATOM      2  C   UNL     1       9.197  -3.472  -3.386  1.00  0.00     0.130 C 
ATOM      3  C   UNL     1       8.942  -4.934  -3.291  1.00  0.00     0.087 C 
ATOM      4  O   UNL     1      10.357  -3.098  -3.329  1.00  0.00    -0.300 OA
ENDBRANCH   1   2
BRANCH   1   5
ATOM      5  C   UNL     1       8.469  -1.131  -3.001  1.00  0.00     0.043 C 
BRANCH   5   6
ATOM      6  C   UNL     1       7.702  -0.791  -1.790  1.00  0.00    -0.044 A 
ATOM      7  C   UNL     1       7.762  -1.583  -0.637  1.00  0.00     0.008 A 
ATOM      8  C   UNL     1       6.906   0.332  -1.779  1.00  0.00     0.054 A 
ATOM      9  C   UNL     1       7.020  -1.214   0.470  1.00  0.00     0.051 A 
ATOM     10  C   UNL     1       6.159   0.702  -0.657  1.00  0.00     0.166 A 
ATOM     11  C   UNL     1       6.216  -0.078   0.477  1.00  0.00     0.165 A 
ATOM     12  O   UNL     1       5.306   1.754  -0.401  1.00  0.00    -0.454 OA
ATOM     13  O   UNL     1       5.389   0.519   1.416  1.00  0.00    -0.454 OA
ATOM     14  C   UNL     1       4.863   1.731   0.932  1.00  0.00     0.468 C 
ENDBRANCH   5   6
ENDBRANCH   1   5
TORSDOF 3
ENDMDL
MODEL 5
REMARK VINA RESULT:      -7.1      1.604      5.436
REMARK SMILES CC(=O)CCc1ccc2c(c1)OCO2
REMARK SMILES IDX 4 1 2 2 1 3 3 4 5 5 6 6 7 7 11 8 8 9 10 10 9 11 12 12 14 13
REMARK SMILES IDX 13 14
REMARK H PARENT
REMARK Flexibility Score: inf
ROOT
ATOM      1  C   UNL     1       8.124  -2.481  -3.608  1.00  0.00     0.080 C 
ENDROOT
BRANCH   1   2
ATOM      2  C   UNL     1       9.238  -3.453  -3.430  1.00  0.00     0.130 C 
ATOM      3  C   UNL     1       8.991  -4.918  -3.357  1.00  0.00     0.087 C 
ATOM      4  O   UNL     1      10.393  -3.072  -3.338  1.00  0.00    -0.300 OA
ENDBRANCH   1   2
BRANCH   1   5
ATOM      5  C   UNL     1       8.519  -1.098  -3.129  1.00  0.00     0.043 C 
BRANCH   5   6
ATOM      6  C   UNL     1       7.740  -0.685  -1.947  1.00  0.00    -0.044 A 
ATOM      7  C   UNL     1       6.846   0.390  -1.998  1.00  0.00     0.008 A 
ATOM      8  C   UNL     1       7.886  -1.368  -0.762  1.00  0.00     0.054 A 
ATOM      9  C   UNL     1       6.142   0.731  -0.857  1.00  0.00     0.051 A 
ATOM     10  C   UNL     1       7.172  -1.020   0.388  1.00  0.00     0.166 A 
ATOM     11  C   UNL     1       6.293   0.039   0.340  1.00  0.00     0.165 A 
ATOM     12  O   UNL     1       7.141  -1.534   1.668  1.00  0.00    -0.454 OA
ATOM     13  O   UNL     1       5.734   0.154   1.603  1.00  0.00    -0.454 OA
ATOM     14  C   UNL     1       6.176  -0.880   2.451  1.00  0.00     0.468 C 
ENDBRANCH   5   6
ENDBRANCH   1   5
TORSDOF 3
ENDMDL
