MODEL 1
REMARK VINA RESULT:      -7.6      0.000      0.000
REMARK SMILES CC(=O)CCc1ccc2c(c1)OCO2
REMARK SMILES IDX 4 1 2 2 1 3 3 4 5 5 6 6 7 7 11 8 8 9 10 10 9 11 12 12 14 13
REMARK SMILES IDX 13 14
REMARK H PARENT
REMARK Flexibility Score: inf
ROOT
ATOM      1  C   UNL     1       5.554   1.889   1.303  1.00  0.00     0.080 C 
ENDROOT
BRANCH   1   2
ATOM      2  C   UNL     1       5.108   0.669   2.031  1.00  0.00     0.130 C 
ATOM      3  C   UNL     1       5.995  -0.514   2.190  1.00  0.00     0.087 C 
ATOM      4  O   UNL     1       3.992   0.605   2.522  1.00  0.00    -0.300 OA
ENDBRANCH   1   2
BRANCH   1   5
ATOM      5  C   UNL     1       5.419   1.716  -0.197  1.00  0.00     0.043 C 
BRANCH   5   6
ATOM      6  C   UNL     1       6.581   1.015  -0.773  1.00  0.00    -0.044 A 
ATOM      7  C   UNL     1       7.890   1.451  -0.538  1.00  0.00     0.008 A 
ATOM      8  C   UNL     1       6.386  -0.096  -1.560  1.00  0.00     0.054 A 
ATOM      9  C   UNL     1       8.941   0.754  -1.104  1.00  0.00     0.051 A 
ATOM     10  C   UNL     1       7.452  -0.799  -2.130  1.00  0.00     0.166 A 
ATOM     11  C   UNL     1       8.740  -0.370  -1.900  1.00  0.00     0.165 A 
ATOM     12  O   UNL     1       7.518  -1.914  -2.937  1.00  0.00    -0.454 OA
ATOM     13  O   UNL     1       9.580  -1.241  -2.577  1.00  0.00    -0.454 OA
ATOM     14  C   UNL     1       8.851  -2.288  -3.173  1.00  0.00     0.468 C 
ENDBRANCH   5   6
ENDBRANCH   1   5
TORSDOF 3
ENDMDL
MODEL 2
REMARK VINA RESULT:      -7.4      1.917      2.374
REMARK SMILES CC(=O)CCc1ccc2c(c1)OCO2
REMARK SMILES IDX 4 1 2 2 1 3 3 4 5 5 6 6 7 7 11 8 8 9 10 10 9 11 12 12 14 13
REMARK SMILES IDX 13 14
REMARK H PARENT
REMARK Flexibility Score: inf
ROOT
ATOM      1  C   UNL     1       5.808   1.402  -0.253  1.00  0.00     0.080 C 
ENDROOT
BRANCH   1   2
ATOM      2  C   UNL     1       5.154   1.271   1.079  1.00  0.00     0.130 C 
ATOM      3  C   UNL     1       5.361   0.072   1.935  1.00  0.00     0.087 C 
ATOM      4  O   UNL     1       4.425   2.150   1.509  1.00  0.00    -0.300 OA
ENDBRANCH   1   2
BRANCH   1   5
ATOM      5  C   UNL     1       7.294   1.114  -0.168  1.00  0.00     0.043 C 
BRANCH   5   6
ATOM      6  C   UNL     1       7.638  -0.171  -0.802  1.00  0.00    -0.044 A 
ATOM      7  C   UNL     1       7.664  -0.319  -2.193  1.00  0.00     0.008 A 
ATOM      8  C   UNL     1       7.945  -1.258  -0.015  1.00  0.00     0.054 A 
ATOM      9  C   UNL     1       7.995  -1.549  -2.731  1.00  0.00     0.051 A 
ATOM     10  C   UNL     1       8.280  -2.500  -0.564  1.00  0.00     0.166 A 
ATOM     11  C   UNL     1       8.305  -2.646  -1.934  1.00  0.00     0.165 A 
ATOM     12  O   UNL     1       8.619  -3.714  -0.006  1.00  0.00    -0.454 OA
ATOM     13  O   UNL     1       8.663  -3.961  -2.190  1.00  0.00    -0.454 OA
ATOM     14  C   UNL     1       8.960  -4.648  -0.997  1.00  0.00     0.468 C 
ENDBRANCH   5   6
ENDBRANCH   1   5
TORSDOF 3
ENDMDL
MODEL 3
REMARK VINA RESULT:      -7.2      2.074      2.609
REMARK SMILES CC(=O)CCc1ccc2c(c1)OCO2
REMARK SMILES IDX 4 1 2 2 1 3 3 4 5 5 6 6 7 7 11 8 8 9 10 10 9 11 12 12 14 13
REMARK SMILES IDX 13 14
REMARK H PARENT
REMARK Flexibility Score: inf
ROOT
ATOM      1  C   UNL     1       5.558   0.027   1.975  1.00  0.00     0.080 C 
ENDROOT
BRANCH   1   2
ATOM      2  C   UNL     1       4.664   1.173   1.648  1.00  0.00     0.130 C 
ATOM      3  C   UNL     1       4.986   2.127   0.553  1.00  0.00     0.087 C 
ATOM      4  O   UNL     1       3.634   1.363   2.274  1.00  0.00    -0.300 OA
ENDBRANCH   1   2
BRANCH   1   5
ATOM      5  C   UNL     1       6.973   0.277   1.491  1.00  0.00     0.043 C 
BRANCH   5   6
ATOM      6  C   UNL     1       7.371  -0.685   0.448  1.00  0.00    -0.044 A 
ATOM      7  C   UNL     1       7.259  -0.379  -0.913  1.00  0.00     0.008 A 
ATOM      8  C   UNL     1       7.870  -1.916   0.810  1.00  0.00     0.054 A 
ATOM      9  C   UNL     1       7.650  -1.322  -1.847  1.00  0.00     0.051 A 
ATOM     10  C   UNL     1       8.264  -2.865  -0.138  1.00  0.00     0.166 A 
ATOM     11  C   UNL     1       8.153  -2.565  -1.477  1.00  0.00     0.165 A 
ATOM     12  O   UNL     1       8.781  -4.139  -0.033  1.00  0.00    -0.454 OA
ATOM     13  O   UNL     1       8.610  -3.672  -2.175  1.00  0.00    -0.454 OA
ATOM     14  C   UNL     1       9.103  -4.658  -1.298  1.00  0.00     0.468 C 
ENDBRANCH   5   6
ENDBRANCH   1   5
TORSDOF 3
ENDMDL
MODEL 4
REMARK VINA RESULT:      -7.1      1.239      1.431
REMARK SMILES CC(=O)CCc1ccc2c(c1)OCO2
REMARK SMILES IDX 4 1 2 2 1 3 3 4 5 5 6 6 7 7 11 8 8 9 10 10 9 11 12 12 14 13
REMARK SMILES IDX 13 14
REMARK H PARENT
REMARK Flexibility Score: inf
ROOT
ATOM      1  C   UNL     1       6.335   1.265   0.853  1.00  0.00     0.080 C 
ENDROOT
BRANCH   1   2
ATOM      2  C   UNL     1       5.667   0.454   1.908  1.00  0.00     0.130 C 
ATOM      3  C   UNL     1       6.304  -0.763   2.478  1.00  0.00     0.087 C 
ATOM      4  O   UNL     1       4.568   0.766   2.338  1.00  0.00    -0.300 OA
ENDBRANCH   1   2
BRANCH   1   5
ATOM      5  C   UNL     1       5.816   0.910  -0.526  1.00  0.00     0.043 C 
BRANCH   5   6
ATOM      6  C   UNL     1       6.788   0.102  -1.284  1.00  0.00    -0.044 A 
ATOM      7  C   UNL     1       7.508   0.637  -2.358  1.00  0.00     0.008 A 
ATOM      8  C   UNL     1       7.002  -1.212  -0.934  1.00  0.00     0.054 A 
ATOM      9  C   UNL     1       8.407  -0.169  -3.032  1.00  0.00     0.051 A 
ATOM     10  C   UNL     1       7.913  -2.023  -1.618  1.00  0.00     0.166 A 
ATOM     11  C   UNL     1       8.620  -1.497  -2.676  1.00  0.00     0.165 A 
ATOM     12  O   UNL     1       8.298  -3.338  -1.466  1.00  0.00    -0.454 OA
ATOM     13  O   UNL     1       9.435  -2.511  -3.156  1.00  0.00    -0.454 OA
ATOM     14  C   UNL     1       9.329  -3.668  -2.361  1.00  0.00     0.468 C 
ENDBRANCH   5   6
ENDBRANCH   1   5
TORSDOF 3
ENDMDL
MODEL 5
REMARK VINA RESULT:      -6.9      1.945      2.673
REMARK SMILES CC(=O)CCc1ccc2c(c1)OCO2
REMARK SMILES IDX 4 1 2 2 1 3 3 4 5 5 6 6 7 7 11 8 8 9 10 10 9 11 12 12 14 13
REMARK SMILES IDX 13 14
REMARK H PARENT
REMARK Flexibility Score: inf
ROOT
ATOM      1  C   UNL     1       6.968   0.971   0.882  1.00  0.00     0.080 C 
ENDROOT
BRANCH   1   2
ATOM      2  C   UNL     1       5.544   1.408   0.856  1.00  0.00     0.130 C 
ATOM      3  C   UNL     1       4.976   2.150  -0.302  1.00  0.00     0.087 C 
ATOM      4  O   UNL     1       4.797   1.167   1.791  1.00  0.00    -0.300 OA
ENDBRANCH   1   2
BRANCH   1   5
ATOM      5  C   UNL     1       7.595   1.059  -0.495  1.00  0.00     0.043 C 
BRANCH   5   6
ATOM      6  C   UNL     1       7.911  -0.275  -1.038  1.00  0.00    -0.044 A 
ATOM      7  C   UNL     1       8.065  -0.490  -2.412  1.00  0.00     0.008 A 
ATOM      8  C   UNL     1       8.063  -1.341  -0.181  1.00  0.00     0.054 A 
ATOM      9  C   UNL     1       8.361  -1.763  -2.863  1.00  0.00     0.051 A 
ATOM     10  C   UNL     1       8.363  -2.627  -0.642  1.00  0.00     0.166 A 
ATOM     11  C   UNL     1       8.514  -2.839  -1.995  1.00  0.00     0.165 A 
ATOM     12  O   UNL     1       8.560  -3.832  -0.003  1.00  0.00    -0.454 OA
ATOM     13  O   UNL     1       8.803  -4.184  -2.159  1.00  0.00    -0.454 OA
ATOM     14  C   UNL     1       8.932  -4.832  -0.916  1.00  0.00     0.468 C 
ENDBRANCH   5   6
ENDBRANCH   1   5
TORSDOF 3
ENDMDL
