@<TRIPOS>MOLECULE
/home/cewinharhar/GITHUB/reincatalyze/data/processed/docking_pred/2023-May-30-2130_sub9_nm5_bs15_s42_ex16_mel10_mts10000_k50_ec05_g099_lra3e-4_lrc3e-3/faf685cb0c2e1ff185f0c147bdf23d27aa2a460b_ligand_9.pdbqt
 14 15 0 0 0
SMALL
GASTEIGER

@<TRIPOS>ATOM
      1  C          6.9680    0.9710    0.8820 C.3     1  UNL1        0.0800
      2  C          5.5440    1.4080    0.8560 C.2     1  UNL1        0.1300
      3  C          4.9760    2.1500   -0.3020 C.3     1  UNL1        0.0870
      4  O          4.7970    1.1670    1.7910 O.2     1  UNL1       -0.3000
      5  C          7.5950    1.0590   -0.4950 C.3     1  UNL1        0.0430
      6  C          7.9110   -0.2750   -1.0380 C.2     1  UNL1       -0.0440
      7  C          8.0650   -0.4900   -2.4120 C.2     1  UNL1        0.0080
      8  C          8.0630   -1.3410   -0.1810 C.2     1  UNL1        0.0540
      9  C          8.3610   -1.7630   -2.8630 C.2     1  UNL1        0.0510
     10  C          8.3630   -2.6270   -0.6420 C.2     1  UNL1        0.1660
     11  C          8.5140   -2.8390   -1.9950 C.2     1  UNL1        0.1650
     12  O          8.5600   -3.8320   -0.0030 O.2     1  UNL1       -0.4540
     13  O          8.8030   -4.1840   -2.1590 O.2     1  UNL1       -0.4540
     14  C          8.9320   -4.8320   -0.9160 C.3     1  UNL1        0.4680
@<TRIPOS>BOND
     1     9     7    1
     2     9    11    2
     3     7     6    2
     4    13    11    1
     5    13    14    1
     6    11    10    1
     7     6     5    1
     8     6     8    1
     9    14    12    1
    10    10     8    2
    11    10    12    1
    12     5     1    1
    13     3     2    1
    14     2     1    1
    15     2     4    2
