@<TRIPOS>MOLECULE
/home/cewinharhar/GITHUB/reincatalyze/data/processed/docking_pred/2023-May-30-2130_sub9_nm5_bs15_s42_ex16_mel10_mts10000_k50_ec05_g099_lra3e-4_lrc3e-3/faf685cb0c2e1ff185f0c147bdf23d27aa2a460b_ligand_9.pdbqt
 14 15 0 0 0
SMALL
GASTEIGER

@<TRIPOS>ATOM
      1  C          6.3350    1.2650    0.8530 C.3     1  UNL1        0.0800
      2  C          5.6670    0.4540    1.9080 C.2     1  UNL1        0.1300
      3  C          6.3040   -0.7630    2.4780 C.3     1  UNL1        0.0870
      4  O          4.5680    0.7660    2.3380 O.2     1  UNL1       -0.3000
      5  C          5.8160    0.9100   -0.5260 C.3     1  UNL1        0.0430
      6  C          6.7880    0.1020   -1.2840 C.2     1  UNL1       -0.0440
      7  C          7.5080    0.6370   -2.3580 C.2     1  UNL1        0.0080
      8  C          7.0020   -1.2120   -0.9340 C.2     1  UNL1        0.0540
      9  C          8.4070   -0.1690   -3.0320 C.2     1  UNL1        0.0510
     10  C          7.9130   -2.0230   -1.6180 C.2     1  UNL1        0.1660
     11  C          8.6200   -1.4970   -2.6760 C.2     1  UNL1        0.1650
     12  O          8.2980   -3.3380   -1.4660 O.2     1  UNL1       -0.4540
     13  O          9.4350   -2.5110   -3.1560 O.2     1  UNL1       -0.4540
     14  C          9.3290   -3.6680   -2.3610 C.3     1  UNL1        0.4680
@<TRIPOS>BOND
     1    13    11    1
     2    13    14    1
     3     9    11    2
     4     9     7    1
     5    11    10    1
     6    14    12    1
     7     7     6    2
     8    10    12    1
     9    10     8    2
    10     6     8    1
    11     6     5    1
    12     5     1    1
    13     1     2    1
    14     2     4    2
    15     2     3    1
