@<TRIPOS>MOLECULE
/home/cewinharhar/GITHUB/reincatalyze/data/processed/docking_pred/2023-May-30-2130_sub9_nm5_bs15_s42_ex16_mel10_mts10000_k50_ec05_g099_lra3e-4_lrc3e-3/faf685cb0c2e1ff185f0c147bdf23d27aa2a460b_ligand_9.pdbqt
 14 15 0 0 0
SMALL
GASTEIGER

@<TRIPOS>ATOM
      1  C          5.5540    1.8890    1.3030 C.3     1  UNL1        0.0800
      2  C          5.1080    0.6690    2.0310 C.2     1  UNL1        0.1300
      3  C          5.9950   -0.5140    2.1900 C.3     1  UNL1        0.0870
      4  O          3.9920    0.6050    2.5220 O.2     1  UNL1       -0.3000
      5  C          5.4190    1.7160   -0.1970 C.3     1  UNL1        0.0430
      6  C          6.5810    1.0150   -0.7730 C.2     1  UNL1       -0.0440
      7  C          7.8900    1.4510   -0.5380 C.2     1  UNL1        0.0080
      8  C          6.3860   -0.0960   -1.5600 C.2     1  UNL1        0.0540
      9  C          8.9410    0.7540   -1.1040 C.2     1  UNL1        0.0510
     10  C          7.4520   -0.7990   -2.1300 C.2     1  UNL1        0.1660
     11  C          8.7400   -0.3700   -1.9000 C.2     1  UNL1        0.1650
     12  O          7.5180   -1.9140   -2.9370 O.2     1  UNL1       -0.4540
     13  O          9.5800   -1.2410   -2.5770 O.2     1  UNL1       -0.4540
     14  C          8.8510   -2.2880   -3.1730 C.3     1  UNL1        0.4680
@<TRIPOS>BOND
     1    14    12    1
     2    14    13    1
     3    12    10    1
     4    13    11    1
     5    10    11    2
     6    10     8    1
     7    11     9    1
     8     8     6    2
     9     9     7    2
    10     6     7    1
    11     6     5    1
    12     5     1    1
    13     1     2    1
    14     2     3    1
    15     2     4    2
