@<TRIPOS>MOLECULE
/home/cewinharhar/GITHUB/reincatalyze/data/processed/docking_pred/2023-May-30-2130_sub9_nm5_bs15_s42_ex16_mel10_mts10000_k50_ec05_g099_lra3e-4_lrc3e-3/fd751eb3811fc03d22e30b1993ea0072812fb772_ligand_9.pdbqt
 14 15 0 0 0
SMALL
GASTEIGER

@<TRIPOS>ATOM
      1  C          6.9560    1.0370    1.1690 C.3     1  UNL1        0.0800
      2  C          5.5010    1.2410    1.4120 C.2     1  UNL1        0.1300
      3  C          4.6870    2.1500    0.5610 C.3     1  UNL1        0.0870
      4  O          4.9310    0.6630    2.3230 O.2     1  UNL1       -0.3000
      5  C          7.2920    1.1640   -0.3040 C.3     1  UNL1        0.0430
      6  C          7.6410   -0.1380   -0.9000 C.2     1  UNL1       -0.0440
      7  C          7.6780   -0.3240   -2.2870 C.2     1  UNL1        0.0080
      8  C          7.9420   -1.2040   -0.0820 C.2     1  UNL1        0.0540
      9  C          8.0130   -1.5680   -2.7880 C.2     1  UNL1        0.0510
     10  C          8.2800   -2.4600   -0.5940 C.2     1  UNL1        0.1660
     11  C          8.3160   -2.6430   -1.9590 C.2     1  UNL1        0.1650
     12  O          8.6150   -3.6580    0.0000 O.2     1  UNL1       -0.4540
     13  O          8.6760   -3.9640   -2.1760 O.2     1  UNL1       -0.4540
     14  C          8.9630   -4.6190   -0.9630 C.3     1  UNL1        0.4680
@<TRIPOS>BOND
     1     9     7    1
     2     9    11    2
     3     7     6    2
     4    13    11    1
     5    13    14    1
     6    11    10    1
     7    14    12    1
     8     6     5    1
     9     6     8    1
    10    10     8    2
    11    10    12    1
    12     5     1    1
    13     3     2    1
    14     1     2    1
    15     2     4    2
