@<TRIPOS>MOLECULE
/home/cewinharhar/GITHUB/reincatalyze/data/processed/docking_pred/2023-May-30-2130_sub9_nm5_bs15_s42_ex16_mel10_mts10000_k50_ec05_g099_lra3e-4_lrc3e-3/fd751eb3811fc03d22e30b1993ea0072812fb772_ligand_9.pdbqt
 14 15 0 0 0
SMALL
GASTEIGER

@<TRIPOS>ATOM
      1  C          5.7410    1.1750   -0.3330 C.3     1  UNL1        0.0800
      2  C          5.3040    1.1550    1.0900 C.2     1  UNL1        0.1300
      3  C          5.4250   -0.0680    1.9280 C.3     1  UNL1        0.0870
      4  O          4.8290    2.1500    1.6140 O.2     1  UNL1       -0.3000
      5  C          7.2470    1.0390   -0.4480 C.3     1  UNL1        0.0430
      6  C          7.6370   -0.2690   -1.0030 C.2     1  UNL1       -0.0440
      7  C          7.7100   -0.4880   -2.3840 C.2     1  UNL1        0.0080
      8  C          7.9410   -1.3080   -0.1530 C.2     1  UNL1        0.0540
      9  C          8.0820   -1.7370   -2.8470 C.2     1  UNL1        0.0510
     10  C          8.3180   -2.5680   -0.6250 C.2     1  UNL1        0.1660
     11  C          8.3890   -2.7840   -1.9840 C.2     1  UNL1        0.1650
     12  O          8.6630   -3.7440    0.0060 O.2     1  UNL1       -0.4540
     13  O          8.7810   -4.1020   -2.1600 O.2     1  UNL1       -0.4540
     14  C          9.0540   -4.7210   -0.9250 C.3     1  UNL1        0.4680
@<TRIPOS>BOND
     1     9     7    1
     2     9    11    2
     3     7     6    2
     4    13    11    1
     5    13    14    1
     6    11    10    1
     7     6     5    1
     8     6     8    1
     9    14    12    1
    10    10     8    2
    11    10    12    1
    12     5     1    1
    13     1     2    1
    14     2     4    2
    15     2     3    1
