MODEL 1
REMARK VINA RESULT:      -7.6      0.000      0.000
REMARK SMILES CC(=O)CCc1ccc2c(c1)OCO2
REMARK SMILES IDX 4 1 2 2 1 3 3 4 5 5 6 6 7 7 11 8 8 9 10 10 9 11 12 12 14 13
REMARK SMILES IDX 13 14
REMARK H PARENT
REMARK Flexibility Score: inf
ROOT
ATOM      1  C   UNL     1       5.550   1.936   1.269  1.00  0.00     0.080 C 
ENDROOT
BRANCH   1   2
ATOM      2  C   UNL     1       5.122   0.718   2.012  1.00  0.00     0.130 C 
ATOM      3  C   UNL     1       6.034  -0.442   2.201  1.00  0.00     0.087 C 
ATOM      4  O   UNL     1       4.002   0.637   2.490  1.00  0.00    -0.300 OA
ENDBRANCH   1   2
BRANCH   1   5
ATOM      5  C   UNL     1       5.418   1.743  -0.228  1.00  0.00     0.043 C 
BRANCH   5   6
ATOM      6  C   UNL     1       6.581   1.035  -0.793  1.00  0.00    -0.044 A 
ATOM      7  C   UNL     1       7.891   1.462  -0.544  1.00  0.00     0.008 A 
ATOM      8  C   UNL     1       6.387  -0.076  -1.582  1.00  0.00     0.054 A 
ATOM      9  C   UNL     1       8.943   0.758  -1.100  1.00  0.00     0.051 A 
ATOM     10  C   UNL     1       7.454  -0.785  -2.141  1.00  0.00     0.166 A 
ATOM     11  C   UNL     1       8.743  -0.364  -1.898  1.00  0.00     0.165 A 
ATOM     12  O   UNL     1       7.521  -1.901  -2.947  1.00  0.00    -0.454 OA
ATOM     13  O   UNL     1       9.583  -1.241  -2.567  1.00  0.00    -0.454 OA
ATOM     14  C   UNL     1       8.855  -2.283  -3.170  1.00  0.00     0.468 C 
ENDBRANCH   5   6
ENDBRANCH   1   5
TORSDOF 3
ENDMDL
MODEL 2
REMARK VINA RESULT:      -7.5      1.920      2.377
REMARK SMILES CC(=O)CCc1ccc2c(c1)OCO2
REMARK SMILES IDX 4 1 2 2 1 3 3 4 5 5 6 6 7 7 11 8 8 9 10 10 9 11 12 12 14 13
REMARK SMILES IDX 13 14
REMARK H PARENT
REMARK Flexibility Score: inf
ROOT
ATOM      1  C   UNL     1       5.697   1.261  -0.305  1.00  0.00     0.080 C 
ENDROOT
BRANCH   1   2
ATOM      2  C   UNL     1       5.163   1.227   1.085  1.00  0.00     0.130 C 
ATOM      3  C   UNL     1       5.419   0.077   1.993  1.00  0.00     0.087 C 
ATOM      4  O   UNL     1       4.493   2.150   1.521  1.00  0.00    -0.300 OA
ENDBRANCH   1   2
BRANCH   1   5
ATOM      5  C   UNL     1       7.204   1.099  -0.319  1.00  0.00     0.043 C 
BRANCH   5   6
ATOM      6  C   UNL     1       7.610  -0.189  -0.908  1.00  0.00    -0.044 A 
ATOM      7  C   UNL     1       7.737  -0.355  -2.292  1.00  0.00     0.008 A 
ATOM      8  C   UNL     1       7.875  -1.262  -0.087  1.00  0.00     0.054 A 
ATOM      9  C   UNL     1       8.122  -1.587  -2.788  1.00  0.00     0.051 A 
ATOM     10  C   UNL     1       8.265  -2.505  -0.594  1.00  0.00     0.166 A 
ATOM     11  C   UNL     1       8.389  -2.669  -1.955  1.00  0.00     0.165 A 
ATOM     12  O   UNL     1       8.580  -3.707   0.005  1.00  0.00    -0.454 OA
ATOM     13  O   UNL     1       8.782  -3.982  -2.167  1.00  0.00    -0.454 OA
ATOM     14  C   UNL     1       9.003  -4.649  -0.947  1.00  0.00     0.468 C 
ENDBRANCH   5   6
ENDBRANCH   1   5
TORSDOF 3
ENDMDL
MODEL 3
REMARK VINA RESULT:      -7.2      2.078      2.626
REMARK SMILES CC(=O)CCc1ccc2c(c1)OCO2
REMARK SMILES IDX 4 1 2 2 1 3 3 4 5 5 6 6 7 7 11 8 8 9 10 10 9 11 12 12 14 13
REMARK SMILES IDX 13 14
REMARK H PARENT
REMARK Flexibility Score: inf
ROOT
ATOM      1  C   UNL     1       5.520   0.008   1.966  1.00  0.00     0.080 C 
ENDROOT
BRANCH   1   2
ATOM      2  C   UNL     1       4.653   1.180   1.665  1.00  0.00     0.130 C 
ATOM      3  C   UNL     1       4.982   2.135   0.573  1.00  0.00     0.087 C 
ATOM      4  O   UNL     1       3.639   1.393   2.310  1.00  0.00    -0.300 OA
ENDBRANCH   1   2
BRANCH   1   5
ATOM      5  C   UNL     1       6.947   0.248   1.516  1.00  0.00     0.043 C 
BRANCH   5   6
ATOM      6  C   UNL     1       7.358  -0.705   0.470  1.00  0.00    -0.044 A 
ATOM      7  C   UNL     1       7.255  -0.390  -0.890  1.00  0.00     0.008 A 
ATOM      8  C   UNL     1       7.859  -1.936   0.827  1.00  0.00     0.054 A 
ATOM      9  C   UNL     1       7.657  -1.324  -1.828  1.00  0.00     0.051 A 
ATOM     10  C   UNL     1       8.264  -2.877  -0.125  1.00  0.00     0.166 A 
ATOM     11  C   UNL     1       8.162  -2.568  -1.463  1.00  0.00     0.165 A 
ATOM     12  O   UNL     1       8.786  -4.149  -0.025  1.00  0.00    -0.454 OA
ATOM     13  O   UNL     1       8.629  -3.669  -2.165  1.00  0.00    -0.454 OA
ATOM     14  C   UNL     1       9.119  -4.658  -1.291  1.00  0.00     0.468 C 
ENDBRANCH   5   6
ENDBRANCH   1   5
TORSDOF 3
ENDMDL
MODEL 4
REMARK VINA RESULT:      -7.1      1.251      1.462
REMARK SMILES CC(=O)CCc1ccc2c(c1)OCO2
REMARK SMILES IDX 4 1 2 2 1 3 3 4 5 5 6 6 7 7 11 8 8 9 10 10 9 11 12 12 14 13
REMARK SMILES IDX 13 14
REMARK H PARENT
REMARK Flexibility Score: inf
ROOT
ATOM      1  C   UNL     1       6.377   1.191   0.932  1.00  0.00     0.080 C 
ENDROOT
BRANCH   1   2
ATOM      2  C   UNL     1       5.658   0.370   1.946  1.00  0.00     0.130 C 
ATOM      3  C   UNL     1       6.262  -0.858   2.527  1.00  0.00     0.087 C 
ATOM      4  O   UNL     1       4.543   0.685   2.330  1.00  0.00    -0.300 OA
ENDBRANCH   1   2
BRANCH   1   5
ATOM      5  C   UNL     1       5.864   0.913  -0.467  1.00  0.00     0.043 C 
BRANCH   5   6
ATOM      6  C   UNL     1       6.812   0.096  -1.244  1.00  0.00    -0.044 A 
ATOM      7  C   UNL     1       7.491   0.616  -2.352  1.00  0.00     0.008 A 
ATOM      8  C   UNL     1       7.046  -1.211  -0.880  1.00  0.00     0.054 A 
ATOM      9  C   UNL     1       8.370  -0.198  -3.043  1.00  0.00     0.051 A 
ATOM     10  C   UNL     1       7.936  -2.029  -1.582  1.00  0.00     0.166 A 
ATOM     11  C   UNL     1       8.603  -1.518  -2.673  1.00  0.00     0.165 A 
ATOM     12  O   UNL     1       8.333  -3.340  -1.421  1.00  0.00    -0.454 OA
ATOM     13  O   UNL     1       9.406  -2.536  -3.164  1.00  0.00    -0.454 OA
ATOM     14  C   UNL     1       9.334  -3.680  -2.347  1.00  0.00     0.468 C 
ENDBRANCH   5   6
ENDBRANCH   1   5
TORSDOF 3
ENDMDL
MODEL 5
REMARK VINA RESULT:      -6.8      1.185      5.162
REMARK SMILES CC(=O)CCc1ccc2c(c1)OCO2
REMARK SMILES IDX 4 1 2 2 1 3 3 4 5 5 6 6 7 7 11 8 8 9 10 10 9 11 12 12 14 13
REMARK SMILES IDX 13 14
REMARK H PARENT
REMARK Flexibility Score: inf
ROOT
ATOM      1  C   UNL     1       8.348   0.189  -2.676  1.00  0.00     0.080 C 
ENDROOT
BRANCH   1   2
ATOM      2  C   UNL     1       8.058  -1.270  -2.766  1.00  0.00     0.130 C 
ATOM      3  C   UNL     1       9.131  -2.264  -3.032  1.00  0.00     0.087 C 
ATOM      4  O   UNL     1       6.922  -1.693  -2.622  1.00  0.00    -0.300 OA
ENDBRANCH   1   2
BRANCH   1   5
ATOM      5  C   UNL     1       8.876   0.561  -1.305  1.00  0.00     0.043 C 
BRANCH   5   6
ATOM      6  C   UNL     1       7.843   0.420  -0.264  1.00  0.00    -0.044 A 
ATOM      7  C   UNL     1       7.951  -0.537   0.752  1.00  0.00     0.008 A 
ATOM      8  C   UNL     1       6.742   1.246  -0.279  1.00  0.00     0.054 A 
ATOM      9  C   UNL     1       6.950  -0.623   1.703  1.00  0.00     0.051 A 
ATOM     10  C   UNL     1       5.733   1.156   0.685  1.00  0.00     0.166 A 
ATOM     11  C   UNL     1       5.838   0.213   1.684  1.00  0.00     0.165 A 
ATOM     12  O   UNL     1       4.558   1.849   0.883  1.00  0.00    -0.454 OA
ATOM     13  O   UNL     1       4.714   0.350   2.484  1.00  0.00    -0.454 OA
ATOM     14  C   UNL     1       3.921   1.435   2.065  1.00  0.00     0.468 C 
ENDBRANCH   5   6
ENDBRANCH   1   5
TORSDOF 3
ENDMDL
