@<TRIPOS>MOLECULE
/home/cewinharhar/GITHUB/reincatalyze/data/processed/docking_pred/2023-May-30-2130_sub9_nm5_bs15_s42_ex16_mel10_mts10000_k50_ec05_g099_lra3e-4_lrc3e-3/ff0363d9ee1910d446632d9597fe578fef33cb13_ligand_9.pdbqt
 14 15 0 0 0
SMALL
GASTEIGER

@<TRIPOS>ATOM
      1  C          5.3930   -0.0810    2.0120 C.3     1  UNL1        0.0800
      2  C          4.5600    1.1300    1.7730 C.2     1  UNL1        0.1300
      3  C          4.9110    2.1240    0.7230 C.3     1  UNL1        0.0870
      4  O          3.5580    1.3430    2.4360 O.2     1  UNL1       -0.3000
      5  C          6.8370    0.1570    1.6200 C.3     1  UNL1        0.0430
      6  C          7.2710   -0.7560    0.5480 C.2     1  UNL1       -0.0440
      7  C          7.1530   -0.4090   -0.8030 C.2     1  UNL1        0.0080
      8  C          7.8090   -1.9810    0.8720 C.2     1  UNL1        0.0540
      9  C          7.5770   -1.3070   -1.7650 C.2     1  UNL1        0.0510
     10  C          8.2370   -2.8850   -0.1050 C.2     1  UNL1        0.1660
     11  C          8.1200   -2.5450   -1.4350 C.2     1  UNL1        0.1650
     12  O          8.7960   -4.1440   -0.0410 O.2     1  UNL1       -0.4540
     13  O          8.6150   -3.6130   -2.1670 O.2     1  UNL1       -0.4540
     14  C          9.1380   -4.6100   -1.3210 C.3     1  UNL1        0.4680
@<TRIPOS>BOND
     1    13    11    1
     2    13    14    1
     3     9    11    2
     4     9     7    1
     5    11    10    1
     6    14    12    1
     7     7     6    2
     8    10    12    1
     9    10     8    2
    10     6     8    1
    11     6     5    1
    12     3     2    1
    13     5     1    1
    14     2     1    1
    15     2     4    2
