@<TRIPOS>MOLECULE
/home/cewinharhar/GITHUB/reincatalyze/data/processed/docking_pred/2023-May-30-2130_sub9_nm5_bs15_s42_ex16_mel10_mts10000_k50_ec05_g099_lra3e-4_lrc3e-3/ff0363d9ee1910d446632d9597fe578fef33cb13_ligand_9.pdbqt
 14 15 0 0 0
SMALL
GASTEIGER

@<TRIPOS>ATOM
      1  C          6.3760    1.1690    0.9550 C.3     1  UNL1        0.0800
      2  C          5.6370    0.3550    1.9610 C.2     1  UNL1        0.1300
      3  C          6.2260   -0.8760    2.5540 C.3     1  UNL1        0.0870
      4  O          4.5190    0.6770    2.3290 O.2     1  UNL1       -0.3000
      5  C          5.8670    0.9040   -0.4480 C.3     1  UNL1        0.0430
      6  C          6.8120    0.0860   -1.2280 C.2     1  UNL1       -0.0440
      7  C          7.4840    0.6030   -2.3420 C.2     1  UNL1        0.0080
      8  C          7.0510   -1.2190   -0.8590 C.2     1  UNL1        0.0540
      9  C          8.3610   -0.2120   -3.0340 C.2     1  UNL1        0.0510
     10  C          7.9390   -2.0380   -1.5620 C.2     1  UNL1        0.1660
     11  C          8.5990   -1.5310   -2.6580 C.2     1  UNL1        0.1650
     12  O          8.3400   -3.3470   -1.3980 O.2     1  UNL1       -0.4540
     13  O          9.4010   -2.5490   -3.1500 O.2     1  UNL1       -0.4540
     14  C          9.3360   -3.6890   -2.3270 C.3     1  UNL1        0.4680
@<TRIPOS>BOND
     1    13    11    1
     2    13    14    1
     3     9    11    2
     4     9     7    1
     5    11    10    1
     6     7     6    2
     7    14    12    1
     8    10    12    1
     9    10     8    2
    10     6     8    1
    11     6     5    1
    12     5     1    1
    13     1     2    1
    14     2     4    2
    15     2     3    1
