@<TRIPOS>MOLECULE
/home/cewinharhar/GITHUB/reincatalyze/data/processed/docking_pred/2023-May-22-1739_sub9_nm5_bs15_s42_ex16_mel10_mts1000_k50_ec02_g099_lra9e-4_lrc1e-3/00fabcb6e86abbd64330e8a307762c5d347247e8_ligand_9.pdbqt
 14 15 0 0 0
SMALL
GASTEIGER

@<TRIPOS>ATOM
      1  C          5.7950    2.5500    1.3520 C.3     1  UNL1        0.0800
      2  C          6.4040    3.8940    1.1510 C.2     1  UNL1        0.1300
      3  C          6.8910    4.7100    2.2950 C.3     1  UNL1        0.0870
      4  O          6.5210    4.3680    0.0320 O.2     1  UNL1       -0.3000
      5  C          5.3780    1.9310    0.0330 C.3     1  UNL1        0.0430
      6  C          6.1450    0.7080   -0.2640 C.2     1  UNL1       -0.0440
      7  C          6.3450   -0.2840    0.7030 C.2     1  UNL1        0.0080
      8  C          6.6780    0.5240   -1.5200 C.2     1  UNL1        0.0540
      9  C          7.0720   -1.4120    0.3670 C.2     1  UNL1        0.0510
     10  C          7.4120   -0.6180   -1.8550 C.2     1  UNL1        0.1660
     11  C          7.6110   -1.5930   -0.9030 C.2     1  UNL1        0.1650
     12  O          8.0350   -1.0270   -3.0140 O.2     1  UNL1       -0.4540
     13  O          8.3590   -2.5930   -1.5050 O.2     1  UNL1       -0.4540
     14  C          8.5730   -2.3170   -2.8690 C.3     1  UNL1        0.4680
@<TRIPOS>BOND
     1    12    14    1
     2    12    10    1
     3    14    13    1
     4    10     8    1
     5    10    11    2
     6     8     6    2
     7    13    11    1
     8    11     9    1
     9     6     5    1
    10     6     7    1
    11     4     2    2
    12     5     1    1
    13     9     7    2
    14     2     1    1
    15     2     3    1
