MODEL 1
REMARK VINA RESULT:      -7.6      0.000      0.000
REMARK SMILES CC(=O)CCc1ccc2c(c1)OCO2
REMARK SMILES IDX 4 1 2 2 1 3 3 4 5 5 6 6 7 7 11 8 8 9 10 10 9 11 12 12 14 13
REMARK SMILES IDX 13 14
REMARK H PARENT
REMARK Flexibility Score: inf
ROOT
ATOM      1  C   UNL     1       5.513   1.898   1.275  1.00  0.00     0.080 C 
ENDROOT
BRANCH   1   2
ATOM      2  C   UNL     1       5.064   0.679   2.003  1.00  0.00     0.130 C 
ATOM      3  C   UNL     1       5.945  -0.511   2.151  1.00  0.00     0.087 C 
ATOM      4  O   UNL     1       3.953   0.621   2.503  1.00  0.00    -0.300 OA
ENDBRANCH   1   2
BRANCH   1   5
ATOM      5  C   UNL     1       5.388   1.720  -0.225  1.00  0.00     0.043 C 
BRANCH   5   6
ATOM      6  C   UNL     1       6.556   1.021  -0.792  1.00  0.00    -0.044 A 
ATOM      7  C   UNL     1       7.862   1.462  -0.550  1.00  0.00     0.008 A 
ATOM      8  C   UNL     1       6.369  -0.095  -1.576  1.00  0.00     0.054 A 
ATOM      9  C   UNL     1       8.919   0.765  -1.107  1.00  0.00     0.051 A 
ATOM     10  C   UNL     1       7.441  -0.796  -2.136  1.00  0.00     0.166 A 
ATOM     11  C   UNL     1       8.726  -0.362  -1.900  1.00  0.00     0.165 A 
ATOM     12  O   UNL     1       7.515  -1.914  -2.938  1.00  0.00    -0.454 OA
ATOM     13  O   UNL     1       9.572  -1.233  -2.569  1.00  0.00    -0.454 OA
ATOM     14  C   UNL     1       8.851  -2.285  -3.165  1.00  0.00     0.468 C 
ENDBRANCH   5   6
ENDBRANCH   1   5
TORSDOF 3
ENDMDL
MODEL 2
REMARK VINA RESULT:      -7.5      1.925      2.392
REMARK SMILES CC(=O)CCc1ccc2c(c1)OCO2
REMARK SMILES IDX 4 1 2 2 1 3 3 4 5 5 6 6 7 7 11 8 8 9 10 10 9 11 12 12 14 13
REMARK SMILES IDX 13 14
REMARK H PARENT
REMARK Flexibility Score: inf
ROOT
ATOM      1  C   UNL     1       5.777   1.385  -0.337  1.00  0.00     0.080 C 
ENDROOT
BRANCH   1   2
ATOM      2  C   UNL     1       5.126   1.317   1.001  1.00  0.00     0.130 C 
ATOM      3  C   UNL     1       5.394   0.199   1.944  1.00  0.00     0.087 C 
ATOM      4  O   UNL     1       4.347   2.184   1.363  1.00  0.00    -0.300 OA
ENDBRANCH   1   2
BRANCH   1   5
ATOM      5  C   UNL     1       7.266   1.117  -0.239  1.00  0.00     0.043 C 
BRANCH   5   6
ATOM      6  C   UNL     1       7.630  -0.174  -0.849  1.00  0.00    -0.044 A 
ATOM      7  C   UNL     1       7.702  -0.334  -2.238  1.00  0.00     0.008 A 
ATOM      8  C   UNL     1       7.912  -1.254  -0.044  1.00  0.00     0.054 A 
ATOM      9  C   UNL     1       8.050  -1.569  -2.754  1.00  0.00     0.051 A 
ATOM     10  C   UNL     1       8.265  -2.500  -0.571  1.00  0.00     0.166 A 
ATOM     11  C   UNL     1       8.334  -2.659  -1.937  1.00  0.00     0.165 A 
ATOM     12  O   UNL     1       8.585  -3.709   0.010  1.00  0.00    -0.454 OA
ATOM     13  O   UNL     1       8.700  -3.975  -2.170  1.00  0.00    -0.454 OA
ATOM     14  C   UNL     1       8.958  -4.652  -0.962  1.00  0.00     0.468 C 
ENDBRANCH   5   6
ENDBRANCH   1   5
TORSDOF 3
ENDMDL
MODEL 3
REMARK VINA RESULT:      -7.1      2.042      2.622
REMARK SMILES CC(=O)CCc1ccc2c(c1)OCO2
REMARK SMILES IDX 4 1 2 2 1 3 3 4 5 5 6 6 7 7 11 8 8 9 10 10 9 11 12 12 14 13
REMARK SMILES IDX 13 14
REMARK H PARENT
REMARK Flexibility Score: inf
ROOT
ATOM      1  C   UNL     1       5.795   2.550   1.352  1.00  0.00     0.080 C 
ENDROOT
BRANCH   1   2
ATOM      2  C   UNL     1       6.404   3.894   1.151  1.00  0.00     0.130 C 
ATOM      3  C   UNL     1       6.891   4.710   2.295  1.00  0.00     0.087 C 
ATOM      4  O   UNL     1       6.521   4.368   0.032  1.00  0.00    -0.300 OA
ENDBRANCH   1   2
BRANCH   1   5
ATOM      5  C   UNL     1       5.378   1.931   0.033  1.00  0.00     0.043 C 
BRANCH   5   6
ATOM      6  C   UNL     1       6.145   0.708  -0.264  1.00  0.00    -0.044 A 
ATOM      7  C   UNL     1       6.345  -0.284   0.703  1.00  0.00     0.008 A 
ATOM      8  C   UNL     1       6.678   0.524  -1.520  1.00  0.00     0.054 A 
ATOM      9  C   UNL     1       7.072  -1.412   0.367  1.00  0.00     0.051 A 
ATOM     10  C   UNL     1       7.412  -0.618  -1.855  1.00  0.00     0.166 A 
ATOM     11  C   UNL     1       7.611  -1.593  -0.903  1.00  0.00     0.165 A 
ATOM     12  O   UNL     1       8.035  -1.027  -3.014  1.00  0.00    -0.454 OA
ATOM     13  O   UNL     1       8.359  -2.593  -1.505  1.00  0.00    -0.454 OA
ATOM     14  C   UNL     1       8.573  -2.317  -2.869  1.00  0.00     0.468 C 
ENDBRANCH   5   6
ENDBRANCH   1   5
TORSDOF 3
ENDMDL
