MODEL 1
REMARK VINA RESULT:      -7.8      0.000      0.000
REMARK SMILES CC(=O)CCc1ccc2c(c1)OCO2
REMARK SMILES IDX 4 1 2 2 1 3 3 4 5 5 6 6 7 7 11 8 8 9 10 10 9 11 12 12 14 13
REMARK SMILES IDX 13 14
REMARK H PARENT
REMARK Flexibility Score: inf
ROOT
ATOM      1  C   UNL     1       5.459   2.883   0.303  1.00  0.00     0.080 C 
ENDROOT
BRANCH   1   2
ATOM      2  C   UNL     1       6.396   3.736   1.085  1.00  0.00     0.130 C 
ATOM      3  C   UNL     1       7.237   4.775   0.431  1.00  0.00     0.087 C 
ATOM      4  O   UNL     1       6.503   3.605   2.293  1.00  0.00    -0.300 OA
ENDBRANCH   1   2
BRANCH   1   5
ATOM      5  C   UNL     1       5.220   1.553   0.991  1.00  0.00     0.043 C 
BRANCH   5   6
ATOM      6  C   UNL     1       6.054   0.483   0.415  1.00  0.00    -0.044 A 
ATOM      7  C   UNL     1       6.449  -0.626   1.172  1.00  0.00     0.008 A 
ATOM      8  C   UNL     1       6.456   0.564  -0.899  1.00  0.00     0.054 A 
ATOM      9  C   UNL     1       7.231  -1.600   0.577  1.00  0.00     0.051 A 
ATOM     10  C   UNL     1       7.246  -0.424  -1.495  1.00  0.00     0.166 A 
ATOM     11  C   UNL     1       7.637  -1.514  -0.751  1.00  0.00     0.165 A 
ATOM     12  O   UNL     1       7.769  -0.570  -2.763  1.00  0.00    -0.454 OA
ATOM     13  O   UNL     1       8.398  -2.317  -1.585  1.00  0.00    -0.454 OA
ATOM     14  C   UNL     1       8.432  -1.802  -2.895  1.00  0.00     0.468 C 
ENDBRANCH   5   6
ENDBRANCH   1   5
TORSDOF 3
ENDMDL
MODEL 2
REMARK VINA RESULT:      -7.8      1.012      2.002
REMARK SMILES CC(=O)CCc1ccc2c(c1)OCO2
REMARK SMILES IDX 4 1 2 2 1 3 3 4 5 5 6 6 7 7 11 8 8 9 10 10 9 11 12 12 14 13
REMARK SMILES IDX 13 14
REMARK H PARENT
REMARK Flexibility Score: inf
ROOT
ATOM      1  C   UNL     1       5.398   3.052   0.193  1.00  0.00     0.080 C 
ENDROOT
BRANCH   1   2
ATOM      2  C   UNL     1       6.338   3.836   1.042  1.00  0.00     0.130 C 
ATOM      3  C   UNL     1       7.328   4.775   0.450  1.00  0.00     0.087 C 
ATOM      4  O   UNL     1       6.322   3.729   2.258  1.00  0.00    -0.300 OA
ENDBRANCH   1   2
BRANCH   1   5
ATOM      5  C   UNL     1       5.088   1.704   0.814  1.00  0.00     0.043 C 
BRANCH   5   6
ATOM      6  C   UNL     1       5.952   0.641   0.271  1.00  0.00    -0.044 A 
ATOM      7  C   UNL     1       6.413   0.673  -1.050  1.00  0.00     0.008 A 
ATOM      8  C   UNL     1       6.323  -0.413   1.075  1.00  0.00     0.054 A 
ATOM      9  C   UNL     1       7.221  -0.353  -1.504  1.00  0.00     0.051 A 
ATOM     10  C   UNL     1       7.142  -1.448   0.611  1.00  0.00     0.166 A 
ATOM     11  C   UNL     1       7.594  -1.417  -0.689  1.00  0.00     0.165 A 
ATOM     12  O   UNL     1       7.642  -2.587   1.204  1.00  0.00    -0.454 OA
ATOM     13  O   UNL     1       8.372  -2.550  -0.869  1.00  0.00    -0.454 OA
ATOM     14  C   UNL     1       8.503  -3.273   0.331  1.00  0.00     0.468 C 
ENDBRANCH   5   6
ENDBRANCH   1   5
TORSDOF 3
ENDMDL
MODEL 3
REMARK VINA RESULT:      -7.6      1.889      2.619
REMARK SMILES CC(=O)CCc1ccc2c(c1)OCO2
REMARK SMILES IDX 4 1 2 2 1 3 3 4 5 5 6 6 7 7 11 8 8 9 10 10 9 11 12 12 14 13
REMARK SMILES IDX 13 14
REMARK H PARENT
REMARK Flexibility Score: inf
ROOT
ATOM      1  C   UNL     1       5.549   1.923   1.268  1.00  0.00     0.080 C 
ENDROOT
BRANCH   1   2
ATOM      2  C   UNL     1       5.127   0.702   2.009  1.00  0.00     0.130 C 
ATOM      3  C   UNL     1       6.040  -0.459   2.187  1.00  0.00     0.087 C 
ATOM      4  O   UNL     1       4.011   0.618   2.495  1.00  0.00    -0.300 OA
ENDBRANCH   1   2
BRANCH   1   5
ATOM      5  C   UNL     1       5.418   1.730  -0.230  1.00  0.00     0.043 C 
BRANCH   5   6
ATOM      6  C   UNL     1       6.582   1.023  -0.794  1.00  0.00    -0.044 A 
ATOM      7  C   UNL     1       7.891   1.448  -0.539  1.00  0.00     0.008 A 
ATOM      8  C   UNL     1       6.389  -0.083  -1.589  1.00  0.00     0.054 A 
ATOM      9  C   UNL     1       8.945   0.744  -1.094  1.00  0.00     0.051 A 
ATOM     10  C   UNL     1       7.457  -0.791  -2.148  1.00  0.00     0.166 A 
ATOM     11  C   UNL     1       8.746  -0.373  -1.899  1.00  0.00     0.165 A 
ATOM     12  O   UNL     1       7.525  -1.903  -2.960  1.00  0.00    -0.454 OA
ATOM     13  O   UNL     1       9.587  -1.248  -2.568  1.00  0.00    -0.454 OA
ATOM     14  C   UNL     1       8.859  -2.286  -3.179  1.00  0.00     0.468 C 
ENDBRANCH   5   6
ENDBRANCH   1   5
TORSDOF 3
ENDMDL
