@<TRIPOS>MOLECULE
/home/cewinharhar/GITHUB/reincatalyze/data/processed/docking_pred/2023-May-22-1739_sub9_nm5_bs15_s42_ex16_mel10_mts1000_k50_ec02_g099_lra9e-4_lrc1e-3/0c0669ff2f8dcec30d9aff9f411b757c1c1ac29f_ligand_9.pdbqt
 14 15 0 0 0
SMALL
GASTEIGER

@<TRIPOS>ATOM
      1  C          5.4590    2.8830    0.3030 C.3     1  UNL1        0.0800
      2  C          6.3960    3.7360    1.0850 C.2     1  UNL1        0.1300
      3  C          7.2370    4.7750    0.4310 C.3     1  UNL1        0.0870
      4  O          6.5030    3.6050    2.2930 O.2     1  UNL1       -0.3000
      5  C          5.2200    1.5530    0.9910 C.3     1  UNL1        0.0430
      6  C          6.0540    0.4830    0.4150 C.2     1  UNL1       -0.0440
      7  C          6.4490   -0.6260    1.1720 C.2     1  UNL1        0.0080
      8  C          6.4560    0.5640   -0.8990 C.2     1  UNL1        0.0540
      9  C          7.2310   -1.6000    0.5770 C.2     1  UNL1        0.0510
     10  C          7.2460   -0.4240   -1.4950 C.2     1  UNL1        0.1660
     11  C          7.6370   -1.5140   -0.7510 C.2     1  UNL1        0.1650
     12  O          7.7690   -0.5700   -2.7630 O.2     1  UNL1       -0.4540
     13  O          8.3980   -2.3170   -1.5850 O.2     1  UNL1       -0.4540
     14  C          8.4320   -1.8020   -2.8950 C.3     1  UNL1        0.4680
@<TRIPOS>BOND
     1    14    12    1
     2    14    13    1
     3    12    10    1
     4    13    11    1
     5    10     8    1
     6    10    11    2
     7     8     6    2
     8    11     9    1
     9     1     5    1
    10     1     2    1
    11     6     5    1
    12     6     7    1
    13     3     2    1
    14     9     7    2
    15     2     4    2
