MODEL 1
REMARK VINA RESULT:      -7.6      0.000      0.000
REMARK SMILES CC(=O)CCc1ccc2c(c1)OCO2
REMARK SMILES IDX 4 1 2 2 1 3 3 4 5 5 6 6 7 7 11 8 8 9 10 10 9 11 12 12 14 13
REMARK SMILES IDX 13 14
REMARK H PARENT
REMARK Flexibility Score: inf
ROOT
ATOM      1  C   UNL     1       5.534   1.915   1.270  1.00  0.00     0.080 C 
ENDROOT
BRANCH   1   2
ATOM      2  C   UNL     1       5.082   0.702   2.007  1.00  0.00     0.130 C 
ATOM      3  C   UNL     1       5.962  -0.486   2.170  1.00  0.00     0.087 C 
ATOM      4  O   UNL     1       3.967   0.648   2.501  1.00  0.00    -0.300 OA
ENDBRANCH   1   2
BRANCH   1   5
ATOM      5  C   UNL     1       5.404   1.728  -0.229  1.00  0.00     0.043 C 
BRANCH   5   6
ATOM      6  C   UNL     1       6.571   1.028  -0.796  1.00  0.00    -0.044 A 
ATOM      7  C   UNL     1       7.878   1.466  -0.553  1.00  0.00     0.008 A 
ATOM      8  C   UNL     1       6.382  -0.086  -1.581  1.00  0.00     0.054 A 
ATOM      9  C   UNL     1       8.933   0.768  -1.111  1.00  0.00     0.051 A 
ATOM     10  C   UNL     1       7.453  -0.788  -2.142  1.00  0.00     0.166 A 
ATOM     11  C   UNL     1       8.739  -0.357  -1.906  1.00  0.00     0.165 A 
ATOM     12  O   UNL     1       7.525  -1.906  -2.946  1.00  0.00    -0.454 OA
ATOM     13  O   UNL     1       9.583  -1.229  -2.575  1.00  0.00    -0.454 OA
ATOM     14  C   UNL     1       8.860  -2.279  -3.173  1.00  0.00     0.468 C 
ENDBRANCH   5   6
ENDBRANCH   1   5
TORSDOF 3
ENDMDL
MODEL 2
REMARK VINA RESULT:      -7.5      1.921      2.392
REMARK SMILES CC(=O)CCc1ccc2c(c1)OCO2
REMARK SMILES IDX 4 1 2 2 1 3 3 4 5 5 6 6 7 7 11 8 8 9 10 10 9 11 12 12 14 13
REMARK SMILES IDX 13 14
REMARK H PARENT
REMARK Flexibility Score: inf
ROOT
ATOM      1  C   UNL     1       5.746   1.336  -0.348  1.00  0.00     0.080 C 
ENDROOT
BRANCH   1   2
ATOM      2  C   UNL     1       5.143   1.297   1.013  1.00  0.00     0.130 C 
ATOM      3  C   UNL     1       5.372   0.153   1.936  1.00  0.00     0.087 C 
ATOM      4  O   UNL     1       4.439   2.209   1.413  1.00  0.00    -0.300 OA
ENDBRANCH   1   2
BRANCH   1   5
ATOM      5  C   UNL     1       7.244   1.110  -0.294  1.00  0.00     0.043 C 
BRANCH   5   6
ATOM      6  C   UNL     1       7.624  -0.182  -0.892  1.00  0.00    -0.044 A 
ATOM      7  C   UNL     1       7.733  -0.344  -2.278  1.00  0.00     0.008 A 
ATOM      8  C   UNL     1       7.883  -1.261  -0.078  1.00  0.00     0.054 A 
ATOM      9  C   UNL     1       8.094  -1.580  -2.783  1.00  0.00     0.051 A 
ATOM     10  C   UNL     1       8.249  -2.508  -0.593  1.00  0.00     0.166 A 
ATOM     11  C   UNL     1       8.355  -2.669  -1.957  1.00  0.00     0.165 A 
ATOM     12  O   UNL     1       8.553  -3.716  -0.003  1.00  0.00    -0.454 OA
ATOM     13  O   UNL     1       8.727  -3.986  -2.178  1.00  0.00    -0.454 OA
ATOM     14  C   UNL     1       8.951  -4.661  -0.963  1.00  0.00     0.468 C 
ENDBRANCH   5   6
ENDBRANCH   1   5
TORSDOF 3
ENDMDL
MODEL 3
REMARK VINA RESULT:      -7.2      2.176      2.799
REMARK SMILES CC(=O)CCc1ccc2c(c1)OCO2
REMARK SMILES IDX 4 1 2 2 1 3 3 4 5 5 6 6 7 7 11 8 8 9 10 10 9 11 12 12 14 13
REMARK SMILES IDX 13 14
REMARK H PARENT
REMARK Flexibility Score: inf
ROOT
ATOM      1  C   UNL     1       6.875   2.126  -0.172  1.00  0.00     0.080 C 
ENDROOT
BRANCH   1   2
ATOM      2  C   UNL     1       6.078   2.938   0.790  1.00  0.00     0.130 C 
ATOM      3  C   UNL     1       6.536   4.276   1.250  1.00  0.00     0.087 C 
ATOM      4  O   UNL     1       5.018   2.524   1.231  1.00  0.00    -0.300 OA
ENDBRANCH   1   2
BRANCH   1   5
ATOM      5  C   UNL     1       6.088   0.929  -0.667  1.00  0.00     0.043 C 
BRANCH   5   6
ATOM      6  C   UNL     1       6.779  -0.339  -0.370  1.00  0.00    -0.044 A 
ATOM      7  C   UNL     1       6.953  -0.789   0.944  1.00  0.00     0.008 A 
ATOM      8  C   UNL     1       7.265  -1.109  -1.402  1.00  0.00     0.054 A 
ATOM      9  C   UNL     1       7.608  -1.987   1.162  1.00  0.00     0.051 A 
ATOM     10  C   UNL     1       7.926  -2.320  -1.176  1.00  0.00     0.166 A 
ATOM     11  C   UNL     1       8.100  -2.762   0.116  1.00  0.00     0.165 A 
ATOM     12  O   UNL     1       8.494  -3.252  -2.019  1.00  0.00    -0.454 OA
ATOM     13  O   UNL     1       8.776  -3.970   0.039  1.00  0.00    -0.454 OA
ATOM     14  C   UNL     1       8.965  -4.362  -1.299  1.00  0.00     0.468 C 
ENDBRANCH   5   6
ENDBRANCH   1   5
TORSDOF 3
ENDMDL
