@<TRIPOS>MOLECULE
/home/cewinharhar/GITHUB/reincatalyze/data/processed/docking_pred/2023-May-22-1739_sub9_nm5_bs15_s42_ex16_mel10_mts1000_k50_ec02_g099_lra9e-4_lrc1e-3/12e5788d749ca0b681d4f032b25b6d257325d045_ligand_9.pdbqt
 14 15 0 0 0
SMALL
GASTEIGER

@<TRIPOS>ATOM
      1  C          5.7460    1.3360   -0.3480 C.3     1  UNL1        0.0800
      2  C          5.1430    1.2970    1.0130 C.2     1  UNL1        0.1300
      3  C          5.3720    0.1530    1.9360 C.3     1  UNL1        0.0870
      4  O          4.4390    2.2090    1.4130 O.2     1  UNL1       -0.3000
      5  C          7.2440    1.1100   -0.2940 C.3     1  UNL1        0.0430
      6  C          7.6240   -0.1820   -0.8920 C.2     1  UNL1       -0.0440
      7  C          7.7330   -0.3440   -2.2780 C.2     1  UNL1        0.0080
      8  C          7.8830   -1.2610   -0.0780 C.2     1  UNL1        0.0540
      9  C          8.0940   -1.5800   -2.7830 C.2     1  UNL1        0.0510
     10  C          8.2490   -2.5080   -0.5930 C.2     1  UNL1        0.1660
     11  C          8.3550   -2.6690   -1.9570 C.2     1  UNL1        0.1650
     12  O          8.5530   -3.7160   -0.0030 O.2     1  UNL1       -0.4540
     13  O          8.7270   -3.9860   -2.1780 O.2     1  UNL1       -0.4540
     14  C          8.9510   -4.6610   -0.9630 C.3     1  UNL1        0.4680
@<TRIPOS>BOND
     1     9     7    1
     2     9    11    2
     3     7     6    2
     4    13    11    1
     5    13    14    1
     6    11    10    1
     7    14    12    1
     8     6     5    1
     9     6     8    1
    10    10     8    2
    11    10    12    1
    12     1     5    1
    13     1     2    1
    14     2     4    2
    15     2     3    1
