@<TRIPOS>MOLECULE
/home/cewinharhar/GITHUB/reincatalyze/data/processed/docking_pred/2023-May-22-1739_sub9_nm5_bs15_s42_ex16_mel10_mts1000_k50_ec02_g099_lra9e-4_lrc1e-3/12e5788d749ca0b681d4f032b25b6d257325d045_ligand_9.pdbqt
 14 15 0 0 0
SMALL
GASTEIGER

@<TRIPOS>ATOM
      1  C          6.8750    2.1260   -0.1720 C.3     1  UNL1        0.0800
      2  C          6.0780    2.9380    0.7900 C.2     1  UNL1        0.1300
      3  C          6.5360    4.2760    1.2500 C.3     1  UNL1        0.0870
      4  O          5.0180    2.5240    1.2310 O.2     1  UNL1       -0.3000
      5  C          6.0880    0.9290   -0.6670 C.3     1  UNL1        0.0430
      6  C          6.7790   -0.3390   -0.3700 C.2     1  UNL1       -0.0440
      7  C          6.9530   -0.7890    0.9440 C.2     1  UNL1        0.0080
      8  C          7.2650   -1.1090   -1.4020 C.2     1  UNL1        0.0540
      9  C          7.6080   -1.9870    1.1620 C.2     1  UNL1        0.0510
     10  C          7.9260   -2.3200   -1.1760 C.2     1  UNL1        0.1660
     11  C          8.1000   -2.7620    0.1160 C.2     1  UNL1        0.1650
     12  O          8.4940   -3.2520   -2.0190 O.2     1  UNL1       -0.4540
     13  O          8.7760   -3.9700    0.0390 O.2     1  UNL1       -0.4540
     14  C          8.9650   -4.3620   -1.2990 C.3     1  UNL1        0.4680
@<TRIPOS>BOND
     1    12    14    1
     2    12    10    1
     3     8    10    1
     4     8     6    2
     5    14    13    1
     6    10    11    2
     7     5     6    1
     8     5     1    1
     9     6     7    1
    10     1     2    1
    11    13    11    1
    12    11     9    1
    13     2     4    2
    14     2     3    1
    15     7     9    2
