@<TRIPOS>MOLECULE
/home/cewinharhar/GITHUB/reincatalyze/data/processed/docking_pred/2023-May-22-1739_sub9_nm5_bs15_s42_ex16_mel10_mts1000_k50_ec02_g099_lra9e-4_lrc1e-3/1444e75be78da7e2931ed2b5f85ad252461f0798_ligand_9.pdbqt
 14 15 0 0 0
SMALL
GASTEIGER

@<TRIPOS>ATOM
      1  C          5.3750    2.9620    0.1460 C.3     1  UNL1        0.0800
      2  C          6.3600    3.6860    0.9980 C.2     1  UNL1        0.1300
      3  C          7.2140    4.7750    0.4510 C.3     1  UNL1        0.0870
      4  O          6.4950    3.4040    2.1770 O.2     1  UNL1       -0.3000
      5  C          5.0370    1.6050    0.7290 C.3     1  UNL1        0.0430
      6  C          5.9030    0.5450    0.1840 C.2     1  UNL1       -0.0440
      7  C          6.3110    0.5480   -1.1550 C.2     1  UNL1        0.0080
      8  C          6.3300   -0.4770    1.0020 C.2     1  UNL1        0.0540
      9  C          7.1260   -0.4730   -1.6110 C.2     1  UNL1        0.0510
     10  C          7.1530   -1.5060    0.5370 C.2     1  UNL1        0.1660
     11  C          7.5540   -1.5040   -0.7810 C.2     1  UNL1        0.1650
     12  O          7.7030   -2.6160    1.1420 O.2     1  UNL1       -0.4540
     13  O          8.3510   -2.6250   -0.9590 O.2     1  UNL1       -0.4540
     14  C          8.5450   -3.3080    0.2560 C.3     1  UNL1        0.4680
@<TRIPOS>BOND
     1     9     7    1
     2     9    11    2
     3     7     6    2
     4    13    11    1
     5    13    14    1
     6    11    10    1
     7     1     5    1
     8     1     2    1
     9     6     5    1
    10     6     8    1
    11    14    12    1
    12     3     2    1
    13    10     8    2
    14    10    12    1
    15     2     4    2
