@<TRIPOS>MOLECULE
/home/cewinharhar/GITHUB/reincatalyze/data/processed/docking_pred/2023-May-22-1739_sub9_nm5_bs15_s42_ex16_mel10_mts1000_k50_ec02_g099_lra9e-4_lrc1e-3/1444e75be78da7e2931ed2b5f85ad252461f0798_ligand_9.pdbqt
 14 15 0 0 0
SMALL
GASTEIGER

@<TRIPOS>ATOM
      1  C          5.4990    1.9210    1.2790 C.3     1  UNL1        0.0800
      2  C          5.0160    0.7070    1.9930 C.2     1  UNL1        0.1300
      3  C          5.8610   -0.5100    2.1250 C.3     1  UNL1        0.0870
      4  O          3.9030    0.6760    2.4940 O.2     1  UNL1       -0.3000
      5  C          5.3860    1.7580   -0.2240 C.3     1  UNL1        0.0430
      6  C          6.5500    1.0500   -0.7860 C.2     1  UNL1       -0.0440
      7  C          7.8590    1.4730   -0.5290 C.2     1  UNL1        0.0080
      8  C          6.3570   -0.0570   -1.5810 C.2     1  UNL1        0.0540
      9  C          8.9130    0.7680   -1.0830 C.2     1  UNL1        0.0510
     10  C          7.4250   -0.7660   -2.1380 C.2     1  UNL1        0.1660
     11  C          8.7140   -0.3500   -1.8870 C.2     1  UNL1        0.1650
     12  O          7.4930   -1.8790   -2.9490 O.2     1  UNL1       -0.4540
     13  O          9.5550   -1.2250   -2.5560 O.2     1  UNL1       -0.4540
     14  C          8.8260   -2.2630   -3.1670 C.3     1  UNL1        0.4680
@<TRIPOS>BOND
     1    14    12    1
     2    14    13    1
     3    12    10    1
     4    13    11    1
     5    10    11    2
     6    10     8    1
     7    11     9    1
     8     8     6    2
     9     9     7    2
    10     6     7    1
    11     6     5    1
    12     5     1    1
    13     1     2    1
    14     2     3    1
    15     2     4    2
