@<TRIPOS>MOLECULE
/home/cewinharhar/GITHUB/reincatalyze/data/processed/docking_pred/2023-May-22-1739_sub9_nm5_bs15_s42_ex16_mel10_mts1000_k50_ec02_g099_lra9e-4_lrc1e-3/1444e75be78da7e2931ed2b5f85ad252461f0798_ligand_9.pdbqt
 14 15 0 0 0
SMALL
GASTEIGER

@<TRIPOS>ATOM
      1  C          5.4000    2.9500    0.0730 C.3     1  UNL1        0.0800
      2  C          6.2810    3.7910    0.9300 C.2     1  UNL1        0.1300
      3  C          7.2320    4.7740    0.3440 C.3     1  UNL1        0.0870
      4  O          6.2490    3.6960    2.1460 O.2     1  UNL1       -0.3000
      5  C          5.0470    1.6450    0.7590 C.3     1  UNL1        0.0430
      6  C          5.8910    0.5340    0.2870 C.2     1  UNL1       -0.0440
      7  C          6.1980   -0.5550    1.1110 C.2     1  UNL1        0.0080
      8  C          6.3930    0.5550   -0.9940 C.2     1  UNL1        0.0540
      9  C          6.9940   -1.5700    0.6130 C.2     1  UNL1        0.0510
     10  C          7.1970   -0.4740   -1.4930 C.2     1  UNL1        0.1660
     11  C          7.5010   -1.5450   -0.6820 C.2     1  UNL1        0.1650
     12  O          7.8100   -0.6820   -2.7110 O.2     1  UNL1       -0.4540
     13  O          8.3000   -2.3980   -1.4270 O.2     1  UNL1       -0.4540
     14  C          8.4460   -1.9340   -2.7480 C.3     1  UNL1        0.4680
@<TRIPOS>BOND
     1    14    12    1
     2    14    13    1
     3    12    10    1
     4    10     8    1
     5    10    11    2
     6    13    11    1
     7     8     6    2
     8    11     9    1
     9     1     5    1
    10     1     2    1
    11     6     5    1
    12     6     7    1
    13     3     2    1
    14     9     7    2
    15     2     4    2
