MODEL 1
REMARK VINA RESULT:      -7.9      0.000      0.000
REMARK SMILES CC(=O)CCc1ccc2c(c1)OCO2
REMARK SMILES IDX 4 1 2 2 1 3 3 4 5 5 6 6 7 7 11 8 8 9 10 10 9 11 12 12 14 13
REMARK SMILES IDX 13 14
REMARK H PARENT
REMARK Flexibility Score: inf
ROOT
ATOM      1  C   UNL     1       5.400   2.950   0.073  1.00  0.00     0.080 C 
ENDROOT
BRANCH   1   2
ATOM      2  C   UNL     1       6.281   3.791   0.930  1.00  0.00     0.130 C 
ATOM      3  C   UNL     1       7.232   4.774   0.344  1.00  0.00     0.087 C 
ATOM      4  O   UNL     1       6.249   3.696   2.146  1.00  0.00    -0.300 OA
ENDBRANCH   1   2
BRANCH   1   5
ATOM      5  C   UNL     1       5.047   1.645   0.759  1.00  0.00     0.043 C 
BRANCH   5   6
ATOM      6  C   UNL     1       5.891   0.534   0.287  1.00  0.00    -0.044 A 
ATOM      7  C   UNL     1       6.198  -0.555   1.111  1.00  0.00     0.008 A 
ATOM      8  C   UNL     1       6.393   0.555  -0.994  1.00  0.00     0.054 A 
ATOM      9  C   UNL     1       6.994  -1.570   0.613  1.00  0.00     0.051 A 
ATOM     10  C   UNL     1       7.197  -0.474  -1.493  1.00  0.00     0.166 A 
ATOM     11  C   UNL     1       7.501  -1.545  -0.682  1.00  0.00     0.165 A 
ATOM     12  O   UNL     1       7.810  -0.682  -2.711  1.00  0.00    -0.454 OA
ATOM     13  O   UNL     1       8.300  -2.398  -1.427  1.00  0.00    -0.454 OA
ATOM     14  C   UNL     1       8.446  -1.934  -2.748  1.00  0.00     0.468 C 
ENDBRANCH   5   6
ENDBRANCH   1   5
TORSDOF 3
ENDMDL
MODEL 2
REMARK VINA RESULT:      -7.8      0.952      1.942
REMARK SMILES CC(=O)CCc1ccc2c(c1)OCO2
REMARK SMILES IDX 4 1 2 2 1 3 3 4 5 5 6 6 7 7 11 8 8 9 10 10 9 11 12 12 14 13
REMARK SMILES IDX 13 14
REMARK H PARENT
REMARK Flexibility Score: inf
ROOT
ATOM      1  C   UNL     1       5.375   2.962   0.146  1.00  0.00     0.080 C 
ENDROOT
BRANCH   1   2
ATOM      2  C   UNL     1       6.360   3.686   0.998  1.00  0.00     0.130 C 
ATOM      3  C   UNL     1       7.214   4.775   0.451  1.00  0.00     0.087 C 
ATOM      4  O   UNL     1       6.495   3.404   2.177  1.00  0.00    -0.300 OA
ENDBRANCH   1   2
BRANCH   1   5
ATOM      5  C   UNL     1       5.037   1.605   0.729  1.00  0.00     0.043 C 
BRANCH   5   6
ATOM      6  C   UNL     1       5.903   0.545   0.184  1.00  0.00    -0.044 A 
ATOM      7  C   UNL     1       6.311   0.548  -1.155  1.00  0.00     0.008 A 
ATOM      8  C   UNL     1       6.330  -0.477   1.002  1.00  0.00     0.054 A 
ATOM      9  C   UNL     1       7.126  -0.473  -1.611  1.00  0.00     0.051 A 
ATOM     10  C   UNL     1       7.153  -1.506   0.537  1.00  0.00     0.166 A 
ATOM     11  C   UNL     1       7.554  -1.504  -0.781  1.00  0.00     0.165 A 
ATOM     12  O   UNL     1       7.703  -2.616   1.142  1.00  0.00    -0.454 OA
ATOM     13  O   UNL     1       8.351  -2.625  -0.959  1.00  0.00    -0.454 OA
ATOM     14  C   UNL     1       8.545  -3.308   0.256  1.00  0.00     0.468 C 
ENDBRANCH   5   6
ENDBRANCH   1   5
TORSDOF 3
ENDMDL
MODEL 3
REMARK VINA RESULT:      -7.6      1.882      2.658
REMARK SMILES CC(=O)CCc1ccc2c(c1)OCO2
REMARK SMILES IDX 4 1 2 2 1 3 3 4 5 5 6 6 7 7 11 8 8 9 10 10 9 11 12 12 14 13
REMARK SMILES IDX 13 14
REMARK H PARENT
REMARK Flexibility Score: inf
ROOT
ATOM      1  C   UNL     1       5.499   1.921   1.279  1.00  0.00     0.080 C 
ENDROOT
BRANCH   1   2
ATOM      2  C   UNL     1       5.016   0.707   1.993  1.00  0.00     0.130 C 
ATOM      3  C   UNL     1       5.861  -0.510   2.125  1.00  0.00     0.087 C 
ATOM      4  O   UNL     1       3.903   0.676   2.494  1.00  0.00    -0.300 OA
ENDBRANCH   1   2
BRANCH   1   5
ATOM      5  C   UNL     1       5.386   1.758  -0.224  1.00  0.00     0.043 C 
BRANCH   5   6
ATOM      6  C   UNL     1       6.550   1.050  -0.786  1.00  0.00    -0.044 A 
ATOM      7  C   UNL     1       7.859   1.473  -0.529  1.00  0.00     0.008 A 
ATOM      8  C   UNL     1       6.357  -0.057  -1.581  1.00  0.00     0.054 A 
ATOM      9  C   UNL     1       8.913   0.768  -1.083  1.00  0.00     0.051 A 
ATOM     10  C   UNL     1       7.425  -0.766  -2.138  1.00  0.00     0.166 A 
ATOM     11  C   UNL     1       8.714  -0.350  -1.887  1.00  0.00     0.165 A 
ATOM     12  O   UNL     1       7.493  -1.879  -2.949  1.00  0.00    -0.454 OA
ATOM     13  O   UNL     1       9.555  -1.225  -2.556  1.00  0.00    -0.454 OA
ATOM     14  C   UNL     1       8.826  -2.263  -3.167  1.00  0.00     0.468 C 
ENDBRANCH   5   6
ENDBRANCH   1   5
TORSDOF 3
ENDMDL
