@<TRIPOS>MOLECULE
/home/cewinharhar/GITHUB/reincatalyze/data/processed/docking_pred/2023-May-22-1739_sub9_nm5_bs15_s42_ex16_mel10_mts1000_k50_ec02_g099_lra9e-4_lrc1e-3/1a0a4210c7fbec369f44508687af2363e72d8760_ligand_9.pdbqt
 14 15 0 0 0
SMALL
GASTEIGER

@<TRIPOS>ATOM
      1  C          5.5260    2.8550    0.0930 C.3     1  UNL1        0.0800
      2  C          6.4240    3.6500    0.9760 C.2     1  UNL1        0.1300
      3  C          7.2420    4.7750    0.4490 C.3     1  UNL1        0.0870
      4  O          6.5150    3.3990    2.1670 O.2     1  UNL1       -0.3000
      5  C          5.1780    1.5190    0.7210 C.3     1  UNL1        0.0430
      6  C          6.0420    0.4380    0.2160 C.2     1  UNL1       -0.0440
      7  C          6.4410   -0.6250    1.0350 C.2     1  UNL1        0.0080
      8  C          6.4710    0.4610   -1.0920 C.2     1  UNL1        0.0540
      9  C          7.2520   -1.6120    0.5060 C.2     1  UNL1        0.0510
     10  C          7.2900   -0.5400   -1.6230 C.2     1  UNL1        0.1660
     11  C          7.6840   -1.5850   -0.8170 C.2     1  UNL1        0.1650
     12  O          7.8410   -0.7400   -2.8700 O.2     1  UNL1       -0.4540
     13  O          8.4770   -2.4140   -1.5950 O.2     1  UNL1       -0.4540
     14  C          8.5280   -1.9640   -2.9280 C.3     1  UNL1        0.4680
@<TRIPOS>BOND
     1    14    12    1
     2    14    13    1
     3    12    10    1
     4    10     8    1
     5    10    11    2
     6    13    11    1
     7     8     6    2
     8    11     9    1
     9     1     5    1
    10     1     2    1
    11     6     5    1
    12     6     7    1
    13     3     2    1
    14     9     7    2
    15     2     4    2
