@<TRIPOS>MOLECULE
/home/cewinharhar/GITHUB/reincatalyze/data/processed/docking_pred/2023-May-22-1739_sub9_nm5_bs15_s42_ex16_mel10_mts1000_k50_ec02_g099_lra9e-4_lrc1e-3/1a0a4210c7fbec369f44508687af2363e72d8760_ligand_9.pdbqt
 14 15 0 0 0
SMALL
GASTEIGER

@<TRIPOS>ATOM
      1  C          5.7360    1.3040   -0.3260 C.3     1  UNL1        0.0800
      2  C          5.1270    1.2960    1.0340 C.2     1  UNL1        0.1300
      3  C          5.3170    0.1530    1.9670 C.3     1  UNL1        0.0870
      4  O          4.4490    2.2330    1.4230 O.2     1  UNL1       -0.3000
      5  C          7.2330    1.0740   -0.2600 C.3     1  UNL1        0.0430
      6  C          7.6140   -0.2170   -0.8620 C.2     1  UNL1       -0.0440
      7  C          7.6940   -0.3830   -2.2490 C.2     1  UNL1        0.0080
      8  C          7.9020   -1.2900   -0.0490 C.2     1  UNL1        0.0540
      9  C          8.0580   -1.6170   -2.7570 C.2     1  UNL1        0.0510
     10  C          8.2700   -2.5350   -0.5680 C.2     1  UNL1        0.1660
     11  C          8.3480   -2.7000   -1.9330 C.2     1  UNL1        0.1650
     12  O          8.6000   -3.7370    0.0210 O.2     1  UNL1       -0.4540
     13  O          8.7290   -4.0140   -2.1570 O.2     1  UNL1       -0.4540
     14  C          8.9870   -4.6810   -0.9450 C.3     1  UNL1        0.4680
@<TRIPOS>BOND
     1     9     7    1
     2     9    11    2
     3     7     6    2
     4    13    11    1
     5    13    14    1
     6    11    10    1
     7    14    12    1
     8     6     5    1
     9     6     8    1
    10    10     8    2
    11    10    12    1
    12     1     5    1
    13     1     2    1
    14     2     4    2
    15     2     3    1
