@<TRIPOS>MOLECULE
/home/cewinharhar/GITHUB/reincatalyze/data/processed/docking_pred/2023-May-22-1739_sub9_nm5_bs15_s42_ex16_mel10_mts1000_k50_ec02_g099_lra9e-4_lrc1e-3/1e16add1d5649bf0b13dd0d86c7d3fc630d89625_ligand_9.pdbqt
 14 15 0 0 0
SMALL
GASTEIGER

@<TRIPOS>ATOM
      1  C          6.0070    1.6340    1.1620 C.3     1  UNL1        0.0800
      2  C          5.4320    0.5290    1.9790 C.2     1  UNL1        0.1300
      3  C          6.2170   -0.6920    2.3040 C.3     1  UNL1        0.0870
      4  O          4.2920    0.5950    2.4080 O.2     1  UNL1       -0.3000
      5  C          5.7330    1.4260   -0.3150 C.3     1  UNL1        0.0430
      6  C          6.8030    0.6480   -0.9650 C.2     1  UNL1       -0.0440
      7  C          8.1480    1.0190   -0.8590 C.2     1  UNL1        0.0080
      8  C          6.4830   -0.4750   -1.6940 C.2     1  UNL1        0.0540
      9  C          9.1090    0.2500   -1.4900 C.2     1  UNL1        0.0510
     10  C          7.4580   -1.2500   -2.3300 C.2     1  UNL1        0.1660
     11  C          8.7810   -0.8840   -2.2270 C.2     1  UNL1        0.1650
     12  O          7.3950   -2.3910   -3.1010 O.2     1  UNL1       -0.4540
     13  O          9.5120   -1.8180   -2.9440 O.2     1  UNL1       -0.4540
     14  C          8.6820   -2.8420   -3.4380 C.3     1  UNL1        0.4680
@<TRIPOS>BOND
     1    14    12    1
     2    14    13    1
     3    12    10    1
     4    13    11    1
     5    10    11    2
     6    10     8    1
     7    11     9    1
     8     8     6    2
     9     9     7    2
    10     6     7    1
    11     6     5    1
    12     5     1    1
    13     1     2    1
    14     2     3    1
    15     2     4    2
