MODEL 1
REMARK VINA RESULT:      -8.1      0.000      0.000
REMARK SMILES CC(=O)CCc1ccc2c(c1)OCO2
REMARK SMILES IDX 4 1 2 2 1 3 3 4 5 5 6 6 7 7 11 8 8 9 10 10 9 11 12 12 14 13
REMARK SMILES IDX 13 14
REMARK H PARENT
REMARK Flexibility Score: inf
ROOT
ATOM      1  C   UNL     1       6.007   1.634   1.162  1.00  0.00     0.080 C 
ENDROOT
BRANCH   1   2
ATOM      2  C   UNL     1       5.432   0.529   1.979  1.00  0.00     0.130 C 
ATOM      3  C   UNL     1       6.217  -0.692   2.304  1.00  0.00     0.087 C 
ATOM      4  O   UNL     1       4.292   0.595   2.408  1.00  0.00    -0.300 OA
ENDBRANCH   1   2
BRANCH   1   5
ATOM      5  C   UNL     1       5.733   1.426  -0.315  1.00  0.00     0.043 C 
BRANCH   5   6
ATOM      6  C   UNL     1       6.803   0.648  -0.965  1.00  0.00    -0.044 A 
ATOM      7  C   UNL     1       8.148   1.019  -0.859  1.00  0.00     0.008 A 
ATOM      8  C   UNL     1       6.483  -0.475  -1.694  1.00  0.00     0.054 A 
ATOM      9  C   UNL     1       9.109   0.250  -1.490  1.00  0.00     0.051 A 
ATOM     10  C   UNL     1       7.458  -1.250  -2.330  1.00  0.00     0.166 A 
ATOM     11  C   UNL     1       8.781  -0.884  -2.227  1.00  0.00     0.165 A 
ATOM     12  O   UNL     1       7.395  -2.391  -3.101  1.00  0.00    -0.454 OA
ATOM     13  O   UNL     1       9.512  -1.818  -2.944  1.00  0.00    -0.454 OA
ATOM     14  C   UNL     1       8.682  -2.842  -3.438  1.00  0.00     0.468 C 
ENDBRANCH   5   6
ENDBRANCH   1   5
TORSDOF 3
ENDMDL
MODEL 2
REMARK VINA RESULT:      -7.7      1.924      2.662
REMARK SMILES CC(=O)CCc1ccc2c(c1)OCO2
REMARK SMILES IDX 4 1 2 2 1 3 3 4 5 5 6 6 7 7 11 8 8 9 10 10 9 11 12 12 14 13
REMARK SMILES IDX 13 14
REMARK H PARENT
REMARK Flexibility Score: inf
ROOT
ATOM      1  C   UNL     1       5.547   2.827   0.120  1.00  0.00     0.080 C 
ENDROOT
BRANCH   1   2
ATOM      2  C   UNL     1       6.282   3.782   0.995  1.00  0.00     0.130 C 
ATOM      3  C   UNL     1       7.239   4.775   0.437  1.00  0.00     0.087 C 
ATOM      4  O   UNL     1       6.119   3.776   2.205  1.00  0.00    -0.300 OA
ENDBRANCH   1   2
BRANCH   1   5
ATOM      5  C   UNL     1       5.298   1.510   0.829  1.00  0.00     0.043 C 
BRANCH   5   6
ATOM      6  C   UNL     1       6.132   0.427   0.280  1.00  0.00    -0.044 A 
ATOM      7  C   UNL     1       6.551  -0.649   1.071  1.00  0.00     0.008 A 
ATOM      8  C   UNL     1       6.510   0.461  -1.043  1.00  0.00     0.054 A 
ATOM      9  C   UNL     1       7.332  -1.637   0.501  1.00  0.00     0.051 A 
ATOM     10  C   UNL     1       7.299  -0.541  -1.615  1.00  0.00     0.166 A 
ATOM     11  C   UNL     1       7.714  -1.599  -0.837  1.00  0.00     0.165 A 
ATOM     12  O   UNL     1       7.801  -0.732  -2.885  1.00  0.00    -0.454 OA
ATOM     13  O   UNL     1       8.468  -2.426  -1.654  1.00  0.00    -0.454 OA
ATOM     14  C   UNL     1       8.474  -1.961  -2.982  1.00  0.00     0.468 C 
ENDBRANCH   5   6
ENDBRANCH   1   5
TORSDOF 3
ENDMDL
MODEL 3
REMARK VINA RESULT:      -7.3      1.584      2.093
REMARK SMILES CC(=O)CCc1ccc2c(c1)OCO2
REMARK SMILES IDX 4 1 2 2 1 3 3 4 5 5 6 6 7 7 11 8 8 9 10 10 9 11 12 12 14 13
REMARK SMILES IDX 13 14
REMARK H PARENT
REMARK Flexibility Score: inf
ROOT
ATOM      1  C   UNL     1       5.697   1.423  -0.506  1.00  0.00     0.080 C 
ENDROOT
BRANCH   1   2
ATOM      2  C   UNL     1       5.370   2.429   0.542  1.00  0.00     0.130 C 
ATOM      3  C   UNL     1       6.164   3.677   0.702  1.00  0.00     0.087 C 
ATOM      4  O   UNL     1       4.434   2.256   1.306  1.00  0.00    -0.300 OA
ENDBRANCH   1   2
BRANCH   1   5
ATOM      5  C   UNL     1       6.604   0.337   0.037  1.00  0.00     0.043 C 
BRANCH   5   6
ATOM      6  C   UNL     1       7.274  -0.408  -1.044  1.00  0.00    -0.044 A 
ATOM      7  C   UNL     1       7.617   0.207  -2.254  1.00  0.00     0.008 A 
ATOM      8  C   UNL     1       7.577  -1.739  -0.869  1.00  0.00     0.054 A 
ATOM      9  C   UNL     1       8.245  -0.542  -3.232  1.00  0.00     0.051 A 
ATOM     10  C   UNL     1       8.212  -2.491  -1.862  1.00  0.00     0.166 A 
ATOM     11  C   UNL     1       8.549  -1.888  -3.053  1.00  0.00     0.165 A 
ATOM     12  O   UNL     1       8.613  -3.809  -1.930  1.00  0.00    -0.454 OA
ATOM     13  O   UNL     1       9.157  -2.857  -3.835  1.00  0.00    -0.454 OA
ATOM     14  C   UNL     1       9.300  -4.066  -3.128  1.00  0.00     0.468 C 
ENDBRANCH   5   6
ENDBRANCH   1   5
TORSDOF 3
ENDMDL
