@<TRIPOS>MOLECULE
/home/cewinharhar/GITHUB/reincatalyze/data/processed/docking_pred/2023-May-22-1739_sub9_nm5_bs15_s42_ex16_mel10_mts1000_k50_ec02_g099_lra9e-4_lrc1e-3/1e16add1d5649bf0b13dd0d86c7d3fc630d89625_ligand_9.pdbqt
 14 15 0 0 0
SMALL
GASTEIGER

@<TRIPOS>ATOM
      1  C          5.5470    2.8270    0.1200 C.3     1  UNL1        0.0800
      2  C          6.2820    3.7820    0.9950 C.2     1  UNL1        0.1300
      3  C          7.2390    4.7750    0.4370 C.3     1  UNL1        0.0870
      4  O          6.1190    3.7760    2.2050 O.2     1  UNL1       -0.3000
      5  C          5.2980    1.5100    0.8290 C.3     1  UNL1        0.0430
      6  C          6.1320    0.4270    0.2800 C.2     1  UNL1       -0.0440
      7  C          6.5510   -0.6490    1.0710 C.2     1  UNL1        0.0080
      8  C          6.5100    0.4610   -1.0430 C.2     1  UNL1        0.0540
      9  C          7.3320   -1.6370    0.5010 C.2     1  UNL1        0.0510
     10  C          7.2990   -0.5410   -1.6150 C.2     1  UNL1        0.1660
     11  C          7.7140   -1.5990   -0.8370 C.2     1  UNL1        0.1650
     12  O          7.8010   -0.7320   -2.8850 O.2     1  UNL1       -0.4540
     13  O          8.4680   -2.4260   -1.6540 O.2     1  UNL1       -0.4540
     14  C          8.4740   -1.9610   -2.9820 C.3     1  UNL1        0.4680
@<TRIPOS>BOND
     1    14    12    1
     2    14    13    1
     3    12    10    1
     4    13    11    1
     5    10     8    1
     6    10    11    2
     7     8     6    2
     8    11     9    1
     9     1     5    1
    10     1     2    1
    11     6     5    1
    12     6     7    1
    13     3     2    1
    14     9     7    2
    15     2     4    2
