@<TRIPOS>MOLECULE
/home/cewinharhar/GITHUB/reincatalyze/data/processed/docking_pred/2023-May-22-1739_sub9_nm5_bs15_s42_ex16_mel10_mts1000_k50_ec02_g099_lra9e-4_lrc1e-3/1e16add1d5649bf0b13dd0d86c7d3fc630d89625_ligand_9.pdbqt
 14 15 0 0 0
SMALL
GASTEIGER

@<TRIPOS>ATOM
      1  C          5.6970    1.4230   -0.5060 C.3     1  UNL1        0.0800
      2  C          5.3700    2.4290    0.5420 C.2     1  UNL1        0.1300
      3  C          6.1640    3.6770    0.7020 C.3     1  UNL1        0.0870
      4  O          4.4340    2.2560    1.3060 O.2     1  UNL1       -0.3000
      5  C          6.6040    0.3370    0.0370 C.3     1  UNL1        0.0430
      6  C          7.2740   -0.4080   -1.0440 C.2     1  UNL1       -0.0440
      7  C          7.6170    0.2070   -2.2540 C.2     1  UNL1        0.0080
      8  C          7.5770   -1.7390   -0.8690 C.2     1  UNL1        0.0540
      9  C          8.2450   -0.5420   -3.2320 C.2     1  UNL1        0.0510
     10  C          8.2120   -2.4910   -1.8620 C.2     1  UNL1        0.1660
     11  C          8.5490   -1.8880   -3.0530 C.2     1  UNL1        0.1650
     12  O          8.6130   -3.8090   -1.9300 O.2     1  UNL1       -0.4540
     13  O          9.1570   -2.8570   -3.8350 O.2     1  UNL1       -0.4540
     14  C          9.3000   -4.0660   -3.1280 C.3     1  UNL1        0.4680
@<TRIPOS>BOND
     1    13    14    1
     2    13    11    1
     3     9    11    2
     4     9     7    1
     5    14    12    1
     6    11    10    1
     7     7     6    2
     8    12    10    1
     9    10     8    2
    10     6     8    1
    11     6     5    1
    12     1     5    1
    13     1     2    1
    14     2     3    1
    15     2     4    2
