@<TRIPOS>MOLECULE
/home/cewinharhar/GITHUB/reincatalyze/data/processed/docking_pred/2023-May-22-1739_sub9_nm5_bs15_s42_ex16_mel10_mts1000_k50_ec02_g099_lra9e-4_lrc1e-3/1f53ccdef65850680f3a99c865464637782ca6a5_ligand_9.pdbqt
 14 15 0 0 0
SMALL
GASTEIGER

@<TRIPOS>ATOM
      1  C          5.6170    1.2970   -0.5390 C.3     1  UNL1        0.0800
      2  C          5.3360    2.3080    0.5180 C.2     1  UNL1        0.1300
      3  C          6.0700    3.6010    0.5780 C.3     1  UNL1        0.0870
      4  O          4.4890    2.1030    1.3730 O.2     1  UNL1       -0.3000
      5  C          7.1080    1.1300   -0.7580 C.3     1  UNL1        0.0430
      6  C          7.5560   -0.2380   -0.4440 C.2     1  UNL1       -0.0440
      7  C          7.7210   -0.6710    0.8760 C.2     1  UNL1        0.0080
      8  C          7.8200   -1.1210   -1.4670 C.2     1  UNL1        0.0540
      9  C          8.1430   -1.9670    1.1100 C.2     1  UNL1        0.0510
     10  C          8.2470   -2.4300   -1.2260 C.2     1  UNL1        0.1660
     11  C          8.4100   -2.8570    0.0740 C.2     1  UNL1        0.1650
     12  O          8.5700   -3.4820   -2.0570 O.2     1  UNL1       -0.4540
     13  O          8.8330   -4.1750    0.0130 O.2     1  UNL1       -0.4540
     14  C          8.8600   -4.6390   -1.3160 C.3     1  UNL1        0.4680
@<TRIPOS>BOND
     1    12    14    1
     2    12    10    1
     3     8    10    1
     4     8     6    2
     5    14    13    1
     6    10    11    2
     7     5     1    1
     8     5     6    1
     9     1     2    1
    10     6     7    1
    11    13    11    1
    12    11     9    1
    13     2     3    1
    14     2     4    2
    15     7     9    2
