MODEL 1
REMARK VINA RESULT:      -7.6      0.000      0.000
REMARK SMILES CC(=O)CCc1ccc2c(c1)OCO2
REMARK SMILES IDX 4 1 2 2 1 3 3 4 5 5 6 6 7 7 11 8 8 9 10 10 9 11 12 12 14 13
REMARK SMILES IDX 13 14
REMARK H PARENT
REMARK Flexibility Score: inf
ROOT
ATOM      1  C   UNL     1       5.509   1.918   1.245  1.00  0.00     0.080 C 
ENDROOT
BRANCH   1   2
ATOM      2  C   UNL     1       5.061   0.713   1.996  1.00  0.00     0.130 C 
ATOM      3  C   UNL     1       5.939  -0.478   2.158  1.00  0.00     0.087 C 
ATOM      4  O   UNL     1       3.952   0.667   2.504  1.00  0.00    -0.300 OA
ENDBRANCH   1   2
BRANCH   1   5
ATOM      5  C   UNL     1       5.384   1.713  -0.251  1.00  0.00     0.043 C 
BRANCH   5   6
ATOM      6  C   UNL     1       6.558   1.015  -0.807  1.00  0.00    -0.044 A 
ATOM      7  C   UNL     1       7.862   1.453  -0.547  1.00  0.00     0.008 A 
ATOM      8  C   UNL     1       6.379  -0.096  -1.599  1.00  0.00     0.054 A 
ATOM      9  C   UNL     1       8.925   0.758  -1.095  1.00  0.00     0.051 A 
ATOM     10  C   UNL     1       7.457  -0.795  -2.150  1.00  0.00     0.166 A 
ATOM     11  C   UNL     1       8.740  -0.364  -1.896  1.00  0.00     0.165 A 
ATOM     12  O   UNL     1       7.540  -1.910  -2.957  1.00  0.00    -0.454 OA
ATOM     13  O   UNL     1       9.593  -1.233  -2.559  1.00  0.00    -0.454 OA
ATOM     14  C   UNL     1       8.878  -2.281  -3.169  1.00  0.00     0.468 C 
ENDBRANCH   5   6
ENDBRANCH   1   5
TORSDOF 3
ENDMDL
MODEL 2
REMARK VINA RESULT:      -7.5      1.937      2.404
REMARK SMILES CC(=O)CCc1ccc2c(c1)OCO2
REMARK SMILES IDX 4 1 2 2 1 3 3 4 5 5 6 6 7 7 11 8 8 9 10 10 9 11 12 12 14 13
REMARK SMILES IDX 13 14
REMARK H PARENT
REMARK Flexibility Score: inf
ROOT
ATOM      1  C   UNL     1       5.749   1.337  -0.336  1.00  0.00     0.080 C 
ENDROOT
BRANCH   1   2
ATOM      2  C   UNL     1       5.136   1.287   1.020  1.00  0.00     0.130 C 
ATOM      3  C   UNL     1       5.351   0.133   1.933  1.00  0.00     0.087 C 
ATOM      4  O   UNL     1       4.433   2.200   1.424  1.00  0.00    -0.300 OA
ENDBRANCH   1   2
BRANCH   1   5
ATOM      5  C   UNL     1       7.245   1.100  -0.273  1.00  0.00     0.043 C 
BRANCH   5   6
ATOM      6  C   UNL     1       7.619  -0.195  -0.869  1.00  0.00    -0.044 A 
ATOM      7  C   UNL     1       7.697  -0.369  -2.256  1.00  0.00     0.008 A 
ATOM      8  C   UNL     1       7.903  -1.266  -0.052  1.00  0.00     0.054 A 
ATOM      9  C   UNL     1       8.054  -1.607  -2.758  1.00  0.00     0.051 A 
ATOM     10  C   UNL     1       8.264  -2.515  -0.565  1.00  0.00     0.166 A 
ATOM     11  C   UNL     1       8.340  -2.687  -1.929  1.00  0.00     0.165 A 
ATOM     12  O   UNL     1       8.589  -3.716   0.029  1.00  0.00    -0.454 OA
ATOM     13  O   UNL     1       8.714  -4.004  -2.147  1.00  0.00    -0.454 OA
ATOM     14  C   UNL     1       8.971  -4.667  -0.932  1.00  0.00     0.468 C 
ENDBRANCH   5   6
ENDBRANCH   1   5
TORSDOF 3
ENDMDL
MODEL 3
REMARK VINA RESULT:      -7.2      2.207      2.720
REMARK SMILES CC(=O)CCc1ccc2c(c1)OCO2
REMARK SMILES IDX 4 1 2 2 1 3 3 4 5 5 6 6 7 7 11 8 8 9 10 10 9 11 12 12 14 13
REMARK SMILES IDX 13 14
REMARK H PARENT
REMARK Flexibility Score: inf
ROOT
ATOM      1  C   UNL     1       5.617   1.297  -0.539  1.00  0.00     0.080 C 
ENDROOT
BRANCH   1   2
ATOM      2  C   UNL     1       5.336   2.308   0.518  1.00  0.00     0.130 C 
ATOM      3  C   UNL     1       6.070   3.601   0.578  1.00  0.00     0.087 C 
ATOM      4  O   UNL     1       4.489   2.103   1.373  1.00  0.00    -0.300 OA
ENDBRANCH   1   2
BRANCH   1   5
ATOM      5  C   UNL     1       7.108   1.130  -0.758  1.00  0.00     0.043 C 
BRANCH   5   6
ATOM      6  C   UNL     1       7.556  -0.238  -0.444  1.00  0.00    -0.044 A 
ATOM      7  C   UNL     1       7.721  -0.671   0.876  1.00  0.00     0.008 A 
ATOM      8  C   UNL     1       7.820  -1.121  -1.467  1.00  0.00     0.054 A 
ATOM      9  C   UNL     1       8.143  -1.967   1.110  1.00  0.00     0.051 A 
ATOM     10  C   UNL     1       8.247  -2.430  -1.226  1.00  0.00     0.166 A 
ATOM     11  C   UNL     1       8.410  -2.857   0.074  1.00  0.00     0.165 A 
ATOM     12  O   UNL     1       8.570  -3.482  -2.057  1.00  0.00    -0.454 OA
ATOM     13  O   UNL     1       8.833  -4.175   0.013  1.00  0.00    -0.454 OA
ATOM     14  C   UNL     1       8.860  -4.639  -1.316  1.00  0.00     0.468 C 
ENDBRANCH   5   6
ENDBRANCH   1   5
TORSDOF 3
ENDMDL
