@<TRIPOS>MOLECULE
/home/cewinharhar/GITHUB/reincatalyze/data/processed/docking_pred/2023-May-22-1739_sub9_nm5_bs15_s42_ex16_mel10_mts1000_k50_ec02_g099_lra9e-4_lrc1e-3/1f53ccdef65850680f3a99c865464637782ca6a5_ligand_9.pdbqt
 14 15 0 0 0
SMALL
GASTEIGER

@<TRIPOS>ATOM
      1  C          5.5090    1.9180    1.2450 C.3     1  UNL1        0.0800
      2  C          5.0610    0.7130    1.9960 C.2     1  UNL1        0.1300
      3  C          5.9390   -0.4780    2.1580 C.3     1  UNL1        0.0870
      4  O          3.9520    0.6670    2.5040 O.2     1  UNL1       -0.3000
      5  C          5.3840    1.7130   -0.2510 C.3     1  UNL1        0.0430
      6  C          6.5580    1.0150   -0.8070 C.2     1  UNL1       -0.0440
      7  C          7.8620    1.4530   -0.5470 C.2     1  UNL1        0.0080
      8  C          6.3790   -0.0960   -1.5990 C.2     1  UNL1        0.0540
      9  C          8.9250    0.7580   -1.0950 C.2     1  UNL1        0.0510
     10  C          7.4570   -0.7950   -2.1500 C.2     1  UNL1        0.1660
     11  C          8.7400   -0.3640   -1.8960 C.2     1  UNL1        0.1650
     12  O          7.5400   -1.9100   -2.9570 O.2     1  UNL1       -0.4540
     13  O          9.5930   -1.2330   -2.5590 O.2     1  UNL1       -0.4540
     14  C          8.8780   -2.2810   -3.1690 C.3     1  UNL1        0.4680
@<TRIPOS>BOND
     1    14    12    1
     2    14    13    1
     3    12    10    1
     4    13    11    1
     5    10    11    2
     6    10     8    1
     7    11     9    1
     8     8     6    2
     9     9     7    2
    10     6     7    1
    11     6     5    1
    12     5     1    1
    13     1     2    1
    14     2     3    1
    15     2     4    2
