@<TRIPOS>MOLECULE
/home/cewinharhar/GITHUB/reincatalyze/data/processed/docking_pred/2023-May-22-1739_sub9_nm5_bs15_s42_ex16_mel10_mts1000_k50_ec02_g099_lra9e-4_lrc1e-3/1f53ccdef65850680f3a99c865464637782ca6a5_ligand_9.pdbqt
 14 15 0 0 0
SMALL
GASTEIGER

@<TRIPOS>ATOM
      1  C          5.7490    1.3370   -0.3360 C.3     1  UNL1        0.0800
      2  C          5.1360    1.2870    1.0200 C.2     1  UNL1        0.1300
      3  C          5.3510    0.1330    1.9330 C.3     1  UNL1        0.0870
      4  O          4.4330    2.2000    1.4240 O.2     1  UNL1       -0.3000
      5  C          7.2450    1.1000   -0.2730 C.3     1  UNL1        0.0430
      6  C          7.6190   -0.1950   -0.8690 C.2     1  UNL1       -0.0440
      7  C          7.6970   -0.3690   -2.2560 C.2     1  UNL1        0.0080
      8  C          7.9030   -1.2660   -0.0520 C.2     1  UNL1        0.0540
      9  C          8.0540   -1.6070   -2.7580 C.2     1  UNL1        0.0510
     10  C          8.2640   -2.5150   -0.5650 C.2     1  UNL1        0.1660
     11  C          8.3400   -2.6870   -1.9290 C.2     1  UNL1        0.1650
     12  O          8.5890   -3.7160    0.0290 O.2     1  UNL1       -0.4540
     13  O          8.7140   -4.0040   -2.1470 O.2     1  UNL1       -0.4540
     14  C          8.9710   -4.6670   -0.9320 C.3     1  UNL1        0.4680
@<TRIPOS>BOND
     1     9     7    1
     2     9    11    2
     3     7     6    2
     4    13    11    1
     5    13    14    1
     6    11    10    1
     7    14    12    1
     8     6     5    1
     9     6     8    1
    10    10     8    2
    11    10    12    1
    12     1     5    1
    13     1     2    1
    14     2     4    2
    15     2     3    1
