@<TRIPOS>MOLECULE
/home/cewinharhar/GITHUB/reincatalyze/data/processed/docking_pred/2023-May-22-1739_sub9_nm5_bs15_s42_ex16_mel10_mts1000_k50_ec02_g099_lra9e-4_lrc1e-3/2368d29bb7bbfa5e31d33bb3936e2ea89938fe66_ligand_9.pdbqt
 14 15 0 0 0
SMALL
GASTEIGER

@<TRIPOS>ATOM
      1  C          5.3320    3.0640    0.2280 C.3     1  UNL1        0.0800
      2  C          6.3950    3.7220    1.0380 C.2     1  UNL1        0.1300
      3  C          7.2750    4.7740    0.4630 C.3     1  UNL1        0.0870
      4  O          6.5750    3.4140    2.2040 O.2     1  UNL1       -0.3000
      5  C          4.9810    1.6990    0.7850 C.3     1  UNL1        0.0430
      6  C          5.8740    0.6490    0.2620 C.2     1  UNL1       -0.0440
      7  C          6.3500    0.6800   -1.0530 C.2     1  UNL1        0.0080
      8  C          6.2570   -0.3900    1.0790 C.2     1  UNL1        0.0540
      9  C          7.1860   -0.3320   -1.4880 C.2     1  UNL1        0.0510
     10  C          7.1030   -1.4110    0.6350 C.2     1  UNL1        0.1660
     11  C          7.5710   -1.3810   -0.6600 C.2     1  UNL1        0.1650
     12  O          7.6190   -2.5350    1.2430 O.2     1  UNL1       -0.4540
     13  O          8.3750   -2.4990   -0.8210 O.2     1  UNL1       -0.4540
     14  C          8.5060   -3.2090    0.3870 C.3     1  UNL1        0.4680
@<TRIPOS>BOND
     1     9     7    1
     2     9    11    2
     3     7     6    2
     4    13    11    1
     5    13    14    1
     6    11    10    1
     7     1     5    1
     8     1     2    1
     9     6     5    1
    10     6     8    1
    11    14    12    1
    12     3     2    1
    13    10     8    2
    14    10    12    1
    15     2     4    2
