@<TRIPOS>MOLECULE
/home/cewinharhar/GITHUB/reincatalyze/data/processed/docking_pred/2023-May-22-1739_sub9_nm5_bs15_s42_ex16_mel10_mts1000_k50_ec02_g099_lra9e-4_lrc1e-3/2368d29bb7bbfa5e31d33bb3936e2ea89938fe66_ligand_9.pdbqt
 14 15 0 0 0
SMALL
GASTEIGER

@<TRIPOS>ATOM
      1  C          6.0090    1.6150    1.1420 C.3     1  UNL1        0.0800
      2  C          5.4600    0.5020    1.9650 C.2     1  UNL1        0.1300
      3  C          6.2620   -0.7130    2.2690 C.3     1  UNL1        0.0870
      4  O          4.3280    0.5570    2.4180 O.2     1  UNL1       -0.3000
      5  C          5.7400    1.3930   -0.3340 C.3     1  UNL1        0.0430
      6  C          6.8140    0.6140   -0.9740 C.2     1  UNL1       -0.0440
      7  C          8.1600    0.9780   -0.8470 C.2     1  UNL1        0.0080
      8  C          6.4990   -0.5030   -1.7150 C.2     1  UNL1        0.0540
      9  C          9.1250    0.2080   -1.4700 C.2     1  UNL1        0.0510
     10  C          7.4790   -1.2780   -2.3420 C.2     1  UNL1        0.1660
     11  C          8.8030   -0.9190   -2.2180 C.2     1  UNL1        0.1650
     12  O          7.4220   -2.4140   -3.1210 O.2     1  UNL1       -0.4540
     13  O          9.5390   -1.8530   -2.9310 O.2     1  UNL1       -0.4540
     14  C          8.7110   -2.8690   -3.4440 C.3     1  UNL1        0.4680
@<TRIPOS>BOND
     1    14    12    1
     2    14    13    1
     3    12    10    1
     4    13    11    1
     5    10    11    2
     6    10     8    1
     7    11     9    1
     8     8     6    2
     9     9     7    2
    10     6     7    1
    11     6     5    1
    12     5     1    1
    13     1     2    1
    14     2     3    1
    15     2     4    2
