@<TRIPOS>MOLECULE
/home/cewinharhar/GITHUB/reincatalyze/data/processed/docking_pred/2023-May-22-1739_sub9_nm5_bs15_s42_ex16_mel10_mts1000_k50_ec02_g099_lra9e-4_lrc1e-3/2368d29bb7bbfa5e31d33bb3936e2ea89938fe66_ligand_9.pdbqt
 14 15 0 0 0
SMALL
GASTEIGER

@<TRIPOS>ATOM
      1  C          5.5450    2.7860   -0.0250 C.3     1  UNL1        0.0800
      2  C          6.2740    3.7010    0.8970 C.2     1  UNL1        0.1300
      3  C          7.1670    4.7750    0.3870 C.3     1  UNL1        0.0870
      4  O          6.1580    3.5930    2.1070 O.2     1  UNL1       -0.3000
      5  C          5.7470    1.3350    0.3660 C.3     1  UNL1        0.0430
      6  C          6.7810    0.6860   -0.4590 C.2     1  UNL1       -0.0440
      7  C          8.0870    1.1860   -0.5250 C.2     1  UNL1        0.0080
      8  C          6.4680   -0.4420   -1.1830 C.2     1  UNL1        0.0540
      9  C          9.0160    0.5350   -1.3150 C.2     1  UNL1        0.0510
     10  C          7.4120   -1.0970   -1.9800 C.2     1  UNL1        0.1660
     11  C          8.6960   -0.6050   -2.0470 C.2     1  UNL1        0.1650
     12  O          7.3490   -2.2170   -2.7830 O.2     1  UNL1       -0.4540
     13  O          9.4020   -1.4410   -2.8970 O.2     1  UNL1       -0.4540
     14  C          8.6110   -2.5280   -3.3140 C.3     1  UNL1        0.4680
@<TRIPOS>BOND
     1    14    13    1
     2    14    12    1
     3    13    11    1
     4    12    10    1
     5    11    10    2
     6    11     9    1
     7    10     8    1
     8     9     7    2
     9     8     6    2
    10     7     6    1
    11     6     5    1
    12     1     5    1
    13     1     2    1
    14     3     2    1
    15     2     4    2
