MODEL 1
REMARK VINA RESULT:      -8.1      0.000      0.000
REMARK SMILES CC(=O)CCc1ccc2c(c1)OCO2
REMARK SMILES IDX 4 1 2 2 1 3 3 4 5 5 6 6 7 7 11 8 8 9 10 10 9 11 12 12 14 13
REMARK SMILES IDX 13 14
REMARK H PARENT
REMARK Flexibility Score: inf
ROOT
ATOM      1  C   UNL     1       6.009   1.615   1.142  1.00  0.00     0.080 C 
ENDROOT
BRANCH   1   2
ATOM      2  C   UNL     1       5.460   0.502   1.965  1.00  0.00     0.130 C 
ATOM      3  C   UNL     1       6.262  -0.713   2.269  1.00  0.00     0.087 C 
ATOM      4  O   UNL     1       4.328   0.557   2.418  1.00  0.00    -0.300 OA
ENDBRANCH   1   2
BRANCH   1   5
ATOM      5  C   UNL     1       5.740   1.393  -0.334  1.00  0.00     0.043 C 
BRANCH   5   6
ATOM      6  C   UNL     1       6.814   0.614  -0.974  1.00  0.00    -0.044 A 
ATOM      7  C   UNL     1       8.160   0.978  -0.847  1.00  0.00     0.008 A 
ATOM      8  C   UNL     1       6.499  -0.503  -1.715  1.00  0.00     0.054 A 
ATOM      9  C   UNL     1       9.125   0.208  -1.470  1.00  0.00     0.051 A 
ATOM     10  C   UNL     1       7.479  -1.278  -2.342  1.00  0.00     0.166 A 
ATOM     11  C   UNL     1       8.803  -0.919  -2.218  1.00  0.00     0.165 A 
ATOM     12  O   UNL     1       7.422  -2.414  -3.121  1.00  0.00    -0.454 OA
ATOM     13  O   UNL     1       9.539  -1.853  -2.931  1.00  0.00    -0.454 OA
ATOM     14  C   UNL     1       8.711  -2.869  -3.444  1.00  0.00     0.468 C 
ENDBRANCH   5   6
ENDBRANCH   1   5
TORSDOF 3
ENDMDL
MODEL 2
REMARK VINA RESULT:      -7.8      1.541      2.143
REMARK SMILES CC(=O)CCc1ccc2c(c1)OCO2
REMARK SMILES IDX 4 1 2 2 1 3 3 4 5 5 6 6 7 7 11 8 8 9 10 10 9 11 12 12 14 13
REMARK SMILES IDX 13 14
REMARK H PARENT
REMARK Flexibility Score: inf
ROOT
ATOM      1  C   UNL     1       5.545   2.786  -0.025  1.00  0.00     0.080 C 
ENDROOT
BRANCH   1   2
ATOM      2  C   UNL     1       6.274   3.701   0.897  1.00  0.00     0.130 C 
ATOM      3  C   UNL     1       7.167   4.775   0.387  1.00  0.00     0.087 C 
ATOM      4  O   UNL     1       6.158   3.593   2.107  1.00  0.00    -0.300 OA
ENDBRANCH   1   2
BRANCH   1   5
ATOM      5  C   UNL     1       5.747   1.335   0.366  1.00  0.00     0.043 C 
BRANCH   5   6
ATOM      6  C   UNL     1       6.781   0.686  -0.459  1.00  0.00    -0.044 A 
ATOM      7  C   UNL     1       8.087   1.186  -0.525  1.00  0.00     0.008 A 
ATOM      8  C   UNL     1       6.468  -0.442  -1.183  1.00  0.00     0.054 A 
ATOM      9  C   UNL     1       9.016   0.535  -1.315  1.00  0.00     0.051 A 
ATOM     10  C   UNL     1       7.412  -1.097  -1.980  1.00  0.00     0.166 A 
ATOM     11  C   UNL     1       8.696  -0.605  -2.047  1.00  0.00     0.165 A 
ATOM     12  O   UNL     1       7.349  -2.217  -2.783  1.00  0.00    -0.454 OA
ATOM     13  O   UNL     1       9.402  -1.441  -2.897  1.00  0.00    -0.454 OA
ATOM     14  C   UNL     1       8.611  -2.528  -3.314  1.00  0.00     0.468 C 
ENDBRANCH   5   6
ENDBRANCH   1   5
TORSDOF 3
ENDMDL
MODEL 3
REMARK VINA RESULT:      -7.6      2.416      3.119
REMARK SMILES CC(=O)CCc1ccc2c(c1)OCO2
REMARK SMILES IDX 4 1 2 2 1 3 3 4 5 5 6 6 7 7 11 8 8 9 10 10 9 11 12 12 14 13
REMARK SMILES IDX 13 14
REMARK H PARENT
REMARK Flexibility Score: inf
ROOT
ATOM      1  C   UNL     1       5.332   3.064   0.228  1.00  0.00     0.080 C 
ENDROOT
BRANCH   1   2
ATOM      2  C   UNL     1       6.395   3.722   1.038  1.00  0.00     0.130 C 
ATOM      3  C   UNL     1       7.275   4.774   0.463  1.00  0.00     0.087 C 
ATOM      4  O   UNL     1       6.575   3.414   2.204  1.00  0.00    -0.300 OA
ENDBRANCH   1   2
BRANCH   1   5
ATOM      5  C   UNL     1       4.981   1.699   0.785  1.00  0.00     0.043 C 
BRANCH   5   6
ATOM      6  C   UNL     1       5.874   0.649   0.262  1.00  0.00    -0.044 A 
ATOM      7  C   UNL     1       6.350   0.680  -1.053  1.00  0.00     0.008 A 
ATOM      8  C   UNL     1       6.257  -0.390   1.079  1.00  0.00     0.054 A 
ATOM      9  C   UNL     1       7.186  -0.332  -1.488  1.00  0.00     0.051 A 
ATOM     10  C   UNL     1       7.103  -1.411   0.635  1.00  0.00     0.166 A 
ATOM     11  C   UNL     1       7.571  -1.381  -0.660  1.00  0.00     0.165 A 
ATOM     12  O   UNL     1       7.619  -2.535   1.243  1.00  0.00    -0.454 OA
ATOM     13  O   UNL     1       8.375  -2.499  -0.821  1.00  0.00    -0.454 OA
ATOM     14  C   UNL     1       8.506  -3.209   0.387  1.00  0.00     0.468 C 
ENDBRANCH   5   6
ENDBRANCH   1   5
TORSDOF 3
ENDMDL
