@<TRIPOS>MOLECULE
/home/cewinharhar/GITHUB/reincatalyze/data/processed/docking_pred/2023-May-22-1739_sub9_nm5_bs15_s42_ex16_mel10_mts1000_k50_ec02_g099_lra9e-4_lrc1e-3/25f547df8c587039729a955c6f4cb3c83005f49c_ligand_9.pdbqt
 14 15 0 0 0
SMALL
GASTEIGER

@<TRIPOS>ATOM
      1  C          5.7400    1.3140   -0.3020 C.3     1  UNL1        0.0800
      2  C          5.1660    1.2810    1.0720 C.2     1  UNL1        0.1300
      3  C          5.3270    0.0970    1.9570 C.3     1  UNL1        0.0870
      4  O          4.5420    2.2320    1.5130 O.2     1  UNL1       -0.3000
      5  C          7.2410    1.1000   -0.2770 C.3     1  UNL1        0.0430
      6  C          7.6180   -0.1920   -0.8770 C.2     1  UNL1       -0.0440
      7  C          7.7070   -0.3590   -2.2640 C.2     1  UNL1        0.0080
      8  C          7.8950   -1.2670   -0.0640 C.2     1  UNL1        0.0540
      9  C          8.0670   -1.5940   -2.7700 C.2     1  UNL1        0.0510
     10  C          8.2590   -2.5150   -0.5800 C.2     1  UNL1        0.1660
     11  C          8.3450   -2.6790   -1.9450 C.2     1  UNL1        0.1650
     12  O          8.5770   -3.7190    0.0100 O.2     1  UNL1       -0.4540
     13  O          8.7200   -3.9950   -2.1660 O.2     1  UNL1       -0.4540
     14  C          8.9660   -4.6650   -0.9530 C.3     1  UNL1        0.4680
@<TRIPOS>BOND
     1     9     7    1
     2     9    11    2
     3     7     6    2
     4    13    11    1
     5    13    14    1
     6    11    10    1
     7    14    12    1
     8     6     5    1
     9     6     8    1
    10    10     8    2
    11    10    12    1
    12     1     5    1
    13     1     2    1
    14     2     4    2
    15     2     3    1
