@<TRIPOS>MOLECULE
/home/cewinharhar/GITHUB/reincatalyze/data/processed/docking_pred/2023-May-22-1739_sub9_nm5_bs15_s42_ex16_mel10_mts1000_k50_ec02_g099_lra9e-4_lrc1e-3/25f547df8c587039729a955c6f4cb3c83005f49c_ligand_9.pdbqt
 14 15 0 0 0
SMALL
GASTEIGER

@<TRIPOS>ATOM
      1  C          6.9480    2.1660   -0.0730 C.3     1  UNL1        0.0800
      2  C          6.1010    2.9650    0.8560 C.2     1  UNL1        0.1300
      3  C          6.5310    4.2990    1.3540 C.3     1  UNL1        0.0870
      4  O          5.0210    2.5440    1.2380 O.2     1  UNL1       -0.3000
      5  C          6.1790    0.9950   -0.6500 C.3     1  UNL1        0.0430
      6  C          6.8410   -0.2900   -0.3610 C.2     1  UNL1       -0.0440
      7  C          7.0070   -0.7500    0.9500 C.2     1  UNL1        0.0080
      8  C          7.3080   -1.0660   -1.3980 C.2     1  UNL1        0.0540
      9  C          7.6350   -1.9640    1.1610 C.2     1  UNL1        0.0510
     10  C          7.9410   -2.2930   -1.1800 C.2     1  UNL1        0.1660
     11  C          8.1070   -2.7450    0.1100 C.2     1  UNL1        0.1650
     12  O          8.4860   -3.2330   -2.0280 O.2     1  UNL1       -0.4540
     13  O          8.7550   -3.9670    0.0260 O.2     1  UNL1       -0.4540
     14  C          8.9330   -4.3570   -1.3150 C.3     1  UNL1        0.4680
@<TRIPOS>BOND
     1    12    14    1
     2    12    10    1
     3     8    10    1
     4     8     6    2
     5    14    13    1
     6    10    11    2
     7     5     6    1
     8     5     1    1
     9     6     7    1
    10     1     2    1
    11    13    11    1
    12    11     9    1
    13     2     4    2
    14     2     3    1
    15     7     9    2
