MODEL 1
REMARK VINA RESULT:      -7.6      0.000      0.000
REMARK SMILES CC(=O)CCc1ccc2c(c1)OCO2
REMARK SMILES IDX 4 1 2 2 1 3 3 4 5 5 6 6 7 7 11 8 8 9 10 10 9 11 12 12 14 13
REMARK SMILES IDX 13 14
REMARK H PARENT
REMARK Flexibility Score: inf
ROOT
ATOM      1  C   UNL     1       5.546   1.910   1.282  1.00  0.00     0.080 C 
ENDROOT
BRANCH   1   2
ATOM      2  C   UNL     1       5.119   0.690   2.022  1.00  0.00     0.130 C 
ATOM      3  C   UNL     1       6.028  -0.475   2.197  1.00  0.00     0.087 C 
ATOM      4  O   UNL     1       4.003   0.610   2.508  1.00  0.00    -0.300 OA
ENDBRANCH   1   2
BRANCH   1   5
ATOM      5  C   UNL     1       5.412   1.721  -0.216  1.00  0.00     0.043 C 
BRANCH   5   6
ATOM      6  C   UNL     1       6.578   1.021  -0.785  1.00  0.00    -0.044 A 
ATOM      7  C   UNL     1       7.886   1.451  -0.533  1.00  0.00     0.008 A 
ATOM      8  C   UNL     1       6.387  -0.085  -1.582  1.00  0.00     0.054 A 
ATOM      9  C   UNL     1       8.941   0.754  -1.093  1.00  0.00     0.051 A 
ATOM     10  C   UNL     1       7.457  -0.786  -2.146  1.00  0.00     0.166 A 
ATOM     11  C   UNL     1       8.744  -0.363  -1.900  1.00  0.00     0.165 A 
ATOM     12  O   UNL     1       7.528  -1.896  -2.961  1.00  0.00    -0.454 OA
ATOM     13  O   UNL     1       9.588  -1.232  -2.574  1.00  0.00    -0.454 OA
ATOM     14  C   UNL     1       8.863  -2.272  -3.185  1.00  0.00     0.468 C 
ENDBRANCH   5   6
ENDBRANCH   1   5
TORSDOF 3
ENDMDL
MODEL 2
REMARK VINA RESULT:      -7.5      1.937      2.401
REMARK SMILES CC(=O)CCc1ccc2c(c1)OCO2
REMARK SMILES IDX 4 1 2 2 1 3 3 4 5 5 6 6 7 7 11 8 8 9 10 10 9 11 12 12 14 13
REMARK SMILES IDX 13 14
REMARK H PARENT
REMARK Flexibility Score: inf
ROOT
ATOM      1  C   UNL     1       5.740   1.314  -0.302  1.00  0.00     0.080 C 
ENDROOT
BRANCH   1   2
ATOM      2  C   UNL     1       5.166   1.281   1.072  1.00  0.00     0.130 C 
ATOM      3  C   UNL     1       5.327   0.097   1.957  1.00  0.00     0.087 C 
ATOM      4  O   UNL     1       4.542   2.232   1.513  1.00  0.00    -0.300 OA
ENDBRANCH   1   2
BRANCH   1   5
ATOM      5  C   UNL     1       7.241   1.100  -0.277  1.00  0.00     0.043 C 
BRANCH   5   6
ATOM      6  C   UNL     1       7.618  -0.192  -0.877  1.00  0.00    -0.044 A 
ATOM      7  C   UNL     1       7.707  -0.359  -2.264  1.00  0.00     0.008 A 
ATOM      8  C   UNL     1       7.895  -1.267  -0.064  1.00  0.00     0.054 A 
ATOM      9  C   UNL     1       8.067  -1.594  -2.770  1.00  0.00     0.051 A 
ATOM     10  C   UNL     1       8.259  -2.515  -0.580  1.00  0.00     0.166 A 
ATOM     11  C   UNL     1       8.345  -2.679  -1.945  1.00  0.00     0.165 A 
ATOM     12  O   UNL     1       8.577  -3.719   0.010  1.00  0.00    -0.454 OA
ATOM     13  O   UNL     1       8.720  -3.995  -2.166  1.00  0.00    -0.454 OA
ATOM     14  C   UNL     1       8.966  -4.665  -0.953  1.00  0.00     0.468 C 
ENDBRANCH   5   6
ENDBRANCH   1   5
TORSDOF 3
ENDMDL
MODEL 3
REMARK VINA RESULT:      -7.2      2.175      2.784
REMARK SMILES CC(=O)CCc1ccc2c(c1)OCO2
REMARK SMILES IDX 4 1 2 2 1 3 3 4 5 5 6 6 7 7 11 8 8 9 10 10 9 11 12 12 14 13
REMARK SMILES IDX 13 14
REMARK H PARENT
REMARK Flexibility Score: inf
ROOT
ATOM      1  C   UNL     1       6.948   2.166  -0.073  1.00  0.00     0.080 C 
ENDROOT
BRANCH   1   2
ATOM      2  C   UNL     1       6.101   2.965   0.856  1.00  0.00     0.130 C 
ATOM      3  C   UNL     1       6.531   4.299   1.354  1.00  0.00     0.087 C 
ATOM      4  O   UNL     1       5.021   2.544   1.238  1.00  0.00    -0.300 OA
ENDBRANCH   1   2
BRANCH   1   5
ATOM      5  C   UNL     1       6.179   0.995  -0.650  1.00  0.00     0.043 C 
BRANCH   5   6
ATOM      6  C   UNL     1       6.841  -0.290  -0.361  1.00  0.00    -0.044 A 
ATOM      7  C   UNL     1       7.007  -0.750   0.950  1.00  0.00     0.008 A 
ATOM      8  C   UNL     1       7.308  -1.066  -1.398  1.00  0.00     0.054 A 
ATOM      9  C   UNL     1       7.635  -1.964   1.161  1.00  0.00     0.051 A 
ATOM     10  C   UNL     1       7.941  -2.293  -1.180  1.00  0.00     0.166 A 
ATOM     11  C   UNL     1       8.107  -2.745   0.110  1.00  0.00     0.165 A 
ATOM     12  O   UNL     1       8.486  -3.233  -2.028  1.00  0.00    -0.454 OA
ATOM     13  O   UNL     1       8.755  -3.967   0.026  1.00  0.00    -0.454 OA
ATOM     14  C   UNL     1       8.933  -4.357  -1.315  1.00  0.00     0.468 C 
ENDBRANCH   5   6
ENDBRANCH   1   5
TORSDOF 3
ENDMDL
