@<TRIPOS>MOLECULE
/home/cewinharhar/GITHUB/reincatalyze/data/processed/docking_pred/2023-May-22-1739_sub9_nm5_bs15_s42_ex16_mel10_mts1000_k50_ec02_g099_lra9e-4_lrc1e-3/2b611616233e02901686b2fc0a6dd8ec9c570ff2_ligand_9.pdbqt
 14 15 0 0 0
SMALL
GASTEIGER

@<TRIPOS>ATOM
      1  C          5.5220    2.8570    0.1330 C.3     1  UNL1        0.0800
      2  C          6.2820    3.8030    0.9960 C.2     1  UNL1        0.1300
      3  C          7.2570    4.7700    0.4260 C.3     1  UNL1        0.0870
      4  O          6.1260    3.8100    2.2070 O.2     1  UNL1       -0.3000
      5  C          5.2440    1.5540    0.8550 C.3     1  UNL1        0.0430
      6  C          6.0750    0.4530    0.3360 C.2     1  UNL1       -0.0440
      7  C          6.4520   -0.6250    1.1450 C.2     1  UNL1        0.0080
      8  C          6.4940    0.4740   -0.9750 C.2     1  UNL1        0.0540
      9  C          7.2330   -1.6300    0.6020 C.2     1  UNL1        0.0510
     10  C          7.2820   -0.5440   -1.5190 C.2     1  UNL1        0.1660
     11  C          7.6550   -1.6050   -0.7230 C.2     1  UNL1        0.1650
     12  O          7.8180   -0.7500   -2.7720 O.2     1  UNL1       -0.4540
     13  O          8.4190   -2.4490   -1.5130 O.2     1  UNL1       -0.4540
     14  C          8.4730   -1.9910   -2.8430 C.3     1  UNL1        0.4680
@<TRIPOS>BOND
     1    14    12    1
     2    14    13    1
     3    12    10    1
     4    10     8    1
     5    10    11    2
     6    13    11    1
     7     8     6    2
     8    11     9    1
     9     1     5    1
    10     1     2    1
    11     6     5    1
    12     6     7    1
    13     3     2    1
    14     9     7    2
    15     2     4    2
