@<TRIPOS>MOLECULE
/home/cewinharhar/GITHUB/reincatalyze/data/processed/docking_pred/2023-May-22-1739_sub9_nm5_bs15_s42_ex16_mel10_mts1000_k50_ec02_g099_lra9e-4_lrc1e-3/2b611616233e02901686b2fc0a6dd8ec9c570ff2_ligand_9.pdbqt
 14 15 0 0 0
SMALL
GASTEIGER

@<TRIPOS>ATOM
      1  C          5.4030    2.9600    0.2060 C.3     1  UNL1        0.0800
      2  C          6.3570    3.7430    1.0400 C.2     1  UNL1        0.1300
      3  C          7.2490    4.7750    0.4460 C.3     1  UNL1        0.0870
      4  O          6.4350    3.5590    2.2440 O.2     1  UNL1       -0.3000
      5  C          5.1000    1.6140    0.8340 C.3     1  UNL1        0.0430
      6  C          5.9660    0.5510    0.2930 C.2     1  UNL1       -0.0440
      7  C          6.4330    0.5870   -1.0260 C.2     1  UNL1        0.0080
      8  C          6.3330   -0.5050    1.0960 C.2     1  UNL1        0.0540
      9  C          7.2430   -0.4380   -1.4780 C.2     1  UNL1        0.0510
     10  C          7.1530   -1.5380    0.6340 C.2     1  UNL1        0.1660
     11  C          7.6120   -1.5050   -0.6640 C.2     1  UNL1        0.1650
     12  O          7.6500   -2.6790    1.2260 O.2     1  UNL1       -0.4540
     13  O          8.3900   -2.6370   -0.8430 O.2     1  UNL1       -0.4540
     14  C          8.5160   -3.3630    0.3560 C.3     1  UNL1        0.4680
@<TRIPOS>BOND
     1     9     7    1
     2     9    11    2
     3     7     6    2
     4    13    11    1
     5    13    14    1
     6    11    10    1
     7     1     5    1
     8     1     2    1
     9     6     5    1
    10     6     8    1
    11    14    12    1
    12     3     2    1
    13    10     8    2
    14    10    12    1
    15     2     4    2
