@<TRIPOS>MOLECULE
/home/cewinharhar/GITHUB/reincatalyze/data/processed/docking_pred/2023-May-22-1739_sub9_nm5_bs15_s42_ex16_mel10_mts1000_k50_ec02_g099_lra9e-4_lrc1e-3/2b611616233e02901686b2fc0a6dd8ec9c570ff2_ligand_9.pdbqt
 14 15 0 0 0
SMALL
GASTEIGER

@<TRIPOS>ATOM
      1  C          5.5460    1.9200    1.2720 C.3     1  UNL1        0.0800
      2  C          5.1260    0.6970    2.0120 C.2     1  UNL1        0.1300
      3  C          6.0400   -0.4620    2.1870 C.3     1  UNL1        0.0870
      4  O          4.0100    0.6120    2.5000 O.2     1  UNL1       -0.3000
      5  C          5.4150    1.7290   -0.2260 C.3     1  UNL1        0.0430
      6  C          6.5790    1.0240   -0.7900 C.2     1  UNL1       -0.0440
      7  C          7.8880    1.4490   -0.5360 C.2     1  UNL1        0.0080
      8  C          6.3870   -0.0820   -1.5870 C.2     1  UNL1        0.0540
      9  C          8.9420    0.7480   -1.0920 C.2     1  UNL1        0.0510
     10  C          7.4560   -0.7880   -2.1470 C.2     1  UNL1        0.1660
     11  C          8.7440   -0.3690   -1.8970 C.2     1  UNL1        0.1650
     12  O          7.5250   -1.9000   -2.9590 O.2     1  UNL1       -0.4540
     13  O          9.5860   -1.2420   -2.5680 O.2     1  UNL1       -0.4540
     14  C          8.8590   -2.2810   -3.1800 C.3     1  UNL1        0.4680
@<TRIPOS>BOND
     1    14    12    1
     2    14    13    1
     3    12    10    1
     4    13    11    1
     5    10    11    2
     6    10     8    1
     7    11     9    1
     8     8     6    2
     9     9     7    2
    10     6     7    1
    11     6     5    1
    12     5     1    1
    13     1     2    1
    14     2     3    1
    15     2     4    2
