MODEL 1
REMARK VINA RESULT:      -7.9      0.000      0.000
REMARK SMILES CC(=O)CCc1ccc2c(c1)OCO2
REMARK SMILES IDX 4 1 2 2 1 3 3 4 5 5 6 6 7 7 11 8 8 9 10 10 9 11 12 12 14 13
REMARK SMILES IDX 13 14
REMARK H PARENT
REMARK Flexibility Score: inf
ROOT
ATOM      1  C   UNL     1       5.522   2.857   0.133  1.00  0.00     0.080 C 
ENDROOT
BRANCH   1   2
ATOM      2  C   UNL     1       6.282   3.803   0.996  1.00  0.00     0.130 C 
ATOM      3  C   UNL     1       7.257   4.770   0.426  1.00  0.00     0.087 C 
ATOM      4  O   UNL     1       6.126   3.810   2.207  1.00  0.00    -0.300 OA
ENDBRANCH   1   2
BRANCH   1   5
ATOM      5  C   UNL     1       5.244   1.554   0.855  1.00  0.00     0.043 C 
BRANCH   5   6
ATOM      6  C   UNL     1       6.075   0.453   0.336  1.00  0.00    -0.044 A 
ATOM      7  C   UNL     1       6.452  -0.625   1.145  1.00  0.00     0.008 A 
ATOM      8  C   UNL     1       6.494   0.474  -0.975  1.00  0.00     0.054 A 
ATOM      9  C   UNL     1       7.233  -1.630   0.602  1.00  0.00     0.051 A 
ATOM     10  C   UNL     1       7.282  -0.544  -1.519  1.00  0.00     0.166 A 
ATOM     11  C   UNL     1       7.655  -1.605  -0.723  1.00  0.00     0.165 A 
ATOM     12  O   UNL     1       7.818  -0.750  -2.772  1.00  0.00    -0.454 OA
ATOM     13  O   UNL     1       8.419  -2.449  -1.513  1.00  0.00    -0.454 OA
ATOM     14  C   UNL     1       8.473  -1.991  -2.843  1.00  0.00     0.468 C 
ENDBRANCH   5   6
ENDBRANCH   1   5
TORSDOF 3
ENDMDL
MODEL 2
REMARK VINA RESULT:      -7.8      1.006      1.990
REMARK SMILES CC(=O)CCc1ccc2c(c1)OCO2
REMARK SMILES IDX 4 1 2 2 1 3 3 4 5 5 6 6 7 7 11 8 8 9 10 10 9 11 12 12 14 13
REMARK SMILES IDX 13 14
REMARK H PARENT
REMARK Flexibility Score: inf
ROOT
ATOM      1  C   UNL     1       5.403   2.960   0.206  1.00  0.00     0.080 C 
ENDROOT
BRANCH   1   2
ATOM      2  C   UNL     1       6.357   3.743   1.040  1.00  0.00     0.130 C 
ATOM      3  C   UNL     1       7.249   4.775   0.446  1.00  0.00     0.087 C 
ATOM      4  O   UNL     1       6.435   3.559   2.244  1.00  0.00    -0.300 OA
ENDBRANCH   1   2
BRANCH   1   5
ATOM      5  C   UNL     1       5.100   1.614   0.834  1.00  0.00     0.043 C 
BRANCH   5   6
ATOM      6  C   UNL     1       5.966   0.551   0.293  1.00  0.00    -0.044 A 
ATOM      7  C   UNL     1       6.433   0.587  -1.026  1.00  0.00     0.008 A 
ATOM      8  C   UNL     1       6.333  -0.505   1.096  1.00  0.00     0.054 A 
ATOM      9  C   UNL     1       7.243  -0.438  -1.478  1.00  0.00     0.051 A 
ATOM     10  C   UNL     1       7.153  -1.538   0.634  1.00  0.00     0.166 A 
ATOM     11  C   UNL     1       7.612  -1.505  -0.664  1.00  0.00     0.165 A 
ATOM     12  O   UNL     1       7.650  -2.679   1.226  1.00  0.00    -0.454 OA
ATOM     13  O   UNL     1       8.390  -2.637  -0.843  1.00  0.00    -0.454 OA
ATOM     14  C   UNL     1       8.516  -3.363   0.356  1.00  0.00     0.468 C 
ENDBRANCH   5   6
ENDBRANCH   1   5
TORSDOF 3
ENDMDL
MODEL 3
REMARK VINA RESULT:      -7.7      1.880      2.614
REMARK SMILES CC(=O)CCc1ccc2c(c1)OCO2
REMARK SMILES IDX 4 1 2 2 1 3 3 4 5 5 6 6 7 7 11 8 8 9 10 10 9 11 12 12 14 13
REMARK SMILES IDX 13 14
REMARK H PARENT
REMARK Flexibility Score: inf
ROOT
ATOM      1  C   UNL     1       5.546   1.920   1.272  1.00  0.00     0.080 C 
ENDROOT
BRANCH   1   2
ATOM      2  C   UNL     1       5.126   0.697   2.012  1.00  0.00     0.130 C 
ATOM      3  C   UNL     1       6.040  -0.462   2.187  1.00  0.00     0.087 C 
ATOM      4  O   UNL     1       4.010   0.612   2.500  1.00  0.00    -0.300 OA
ENDBRANCH   1   2
BRANCH   1   5
ATOM      5  C   UNL     1       5.415   1.729  -0.226  1.00  0.00     0.043 C 
BRANCH   5   6
ATOM      6  C   UNL     1       6.579   1.024  -0.790  1.00  0.00    -0.044 A 
ATOM      7  C   UNL     1       7.888   1.449  -0.536  1.00  0.00     0.008 A 
ATOM      8  C   UNL     1       6.387  -0.082  -1.587  1.00  0.00     0.054 A 
ATOM      9  C   UNL     1       8.942   0.748  -1.092  1.00  0.00     0.051 A 
ATOM     10  C   UNL     1       7.456  -0.788  -2.147  1.00  0.00     0.166 A 
ATOM     11  C   UNL     1       8.744  -0.369  -1.897  1.00  0.00     0.165 A 
ATOM     12  O   UNL     1       7.525  -1.900  -2.959  1.00  0.00    -0.454 OA
ATOM     13  O   UNL     1       9.586  -1.242  -2.568  1.00  0.00    -0.454 OA
ATOM     14  C   UNL     1       8.859  -2.281  -3.180  1.00  0.00     0.468 C 
ENDBRANCH   5   6
ENDBRANCH   1   5
TORSDOF 3
ENDMDL
