MODEL 1
REMARK VINA RESULT:      -7.6      0.000      0.000
REMARK SMILES CC(=O)CCc1ccc2c(c1)OCO2
REMARK SMILES IDX 4 1 2 2 1 3 3 4 5 5 6 6 7 7 11 8 8 9 10 10 9 11 12 12 14 13
REMARK SMILES IDX 13 14
REMARK H PARENT
REMARK Flexibility Score: inf
ROOT
ATOM      1  C   UNL     1       5.543   1.918   1.268  1.00  0.00     0.080 C 
ENDROOT
BRANCH   1   2
ATOM      2  C   UNL     1       5.121   0.697   2.008  1.00  0.00     0.130 C 
ATOM      3  C   UNL     1       6.033  -0.465   2.183  1.00  0.00     0.087 C 
ATOM      4  O   UNL     1       4.005   0.613   2.495  1.00  0.00    -0.300 OA
ENDBRANCH   1   2
BRANCH   1   5
ATOM      5  C   UNL     1       5.414   1.727  -0.230  1.00  0.00     0.043 C 
BRANCH   5   6
ATOM      6  C   UNL     1       6.579   1.020  -0.793  1.00  0.00    -0.044 A 
ATOM      7  C   UNL     1       7.888   1.445  -0.536  1.00  0.00     0.008 A 
ATOM      8  C   UNL     1       6.387  -0.086  -1.589  1.00  0.00     0.054 A 
ATOM      9  C   UNL     1       8.942   0.742  -1.090  1.00  0.00     0.051 A 
ATOM     10  C   UNL     1       7.457  -0.793  -2.146  1.00  0.00     0.166 A 
ATOM     11  C   UNL     1       8.745  -0.375  -1.895  1.00  0.00     0.165 A 
ATOM     12  O   UNL     1       7.526  -1.906  -2.958  1.00  0.00    -0.454 OA
ATOM     13  O   UNL     1       9.587  -1.250  -2.564  1.00  0.00    -0.454 OA
ATOM     14  C   UNL     1       8.860  -2.288  -3.176  1.00  0.00     0.468 C 
ENDBRANCH   5   6
ENDBRANCH   1   5
TORSDOF 3
ENDMDL
MODEL 2
REMARK VINA RESULT:      -7.4      1.952      2.446
REMARK SMILES CC(=O)CCc1ccc2c(c1)OCO2
REMARK SMILES IDX 4 1 2 2 1 3 3 4 5 5 6 6 7 7 11 8 8 9 10 10 9 11 12 12 14 13
REMARK SMILES IDX 13 14
REMARK H PARENT
REMARK Flexibility Score: inf
ROOT
ATOM      1  C   UNL     1       5.772   1.327  -0.363  1.00  0.00     0.080 C 
ENDROOT
BRANCH   1   2
ATOM      2  C   UNL     1       5.174   1.319   1.001  1.00  0.00     0.130 C 
ATOM      3  C   UNL     1       5.329   0.154   1.914  1.00  0.00     0.087 C 
ATOM      4  O   UNL     1       4.536   2.274   1.412  1.00  0.00    -0.300 OA
ENDBRANCH   1   2
BRANCH   1   5
ATOM      5  C   UNL     1       7.265   1.072  -0.312  1.00  0.00     0.043 C 
BRANCH   5   6
ATOM      6  C   UNL     1       7.617  -0.233  -0.898  1.00  0.00    -0.044 A 
ATOM      7  C   UNL     1       7.657  -0.427  -2.284  1.00  0.00     0.008 A 
ATOM      8  C   UNL     1       7.918  -1.293  -0.074  1.00  0.00     0.054 A 
ATOM      9  C   UNL     1       7.995  -1.674  -2.777  1.00  0.00     0.051 A 
ATOM     10  C   UNL     1       8.260  -2.552  -0.578  1.00  0.00     0.166 A 
ATOM     11  C   UNL     1       8.298  -2.744  -1.941  1.00  0.00     0.165 A 
ATOM     12  O   UNL     1       8.594  -3.746   0.025  1.00  0.00    -0.454 OA
ATOM     13  O   UNL     1       8.660  -4.065  -2.149  1.00  0.00    -0.454 OA
ATOM     14  C   UNL     1       8.946  -4.712  -0.932  1.00  0.00     0.468 C 
ENDBRANCH   5   6
ENDBRANCH   1   5
TORSDOF 3
ENDMDL
MODEL 3
REMARK VINA RESULT:      -7.1      2.026      2.618
REMARK SMILES CC(=O)CCc1ccc2c(c1)OCO2
REMARK SMILES IDX 4 1 2 2 1 3 3 4 5 5 6 6 7 7 11 8 8 9 10 10 9 11 12 12 14 13
REMARK SMILES IDX 13 14
REMARK H PARENT
REMARK Flexibility Score: inf
ROOT
ATOM      1  C   UNL     1       5.947   2.476   1.559  1.00  0.00     0.080 C 
ENDROOT
BRANCH   1   2
ATOM      2  C   UNL     1       6.446   3.846   1.253  1.00  0.00     0.130 C 
ATOM      3  C   UNL     1       6.885   4.775   2.328  1.00  0.00     0.087 C 
ATOM      4  O   UNL     1       6.508   4.248   0.102  1.00  0.00    -0.300 OA
ENDBRANCH   1   2
BRANCH   1   5
ATOM      5  C   UNL     1       5.366   1.814   0.325  1.00  0.00     0.043 C 
BRANCH   5   6
ATOM      6  C   UNL     1       6.141   0.624  -0.072  1.00  0.00    -0.044 A 
ATOM      7  C   UNL     1       6.359  -0.437   0.814  1.00  0.00     0.008 A 
ATOM      8  C   UNL     1       6.664   0.543  -1.343  1.00  0.00     0.054 A 
ATOM      9  C   UNL     1       7.093  -1.528   0.385  1.00  0.00     0.051 A 
ATOM     10  C   UNL     1       7.404  -0.562  -1.771  1.00  0.00     0.166 A 
ATOM     11  C   UNL     1       7.621  -1.607  -0.900  1.00  0.00     0.165 A 
ATOM     12  O   UNL     1       8.021  -0.876  -2.964  1.00  0.00    -0.454 OA
ATOM     13  O   UNL     1       8.372  -2.550  -1.583  1.00  0.00    -0.454 OA
ATOM     14  C   UNL     1       8.571  -2.167  -2.923  1.00  0.00     0.468 C 
ENDBRANCH   5   6
ENDBRANCH   1   5
TORSDOF 3
ENDMDL
