@<TRIPOS>MOLECULE
/home/cewinharhar/GITHUB/reincatalyze/data/processed/docking_pred/2023-May-22-1739_sub9_nm5_bs15_s42_ex16_mel10_mts1000_k50_ec02_g099_lra9e-4_lrc1e-3/306d1dfeb5e1085b4f3e24b09348dc81ae645662_ligand_9.pdbqt
 14 15 0 0 0
SMALL
GASTEIGER

@<TRIPOS>ATOM
      1  C          5.9470    2.4760    1.5590 C.3     1  UNL1        0.0800
      2  C          6.4460    3.8460    1.2530 C.2     1  UNL1        0.1300
      3  C          6.8850    4.7750    2.3280 C.3     1  UNL1        0.0870
      4  O          6.5080    4.2480    0.1020 O.2     1  UNL1       -0.3000
      5  C          5.3660    1.8140    0.3250 C.3     1  UNL1        0.0430
      6  C          6.1410    0.6240   -0.0720 C.2     1  UNL1       -0.0440
      7  C          6.3590   -0.4370    0.8140 C.2     1  UNL1        0.0080
      8  C          6.6640    0.5430   -1.3430 C.2     1  UNL1        0.0540
      9  C          7.0930   -1.5280    0.3850 C.2     1  UNL1        0.0510
     10  C          7.4040   -0.5620   -1.7710 C.2     1  UNL1        0.1660
     11  C          7.6210   -1.6070   -0.9000 C.2     1  UNL1        0.1650
     12  O          8.0210   -0.8760   -2.9640 O.2     1  UNL1       -0.4540
     13  O          8.3720   -2.5500   -1.5830 O.2     1  UNL1       -0.4540
     14  C          8.5710   -2.1670   -2.9230 C.3     1  UNL1        0.4680
@<TRIPOS>BOND
     1    12    14    1
     2    12    10    1
     3    14    13    1
     4    10     8    1
     5    10    11    2
     6    13    11    1
     7     8     6    2
     8    11     9    1
     9     6     5    1
    10     6     7    1
    11     4     2    2
    12     5     1    1
    13     9     7    2
    14     2     1    1
    15     2     3    1
