@<TRIPOS>MOLECULE
/home/cewinharhar/GITHUB/reincatalyze/data/processed/docking_pred/2023-May-22-1739_sub9_nm5_bs15_s42_ex16_mel10_mts1000_k50_ec02_g099_lra9e-4_lrc1e-3/306d1dfeb5e1085b4f3e24b09348dc81ae645662_ligand_9.pdbqt
 14 15 0 0 0
SMALL
GASTEIGER

@<TRIPOS>ATOM
      1  C          5.5430    1.9180    1.2680 C.3     1  UNL1        0.0800
      2  C          5.1210    0.6970    2.0080 C.2     1  UNL1        0.1300
      3  C          6.0330   -0.4650    2.1830 C.3     1  UNL1        0.0870
      4  O          4.0050    0.6130    2.4950 O.2     1  UNL1       -0.3000
      5  C          5.4140    1.7270   -0.2300 C.3     1  UNL1        0.0430
      6  C          6.5790    1.0200   -0.7930 C.2     1  UNL1       -0.0440
      7  C          7.8880    1.4450   -0.5360 C.2     1  UNL1        0.0080
      8  C          6.3870   -0.0860   -1.5890 C.2     1  UNL1        0.0540
      9  C          8.9420    0.7420   -1.0900 C.2     1  UNL1        0.0510
     10  C          7.4570   -0.7930   -2.1460 C.2     1  UNL1        0.1660
     11  C          8.7450   -0.3750   -1.8950 C.2     1  UNL1        0.1650
     12  O          7.5260   -1.9060   -2.9580 O.2     1  UNL1       -0.4540
     13  O          9.5870   -1.2500   -2.5640 O.2     1  UNL1       -0.4540
     14  C          8.8600   -2.2880   -3.1760 C.3     1  UNL1        0.4680
@<TRIPOS>BOND
     1    14    12    1
     2    14    13    1
     3    12    10    1
     4    13    11    1
     5    10    11    2
     6    10     8    1
     7    11     9    1
     8     8     6    2
     9     9     7    2
    10     6     7    1
    11     6     5    1
    12     5     1    1
    13     1     2    1
    14     2     3    1
    15     2     4    2
