@<TRIPOS>MOLECULE
/home/cewinharhar/GITHUB/reincatalyze/data/processed/docking_pred/2023-May-22-1739_sub9_nm5_bs15_s42_ex16_mel10_mts1000_k50_ec02_g099_lra9e-4_lrc1e-3/46861e00ed193d15618049a480e2ca269f83ce14_ligand_9.pdbqt
 14 15 0 0 0
SMALL
GASTEIGER

@<TRIPOS>ATOM
      1  C          5.7260    1.2900   -0.3150 C.3     1  UNL1        0.0800
      2  C          5.1790    1.2870    1.0700 C.2     1  UNL1        0.1300
      3  C          5.3330    0.1110    1.9680 C.3     1  UNL1        0.0870
      4  O          4.5840    2.2570    1.5110 O.2     1  UNL1       -0.3000
      5  C          7.2290    1.0950   -0.3140 C.3     1  UNL1        0.0430
      6  C          7.6120   -0.2010   -0.9040 C.2     1  UNL1       -0.0440
      7  C          7.7030   -0.3770   -2.2890 C.2     1  UNL1        0.0080
      8  C          7.8920   -1.2680   -0.0820 C.2     1  UNL1        0.0540
      9  C          8.0680   -1.6150   -2.7860 C.2     1  UNL1        0.0510
     10  C          8.2620   -2.5180   -0.5880 C.2     1  UNL1        0.1660
     11  C          8.3500   -2.6930   -1.9510 C.2     1  UNL1        0.1650
     12  O          8.5850   -3.7170    0.0110 O.2     1  UNL1       -0.4540
     13  O          8.7310   -4.0090   -2.1630 O.2     1  UNL1       -0.4540
     14  C          8.9780   -4.6680   -0.9440 C.3     1  UNL1        0.4680
@<TRIPOS>BOND
     1     9     7    1
     2     9    11    2
     3     7     6    2
     4    13    11    1
     5    13    14    1
     6    11    10    1
     7    14    12    1
     8     6     5    1
     9     6     8    1
    10    10     8    2
    11    10    12    1
    12     1     5    1
    13     1     2    1
    14     2     4    2
    15     2     3    1
