MODEL 1
REMARK VINA RESULT:      -7.8      0.000      0.000
REMARK SMILES CC(=O)CCc1ccc2c(c1)OCO2
REMARK SMILES IDX 4 1 2 2 1 3 3 4 5 5 6 6 7 7 11 8 8 9 10 10 9 11 12 12 14 13
REMARK SMILES IDX 13 14
REMARK H PARENT
REMARK Flexibility Score: inf
ROOT
ATOM      1  C   UNL     1       5.478   2.896   0.235  1.00  0.00     0.080 C 
ENDROOT
BRANCH   1   2
ATOM      2  C   UNL     1       6.273   3.850   1.059  1.00  0.00     0.130 C 
ATOM      3  C   UNL     1       7.263   4.775   0.446  1.00  0.00     0.087 C 
ATOM      4  O   UNL     1       6.132   3.898   2.270  1.00  0.00    -0.300 OA
ENDBRANCH   1   2
BRANCH   1   5
ATOM      5  C   UNL     1       5.258   1.587   0.967  1.00  0.00     0.043 C 
BRANCH   5   6
ATOM      6  C   UNL     1       6.075   0.500   0.400  1.00  0.00    -0.044 A 
ATOM      7  C   UNL     1       6.473  -0.597   1.172  1.00  0.00     0.008 A 
ATOM      8  C   UNL     1       6.460   0.553  -0.921  1.00  0.00     0.054 A 
ATOM      9  C   UNL     1       7.240  -1.588   0.586  1.00  0.00     0.051 A 
ATOM     10  C   UNL     1       7.234  -0.452  -1.509  1.00  0.00     0.166 A 
ATOM     11  C   UNL     1       7.627  -1.531  -0.749  1.00  0.00     0.165 A 
ATOM     12  O   UNL     1       7.738  -0.627  -2.780  1.00  0.00    -0.454 OA
ATOM     13  O   UNL     1       8.371  -2.355  -1.579  1.00  0.00    -0.454 OA
ATOM     14  C   UNL     1       8.390  -1.865  -2.898  1.00  0.00     0.468 C 
ENDBRANCH   5   6
ENDBRANCH   1   5
TORSDOF 3
ENDMDL
MODEL 2
REMARK VINA RESULT:      -7.7      1.887      2.618
REMARK SMILES CC(=O)CCc1ccc2c(c1)OCO2
REMARK SMILES IDX 4 1 2 2 1 3 3 4 5 5 6 6 7 7 11 8 8 9 10 10 9 11 12 12 14 13
REMARK SMILES IDX 13 14
REMARK H PARENT
REMARK Flexibility Score: inf
ROOT
ATOM      1  C   UNL     1       5.547   1.934   1.265  1.00  0.00     0.080 C 
ENDROOT
BRANCH   1   2
ATOM      2  C   UNL     1       5.135   0.714   2.014  1.00  0.00     0.130 C 
ATOM      3  C   UNL     1       6.055  -0.441   2.191  1.00  0.00     0.087 C 
ATOM      4  O   UNL     1       4.022   0.628   2.508  1.00  0.00    -0.300 OA
ENDBRANCH   1   2
BRANCH   1   5
ATOM      5  C   UNL     1       5.413   1.732  -0.231  1.00  0.00     0.043 C 
BRANCH   5   6
ATOM      6  C   UNL     1       6.580   1.030  -0.794  1.00  0.00    -0.044 A 
ATOM      7  C   UNL     1       7.888   1.455  -0.534  1.00  0.00     0.008 A 
ATOM      8  C   UNL     1       6.391  -0.075  -1.593  1.00  0.00     0.054 A 
ATOM      9  C   UNL     1       8.944   0.756  -1.089  1.00  0.00     0.051 A 
ATOM     10  C   UNL     1       7.462  -0.779  -2.151  1.00  0.00     0.166 A 
ATOM     11  C   UNL     1       8.749  -0.360  -1.897  1.00  0.00     0.165 A 
ATOM     12  O   UNL     1       7.535  -1.889  -2.966  1.00  0.00    -0.454 OA
ATOM     13  O   UNL     1       9.594  -1.231  -2.567  1.00  0.00    -0.454 OA
ATOM     14  C   UNL     1       8.869  -2.269  -3.183  1.00  0.00     0.468 C 
ENDBRANCH   5   6
ENDBRANCH   1   5
TORSDOF 3
ENDMDL
MODEL 3
REMARK VINA RESULT:      -7.5      1.962      3.035
REMARK SMILES CC(=O)CCc1ccc2c(c1)OCO2
REMARK SMILES IDX 4 1 2 2 1 3 3 4 5 5 6 6 7 7 11 8 8 9 10 10 9 11 12 12 14 13
REMARK SMILES IDX 13 14
REMARK H PARENT
REMARK Flexibility Score: inf
ROOT
ATOM      1  C   UNL     1       5.726   1.290  -0.315  1.00  0.00     0.080 C 
ENDROOT
BRANCH   1   2
ATOM      2  C   UNL     1       5.179   1.287   1.070  1.00  0.00     0.130 C 
ATOM      3  C   UNL     1       5.333   0.111   1.968  1.00  0.00     0.087 C 
ATOM      4  O   UNL     1       4.584   2.257   1.511  1.00  0.00    -0.300 OA
ENDBRANCH   1   2
BRANCH   1   5
ATOM      5  C   UNL     1       7.229   1.095  -0.314  1.00  0.00     0.043 C 
BRANCH   5   6
ATOM      6  C   UNL     1       7.612  -0.201  -0.904  1.00  0.00    -0.044 A 
ATOM      7  C   UNL     1       7.703  -0.377  -2.289  1.00  0.00     0.008 A 
ATOM      8  C   UNL     1       7.892  -1.268  -0.082  1.00  0.00     0.054 A 
ATOM      9  C   UNL     1       8.068  -1.615  -2.786  1.00  0.00     0.051 A 
ATOM     10  C   UNL     1       8.262  -2.518  -0.588  1.00  0.00     0.166 A 
ATOM     11  C   UNL     1       8.350  -2.693  -1.951  1.00  0.00     0.165 A 
ATOM     12  O   UNL     1       8.585  -3.717   0.011  1.00  0.00    -0.454 OA
ATOM     13  O   UNL     1       8.731  -4.009  -2.163  1.00  0.00    -0.454 OA
ATOM     14  C   UNL     1       8.978  -4.668  -0.944  1.00  0.00     0.468 C 
ENDBRANCH   5   6
ENDBRANCH   1   5
TORSDOF 3
ENDMDL
