@<TRIPOS>MOLECULE
/home/cewinharhar/GITHUB/reincatalyze/data/processed/docking_pred/2023-May-22-1739_sub9_nm5_bs15_s42_ex16_mel10_mts1000_k50_ec02_g099_lra9e-4_lrc1e-3/46861e00ed193d15618049a480e2ca269f83ce14_ligand_9.pdbqt
 14 15 0 0 0
SMALL
GASTEIGER

@<TRIPOS>ATOM
      1  C          5.5470    1.9340    1.2650 C.3     1  UNL1        0.0800
      2  C          5.1350    0.7140    2.0140 C.2     1  UNL1        0.1300
      3  C          6.0550   -0.4410    2.1910 C.3     1  UNL1        0.0870
      4  O          4.0220    0.6280    2.5080 O.2     1  UNL1       -0.3000
      5  C          5.4130    1.7320   -0.2310 C.3     1  UNL1        0.0430
      6  C          6.5800    1.0300   -0.7940 C.2     1  UNL1       -0.0440
      7  C          7.8880    1.4550   -0.5340 C.2     1  UNL1        0.0080
      8  C          6.3910   -0.0750   -1.5930 C.2     1  UNL1        0.0540
      9  C          8.9440    0.7560   -1.0890 C.2     1  UNL1        0.0510
     10  C          7.4620   -0.7790   -2.1510 C.2     1  UNL1        0.1660
     11  C          8.7490   -0.3600   -1.8970 C.2     1  UNL1        0.1650
     12  O          7.5350   -1.8890   -2.9660 O.2     1  UNL1       -0.4540
     13  O          9.5940   -1.2310   -2.5670 O.2     1  UNL1       -0.4540
     14  C          8.8690   -2.2690   -3.1830 C.3     1  UNL1        0.4680
@<TRIPOS>BOND
     1    14    12    1
     2    14    13    1
     3    12    10    1
     4    13    11    1
     5    10    11    2
     6    10     8    1
     7    11     9    1
     8     8     6    2
     9     9     7    2
    10     6     7    1
    11     6     5    1
    12     5     1    1
    13     1     2    1
    14     2     3    1
    15     2     4    2
