@<TRIPOS>MOLECULE
/home/cewinharhar/GITHUB/reincatalyze/data/processed/docking_pred/2023-May-22-1739_sub9_nm5_bs15_s42_ex16_mel10_mts1000_k50_ec02_g099_lra9e-4_lrc1e-3/4d620996829bdf69d2437cdb6940cc233521eaf3_ligand_9.pdbqt
 14 15 0 0 0
SMALL
GASTEIGER

@<TRIPOS>ATOM
      1  C          6.9110    2.1410   -0.0940 C.3     1  UNL1        0.0800
      2  C          6.0960    2.9540    0.8510 C.2     1  UNL1        0.1300
      3  C          6.5410    4.2970    1.3100 C.3     1  UNL1        0.0870
      4  O          5.0320    2.5370    1.2800 O.2     1  UNL1       -0.3000
      5  C          6.1260    0.9560   -0.6190 C.3     1  UNL1        0.0430
      6  C          6.8090   -0.3200   -0.3380 C.2     1  UNL1       -0.0440
      7  C          6.9990   -0.7770    0.9710 C.2     1  UNL1        0.0080
      8  C          7.2730   -1.0890   -1.3810 C.2     1  UNL1        0.0540
      9  C          7.6470   -1.9820    1.1730 C.2     1  UNL1        0.0510
     10  C          7.9260   -2.3070   -1.1710 C.2     1  UNL1        0.1660
     11  C          8.1150   -2.7570    0.1170 C.2     1  UNL1        0.1650
     12  O          8.4720   -3.2400   -2.0260 O.2     1  UNL1       -0.4540
     13  O          8.7790   -3.9700    0.0240 O.2     1  UNL1       -0.4540
     14  C          8.9450   -4.3580   -1.3190 C.3     1  UNL1        0.4680
@<TRIPOS>BOND
     1    12    14    1
     2    12    10    1
     3     8    10    1
     4     8     6    2
     5    14    13    1
     6    10    11    2
     7     5     6    1
     8     5     1    1
     9     6     7    1
    10     1     2    1
    11    13    11    1
    12    11     9    1
    13     2     4    2
    14     2     3    1
    15     7     9    2
