@<TRIPOS>MOLECULE
/home/cewinharhar/GITHUB/reincatalyze/data/processed/docking_pred/2023-May-22-1739_sub9_nm5_bs15_s42_ex16_mel10_mts1000_k50_ec02_g099_lra9e-4_lrc1e-3/4d620996829bdf69d2437cdb6940cc233521eaf3_ligand_9.pdbqt
 14 15 0 0 0
SMALL
GASTEIGER

@<TRIPOS>ATOM
      1  C          5.5380    1.9160    1.2660 C.3     1  UNL1        0.0800
      2  C          5.0930    0.7020    2.0050 C.2     1  UNL1        0.1300
      3  C          5.9840   -0.4760    2.1810 C.3     1  UNL1        0.0870
      4  O          3.9750    0.6380    2.4900 O.2     1  UNL1       -0.3000
      5  C          5.4080    1.7270   -0.2330 C.3     1  UNL1        0.0430
      6  C          6.5740    1.0250   -0.7980 C.2     1  UNL1       -0.0440
      7  C          7.8820    1.4590   -0.5510 C.2     1  UNL1        0.0080
      8  C          6.3850   -0.0860   -1.5870 C.2     1  UNL1        0.0540
      9  C          8.9370    0.7600   -1.1080 C.2     1  UNL1        0.0510
     10  C          7.4550   -0.7900   -2.1470 C.2     1  UNL1        0.1660
     11  C          8.7420   -0.3630   -1.9060 C.2     1  UNL1        0.1650
     12  O          7.5270   -1.9060   -2.9540 O.2     1  UNL1       -0.4540
     13  O          9.5860   -1.2350   -2.5750 O.2     1  UNL1       -0.4540
     14  C          8.8620   -2.2810   -3.1780 C.3     1  UNL1        0.4680
@<TRIPOS>BOND
     1    14    12    1
     2    14    13    1
     3    12    10    1
     4    13    11    1
     5    10    11    2
     6    10     8    1
     7    11     9    1
     8     8     6    2
     9     9     7    2
    10     6     7    1
    11     6     5    1
    12     5     1    1
    13     1     2    1
    14     2     3    1
    15     2     4    2
