MODEL 1
REMARK VINA RESULT:      -7.6      0.000      0.000
REMARK SMILES CC(=O)CCc1ccc2c(c1)OCO2
REMARK SMILES IDX 4 1 2 2 1 3 3 4 5 5 6 6 7 7 11 8 8 9 10 10 9 11 12 12 14 13
REMARK SMILES IDX 13 14
REMARK H PARENT
REMARK Flexibility Score: inf
ROOT
ATOM      1  C   UNL     1       5.538   1.916   1.266  1.00  0.00     0.080 C 
ENDROOT
BRANCH   1   2
ATOM      2  C   UNL     1       5.093   0.702   2.005  1.00  0.00     0.130 C 
ATOM      3  C   UNL     1       5.984  -0.476   2.181  1.00  0.00     0.087 C 
ATOM      4  O   UNL     1       3.975   0.638   2.490  1.00  0.00    -0.300 OA
ENDBRANCH   1   2
BRANCH   1   5
ATOM      5  C   UNL     1       5.408   1.727  -0.233  1.00  0.00     0.043 C 
BRANCH   5   6
ATOM      6  C   UNL     1       6.574   1.025  -0.798  1.00  0.00    -0.044 A 
ATOM      7  C   UNL     1       7.882   1.459  -0.551  1.00  0.00     0.008 A 
ATOM      8  C   UNL     1       6.385  -0.086  -1.587  1.00  0.00     0.054 A 
ATOM      9  C   UNL     1       8.937   0.760  -1.108  1.00  0.00     0.051 A 
ATOM     10  C   UNL     1       7.455  -0.790  -2.147  1.00  0.00     0.166 A 
ATOM     11  C   UNL     1       8.742  -0.363  -1.906  1.00  0.00     0.165 A 
ATOM     12  O   UNL     1       7.527  -1.906  -2.954  1.00  0.00    -0.454 OA
ATOM     13  O   UNL     1       9.586  -1.235  -2.575  1.00  0.00    -0.454 OA
ATOM     14  C   UNL     1       8.862  -2.281  -3.178  1.00  0.00     0.468 C 
ENDBRANCH   5   6
ENDBRANCH   1   5
TORSDOF 3
ENDMDL
MODEL 2
REMARK VINA RESULT:      -7.4      1.934      2.430
REMARK SMILES CC(=O)CCc1ccc2c(c1)OCO2
REMARK SMILES IDX 4 1 2 2 1 3 3 4 5 5 6 6 7 7 11 8 8 9 10 10 9 11 12 12 14 13
REMARK SMILES IDX 13 14
REMARK H PARENT
REMARK Flexibility Score: inf
ROOT
ATOM      1  C   UNL     1       5.782   1.362  -0.367  1.00  0.00     0.080 C 
ENDROOT
BRANCH   1   2
ATOM      2  C   UNL     1       5.144   1.324   0.979  1.00  0.00     0.130 C 
ATOM      3  C   UNL     1       5.393   0.208   1.930  1.00  0.00     0.087 C 
ATOM      4  O   UNL     1       4.391   2.214   1.341  1.00  0.00    -0.300 OA
ENDBRANCH   1   2
BRANCH   1   5
ATOM      5  C   UNL     1       7.268   1.075  -0.279  1.00  0.00     0.043 C 
BRANCH   5   6
ATOM      6  C   UNL     1       7.611  -0.223  -0.886  1.00  0.00    -0.044 A 
ATOM      7  C   UNL     1       7.625  -0.403  -2.274  1.00  0.00     0.008 A 
ATOM      8  C   UNL     1       7.928  -1.291  -0.078  1.00  0.00     0.054 A 
ATOM      9  C   UNL     1       7.955  -1.644  -2.787  1.00  0.00     0.051 A 
ATOM     10  C   UNL     1       8.262  -2.544  -0.601  1.00  0.00     0.166 A 
ATOM     11  C   UNL     1       8.275  -2.722  -1.967  1.00  0.00     0.165 A 
ATOM     12  O   UNL     1       8.609  -3.744  -0.018  1.00  0.00    -0.454 OA
ATOM     13  O   UNL     1       8.635  -4.041  -2.196  1.00  0.00    -0.454 OA
ATOM     14  C   UNL     1       8.944  -4.700  -0.991  1.00  0.00     0.468 C 
ENDBRANCH   5   6
ENDBRANCH   1   5
TORSDOF 3
ENDMDL
MODEL 3
REMARK VINA RESULT:      -7.2      2.177      2.787
REMARK SMILES CC(=O)CCc1ccc2c(c1)OCO2
REMARK SMILES IDX 4 1 2 2 1 3 3 4 5 5 6 6 7 7 11 8 8 9 10 10 9 11 12 12 14 13
REMARK SMILES IDX 13 14
REMARK H PARENT
REMARK Flexibility Score: inf
ROOT
ATOM      1  C   UNL     1       6.911   2.141  -0.094  1.00  0.00     0.080 C 
ENDROOT
BRANCH   1   2
ATOM      2  C   UNL     1       6.096   2.954   0.851  1.00  0.00     0.130 C 
ATOM      3  C   UNL     1       6.541   4.297   1.310  1.00  0.00     0.087 C 
ATOM      4  O   UNL     1       5.032   2.537   1.280  1.00  0.00    -0.300 OA
ENDBRANCH   1   2
BRANCH   1   5
ATOM      5  C   UNL     1       6.126   0.956  -0.619  1.00  0.00     0.043 C 
BRANCH   5   6
ATOM      6  C   UNL     1       6.809  -0.320  -0.338  1.00  0.00    -0.044 A 
ATOM      7  C   UNL     1       6.999  -0.777   0.971  1.00  0.00     0.008 A 
ATOM      8  C   UNL     1       7.273  -1.089  -1.381  1.00  0.00     0.054 A 
ATOM      9  C   UNL     1       7.647  -1.982   1.173  1.00  0.00     0.051 A 
ATOM     10  C   UNL     1       7.926  -2.307  -1.171  1.00  0.00     0.166 A 
ATOM     11  C   UNL     1       8.115  -2.757   0.117  1.00  0.00     0.165 A 
ATOM     12  O   UNL     1       8.472  -3.240  -2.026  1.00  0.00    -0.454 OA
ATOM     13  O   UNL     1       8.779  -3.970   0.024  1.00  0.00    -0.454 OA
ATOM     14  C   UNL     1       8.945  -4.358  -1.319  1.00  0.00     0.468 C 
ENDBRANCH   5   6
ENDBRANCH   1   5
TORSDOF 3
ENDMDL
