@<TRIPOS>MOLECULE
/home/cewinharhar/GITHUB/reincatalyze/data/processed/docking_pred/2023-May-22-1739_sub9_nm5_bs15_s42_ex16_mel10_mts1000_k50_ec02_g099_lra9e-4_lrc1e-3/5bd4159c0713ad18fb2d2a846002564f6b7df27c_ligand_9.pdbqt
 14 15 0 0 0
SMALL
GASTEIGER

@<TRIPOS>ATOM
      1  C          5.5290    1.9220    1.2620 C.3     1  UNL1        0.0800
      2  C          5.0970    0.7030    2.0010 C.2     1  UNL1        0.1300
      3  C          6.0020   -0.4640    2.1780 C.3     1  UNL1        0.0870
      4  O          3.9790    0.6270    2.4850 O.2     1  UNL1       -0.3000
      5  C          5.4040    1.7310   -0.2360 C.3     1  UNL1        0.0430
      6  C          6.5710    1.0250   -0.7960 C.2     1  UNL1       -0.0440
      7  C          7.8790    1.4540   -0.5430 C.2     1  UNL1        0.0080
      8  C          6.3810   -0.0860   -1.5870 C.2     1  UNL1        0.0540
      9  C          8.9340    0.7510   -1.0950 C.2     1  UNL1        0.0510
     10  C          7.4510   -0.7940   -2.1420 C.2     1  UNL1        0.1660
     11  C          8.7380   -0.3720   -1.8940 C.2     1  UNL1        0.1650
     12  O          7.5230   -1.9100   -2.9480 O.2     1  UNL1       -0.4540
     13  O          9.5820   -1.2470   -2.5590 O.2     1  UNL1       -0.4540
     14  C          8.8570   -2.2900   -3.1660 C.3     1  UNL1        0.4680
@<TRIPOS>BOND
     1    14    12    1
     2    14    13    1
     3    12    10    1
     4    13    11    1
     5    10    11    2
     6    10     8    1
     7    11     9    1
     8     8     6    2
     9     9     7    2
    10     6     7    1
    11     6     5    1
    12     5     1    1
    13     1     2    1
    14     2     3    1
    15     2     4    2
