@<TRIPOS>MOLECULE
/home/cewinharhar/GITHUB/reincatalyze/data/processed/docking_pred/2023-May-22-1739_sub9_nm5_bs15_s42_ex16_mel10_mts1000_k50_ec02_g099_lra9e-4_lrc1e-3/5bd4159c0713ad18fb2d2a846002564f6b7df27c_ligand_9.pdbqt
 14 15 0 0 0
SMALL
GASTEIGER

@<TRIPOS>ATOM
      1  C          5.4250    2.9150    0.1300 C.3     1  UNL1        0.0800
      2  C          6.2610    3.8440    0.9410 C.2     1  UNL1        0.1300
      3  C          7.2370    4.7700    0.3080 C.3     1  UNL1        0.0870
      4  O          6.1680    3.8710    2.1580 O.2     1  UNL1       -0.3000
      5  C          5.1460    1.6280    0.8810 C.3     1  UNL1        0.0430
      6  C          5.9640    0.5120    0.3750 C.2     1  UNL1       -0.0440
      7  C          6.3010   -0.5770    1.1870 C.2     1  UNL1        0.0080
      8  C          6.4110    0.5290   -0.9260 C.2     1  UNL1        0.0540
      9  C          7.0710   -1.5970    0.6570 C.2     1  UNL1        0.0510
     10  C          7.1890   -0.5050   -1.4580 C.2     1  UNL1        0.1660
     11  C          7.5220   -1.5760   -0.6590 C.2     1  UNL1        0.1650
     12  O          7.7470   -0.7170   -2.7000 O.2     1  UNL1       -0.4540
     13  O          8.2850   -2.4330   -1.4360 O.2     1  UNL1       -0.4540
     14  C          8.3760   -1.9720   -2.7630 C.3     1  UNL1        0.4680
@<TRIPOS>BOND
     1    14    12    1
     2    14    13    1
     3    12    10    1
     4    10     8    1
     5    10    11    2
     6    13    11    1
     7     8     6    2
     8    11     9    1
     9     1     5    1
    10     1     2    1
    11     3     2    1
    12     6     5    1
    13     6     7    1
    14     9     7    2
    15     2     4    2
