@<TRIPOS>MOLECULE
/home/cewinharhar/GITHUB/reincatalyze/data/processed/docking_pred/2023-May-22-1739_sub9_nm5_bs15_s42_ex16_mel10_mts1000_k50_ec02_g099_lra9e-4_lrc1e-3/5bd4159c0713ad18fb2d2a846002564f6b7df27c_ligand_9.pdbqt
 14 15 0 0 0
SMALL
GASTEIGER

@<TRIPOS>ATOM
      1  C          5.3620    2.9580    0.2230 C.3     1  UNL1        0.0800
      2  C          6.3850    3.6770    1.0320 C.2     1  UNL1        0.1300
      3  C          7.2110    4.7700    0.4540 C.3     1  UNL1        0.0870
      4  O          6.5770    3.3860    2.2020 O.2     1  UNL1       -0.3000
      5  C          5.0500    1.5970    0.8130 C.3     1  UNL1        0.0430
      6  C          5.9240    0.5470    0.2580 C.2     1  UNL1       -0.0440
      7  C          6.3520    0.5790   -1.0740 C.2     1  UNL1        0.0080
      8  C          6.3360   -0.4920    1.0610 C.2     1  UNL1        0.0540
      9  C          7.1720   -0.4330   -1.5390 C.2     1  UNL1        0.0510
     10  C          7.1660   -1.5120    0.5850 C.2     1  UNL1        0.1660
     11  C          7.5860   -1.4830   -0.7260 C.2     1  UNL1        0.1650
     12  O          7.7050   -2.6360    1.1750 O.2     1  UNL1       -0.4540
     13  O          8.3840   -2.6000   -0.9160 O.2     1  UNL1       -0.4540
     14  C          8.5590   -3.3100    0.2870 C.3     1  UNL1        0.4680
@<TRIPOS>BOND
     1     9     7    1
     2     9    11    2
     3     7     6    2
     4    13    11    1
     5    13    14    1
     6    11    10    1
     7     1     5    1
     8     1     2    1
     9     6     5    1
    10     6     8    1
    11    14    12    1
    12     3     2    1
    13    10     8    2
    14    10    12    1
    15     2     4    2
