MODEL 1
REMARK VINA RESULT:      -7.9      0.000      0.000
REMARK SMILES CC(=O)CCc1ccc2c(c1)OCO2
REMARK SMILES IDX 4 1 2 2 1 3 3 4 5 5 6 6 7 7 11 8 8 9 10 10 9 11 12 12 14 13
REMARK SMILES IDX 13 14
REMARK H PARENT
REMARK Flexibility Score: inf
ROOT
ATOM      1  C   UNL     1       5.425   2.915   0.130  1.00  0.00     0.080 C 
ENDROOT
BRANCH   1   2
ATOM      2  C   UNL     1       6.261   3.844   0.941  1.00  0.00     0.130 C 
ATOM      3  C   UNL     1       7.237   4.770   0.308  1.00  0.00     0.087 C 
ATOM      4  O   UNL     1       6.168   3.871   2.158  1.00  0.00    -0.300 OA
ENDBRANCH   1   2
BRANCH   1   5
ATOM      5  C   UNL     1       5.146   1.628   0.881  1.00  0.00     0.043 C 
BRANCH   5   6
ATOM      6  C   UNL     1       5.964   0.512   0.375  1.00  0.00    -0.044 A 
ATOM      7  C   UNL     1       6.301  -0.577   1.187  1.00  0.00     0.008 A 
ATOM      8  C   UNL     1       6.411   0.529  -0.926  1.00  0.00     0.054 A 
ATOM      9  C   UNL     1       7.071  -1.597   0.657  1.00  0.00     0.051 A 
ATOM     10  C   UNL     1       7.189  -0.505  -1.458  1.00  0.00     0.166 A 
ATOM     11  C   UNL     1       7.522  -1.576  -0.659  1.00  0.00     0.165 A 
ATOM     12  O   UNL     1       7.747  -0.717  -2.700  1.00  0.00    -0.454 OA
ATOM     13  O   UNL     1       8.285  -2.433  -1.436  1.00  0.00    -0.454 OA
ATOM     14  C   UNL     1       8.376  -1.972  -2.763  1.00  0.00     0.468 C 
ENDBRANCH   5   6
ENDBRANCH   1   5
TORSDOF 3
ENDMDL
MODEL 2
REMARK VINA RESULT:      -7.8      0.968      1.955
REMARK SMILES CC(=O)CCc1ccc2c(c1)OCO2
REMARK SMILES IDX 4 1 2 2 1 3 3 4 5 5 6 6 7 7 11 8 8 9 10 10 9 11 12 12 14 13
REMARK SMILES IDX 13 14
REMARK H PARENT
REMARK Flexibility Score: inf
ROOT
ATOM      1  C   UNL     1       5.362   2.958   0.223  1.00  0.00     0.080 C 
ENDROOT
BRANCH   1   2
ATOM      2  C   UNL     1       6.385   3.677   1.032  1.00  0.00     0.130 C 
ATOM      3  C   UNL     1       7.211   4.770   0.454  1.00  0.00     0.087 C 
ATOM      4  O   UNL     1       6.577   3.386   2.202  1.00  0.00    -0.300 OA
ENDBRANCH   1   2
BRANCH   1   5
ATOM      5  C   UNL     1       5.050   1.597   0.813  1.00  0.00     0.043 C 
BRANCH   5   6
ATOM      6  C   UNL     1       5.924   0.547   0.258  1.00  0.00    -0.044 A 
ATOM      7  C   UNL     1       6.352   0.579  -1.074  1.00  0.00     0.008 A 
ATOM      8  C   UNL     1       6.336  -0.492   1.061  1.00  0.00     0.054 A 
ATOM      9  C   UNL     1       7.172  -0.433  -1.539  1.00  0.00     0.051 A 
ATOM     10  C   UNL     1       7.166  -1.512   0.585  1.00  0.00     0.166 A 
ATOM     11  C   UNL     1       7.586  -1.483  -0.726  1.00  0.00     0.165 A 
ATOM     12  O   UNL     1       7.705  -2.636   1.175  1.00  0.00    -0.454 OA
ATOM     13  O   UNL     1       8.384  -2.600  -0.916  1.00  0.00    -0.454 OA
ATOM     14  C   UNL     1       8.559  -3.310   0.287  1.00  0.00     0.468 C 
ENDBRANCH   5   6
ENDBRANCH   1   5
TORSDOF 3
ENDMDL
MODEL 3
REMARK VINA RESULT:      -7.6      1.896      2.669
REMARK SMILES CC(=O)CCc1ccc2c(c1)OCO2
REMARK SMILES IDX 4 1 2 2 1 3 3 4 5 5 6 6 7 7 11 8 8 9 10 10 9 11 12 12 14 13
REMARK SMILES IDX 13 14
REMARK H PARENT
REMARK Flexibility Score: inf
ROOT
ATOM      1  C   UNL     1       5.529   1.922   1.262  1.00  0.00     0.080 C 
ENDROOT
BRANCH   1   2
ATOM      2  C   UNL     1       5.097   0.703   2.001  1.00  0.00     0.130 C 
ATOM      3  C   UNL     1       6.002  -0.464   2.178  1.00  0.00     0.087 C 
ATOM      4  O   UNL     1       3.979   0.627   2.485  1.00  0.00    -0.300 OA
ENDBRANCH   1   2
BRANCH   1   5
ATOM      5  C   UNL     1       5.404   1.731  -0.236  1.00  0.00     0.043 C 
BRANCH   5   6
ATOM      6  C   UNL     1       6.571   1.025  -0.796  1.00  0.00    -0.044 A 
ATOM      7  C   UNL     1       7.879   1.454  -0.543  1.00  0.00     0.008 A 
ATOM      8  C   UNL     1       6.381  -0.086  -1.587  1.00  0.00     0.054 A 
ATOM      9  C   UNL     1       8.934   0.751  -1.095  1.00  0.00     0.051 A 
ATOM     10  C   UNL     1       7.451  -0.794  -2.142  1.00  0.00     0.166 A 
ATOM     11  C   UNL     1       8.738  -0.372  -1.894  1.00  0.00     0.165 A 
ATOM     12  O   UNL     1       7.523  -1.910  -2.948  1.00  0.00    -0.454 OA
ATOM     13  O   UNL     1       9.582  -1.247  -2.559  1.00  0.00    -0.454 OA
ATOM     14  C   UNL     1       8.857  -2.290  -3.166  1.00  0.00     0.468 C 
ENDBRANCH   5   6
ENDBRANCH   1   5
TORSDOF 3
ENDMDL
