MODEL 1
REMARK VINA RESULT:      -7.9      0.000      0.000
REMARK SMILES CC(=O)CCc1ccc2c(c1)OCO2
REMARK SMILES IDX 4 1 2 2 1 3 3 4 5 5 6 6 7 7 11 8 8 9 10 10 9 11 12 12 14 13
REMARK SMILES IDX 13 14
REMARK H PARENT
REMARK Flexibility Score: inf
ROOT
ATOM      1  C   UNL     1       5.448   2.900   0.045  1.00  0.00     0.080 C 
ENDROOT
BRANCH   1   2
ATOM      2  C   UNL     1       6.278   3.785   0.908  1.00  0.00     0.130 C 
ATOM      3  C   UNL     1       7.230   4.770   0.329  1.00  0.00     0.087 C 
ATOM      4  O   UNL     1       6.200   3.727   2.124  1.00  0.00    -0.300 OA
ENDBRANCH   1   2
BRANCH   1   5
ATOM      5  C   UNL     1       5.158   1.578   0.729  1.00  0.00     0.043 C 
BRANCH   5   6
ATOM      6  C   UNL     1       6.000   0.491   0.198  1.00  0.00    -0.044 A 
ATOM      7  C   UNL     1       6.303  -0.641   0.962  1.00  0.00     0.008 A 
ATOM      8  C   UNL     1       6.502   0.581  -1.080  1.00  0.00     0.054 A 
ATOM      9  C   UNL     1       7.097  -1.630   0.410  1.00  0.00     0.051 A 
ATOM     10  C   UNL     1       7.304  -0.422  -1.634  1.00  0.00     0.166 A 
ATOM     11  C   UNL     1       7.604  -1.536  -0.882  1.00  0.00     0.165 A 
ATOM     12  O   UNL     1       7.916  -0.565  -2.861  1.00  0.00    -0.454 OA
ATOM     13  O   UNL     1       8.402  -2.349  -1.672  1.00  0.00    -0.454 OA
ATOM     14  C   UNL     1       8.549  -1.815  -2.966  1.00  0.00     0.468 C 
ENDBRANCH   5   6
ENDBRANCH   1   5
TORSDOF 3
ENDMDL
MODEL 2
REMARK VINA RESULT:      -7.7      1.081      2.045
REMARK SMILES CC(=O)CCc1ccc2c(c1)OCO2
REMARK SMILES IDX 4 1 2 2 1 3 3 4 5 5 6 6 7 7 11 8 8 9 10 10 9 11 12 12 14 13
REMARK SMILES IDX 13 14
REMARK H PARENT
REMARK Flexibility Score: inf
ROOT
ATOM      1  C   UNL     1       5.304   3.029   0.343  1.00  0.00     0.080 C 
ENDROOT
BRANCH   1   2
ATOM      2  C   UNL     1       6.349   3.805   1.068  1.00  0.00     0.130 C 
ATOM      3  C   UNL     1       7.239   4.766   0.362  1.00  0.00     0.087 C 
ATOM      4  O   UNL     1       6.506   3.672   2.271  1.00  0.00    -0.300 OA
ENDBRANCH   1   2
BRANCH   1   5
ATOM      5  C   UNL     1       5.069   1.681   0.994  1.00  0.00     0.043 C 
BRANCH   5   6
ATOM      6  C   UNL     1       5.935   0.637   0.417  1.00  0.00    -0.044 A 
ATOM      7  C   UNL     1       6.346   0.682  -0.921  1.00  0.00     0.008 A 
ATOM      8  C   UNL     1       6.357  -0.410   1.203  1.00  0.00     0.054 A 
ATOM      9  C   UNL     1       7.159  -0.325  -1.407  1.00  0.00     0.051 A 
ATOM     10  C   UNL     1       7.180  -1.426   0.706  1.00  0.00     0.166 A 
ATOM     11  C   UNL     1       7.584  -1.383  -0.610  1.00  0.00     0.165 A 
ATOM     12  O   UNL     1       7.726  -2.556   1.277  1.00  0.00    -0.454 OA
ATOM     13  O   UNL     1       8.379  -2.498  -0.822  1.00  0.00    -0.454 OA
ATOM     14  C   UNL     1       8.569  -3.221   0.371  1.00  0.00     0.468 C 
ENDBRANCH   5   6
ENDBRANCH   1   5
TORSDOF 3
ENDMDL
MODEL 3
REMARK VINA RESULT:      -7.6      1.884      2.616
REMARK SMILES CC(=O)CCc1ccc2c(c1)OCO2
REMARK SMILES IDX 4 1 2 2 1 3 3 4 5 5 6 6 7 7 11 8 8 9 10 10 9 11 12 12 14 13
REMARK SMILES IDX 13 14
REMARK H PARENT
REMARK Flexibility Score: inf
ROOT
ATOM      1  C   UNL     1       5.532   1.897   1.284  1.00  0.00     0.080 C 
ENDROOT
BRANCH   1   2
ATOM      2  C   UNL     1       5.098   0.673   2.014  1.00  0.00     0.130 C 
ATOM      3  C   UNL     1       5.998  -0.501   2.174  1.00  0.00     0.087 C 
ATOM      4  O   UNL     1       3.984   0.599   2.506  1.00  0.00    -0.300 OA
ENDBRANCH   1   2
BRANCH   1   5
ATOM      5  C   UNL     1       5.404   1.717  -0.216  1.00  0.00     0.043 C 
BRANCH   5   6
ATOM      6  C   UNL     1       6.569   1.016  -0.784  1.00  0.00    -0.044 A 
ATOM      7  C   UNL     1       7.877   1.447  -0.536  1.00  0.00     0.008 A 
ATOM      8  C   UNL     1       6.377  -0.094  -1.575  1.00  0.00     0.054 A 
ATOM      9  C   UNL     1       8.931   0.749  -1.095  1.00  0.00     0.051 A 
ATOM     10  C   UNL     1       7.447  -0.797  -2.138  1.00  0.00     0.166 A 
ATOM     11  C   UNL     1       8.734  -0.372  -1.896  1.00  0.00     0.165 A 
ATOM     12  O   UNL     1       7.517  -1.911  -2.947  1.00  0.00    -0.454 OA
ATOM     13  O   UNL     1       9.577  -1.244  -2.568  1.00  0.00    -0.454 OA
ATOM     14  C   UNL     1       8.851  -2.287  -3.173  1.00  0.00     0.468 C 
ENDBRANCH   5   6
ENDBRANCH   1   5
TORSDOF 3
ENDMDL
