@<TRIPOS>MOLECULE
/home/cewinharhar/GITHUB/reincatalyze/data/processed/docking_pred/2023-May-22-1739_sub9_nm5_bs15_s42_ex16_mel10_mts1000_k50_ec02_g099_lra9e-4_lrc1e-3/6d158fe290fd5017d73aec191e5eef2bb245b649_ligand_9.pdbqt
 14 15 0 0 0
SMALL
GASTEIGER

@<TRIPOS>ATOM
      1  C          5.5320    1.8970    1.2840 C.3     1  UNL1        0.0800
      2  C          5.0980    0.6730    2.0140 C.2     1  UNL1        0.1300
      3  C          5.9980   -0.5010    2.1740 C.3     1  UNL1        0.0870
      4  O          3.9840    0.5990    2.5060 O.2     1  UNL1       -0.3000
      5  C          5.4040    1.7170   -0.2160 C.3     1  UNL1        0.0430
      6  C          6.5690    1.0160   -0.7840 C.2     1  UNL1       -0.0440
      7  C          7.8770    1.4470   -0.5360 C.2     1  UNL1        0.0080
      8  C          6.3770   -0.0940   -1.5750 C.2     1  UNL1        0.0540
      9  C          8.9310    0.7490   -1.0950 C.2     1  UNL1        0.0510
     10  C          7.4470   -0.7970   -2.1380 C.2     1  UNL1        0.1660
     11  C          8.7340   -0.3720   -1.8960 C.2     1  UNL1        0.1650
     12  O          7.5170   -1.9110   -2.9470 O.2     1  UNL1       -0.4540
     13  O          9.5770   -1.2440   -2.5680 O.2     1  UNL1       -0.4540
     14  C          8.8510   -2.2870   -3.1730 C.3     1  UNL1        0.4680
@<TRIPOS>BOND
     1    14    12    1
     2    14    13    1
     3    12    10    1
     4    13    11    1
     5    10    11    2
     6    10     8    1
     7    11     9    1
     8     8     6    2
     9     9     7    2
    10     6     7    1
    11     6     5    1
    12     5     1    1
    13     1     2    1
    14     2     3    1
    15     2     4    2
