@<TRIPOS>MOLECULE
/home/cewinharhar/GITHUB/reincatalyze/data/processed/docking_pred/2023-May-22-1739_sub9_nm5_bs15_s42_ex16_mel10_mts1000_k50_ec02_g099_lra9e-4_lrc1e-3/6d158fe290fd5017d73aec191e5eef2bb245b649_ligand_9.pdbqt
 14 15 0 0 0
SMALL
GASTEIGER

@<TRIPOS>ATOM
      1  C          5.3040    3.0290    0.3430 C.3     1  UNL1        0.0800
      2  C          6.3490    3.8050    1.0680 C.2     1  UNL1        0.1300
      3  C          7.2390    4.7660    0.3620 C.3     1  UNL1        0.0870
      4  O          6.5060    3.6720    2.2710 O.2     1  UNL1       -0.3000
      5  C          5.0690    1.6810    0.9940 C.3     1  UNL1        0.0430
      6  C          5.9350    0.6370    0.4170 C.2     1  UNL1       -0.0440
      7  C          6.3460    0.6820   -0.9210 C.2     1  UNL1        0.0080
      8  C          6.3570   -0.4100    1.2030 C.2     1  UNL1        0.0540
      9  C          7.1590   -0.3250   -1.4070 C.2     1  UNL1        0.0510
     10  C          7.1800   -1.4260    0.7060 C.2     1  UNL1        0.1660
     11  C          7.5840   -1.3830   -0.6100 C.2     1  UNL1        0.1650
     12  O          7.7260   -2.5560    1.2770 O.2     1  UNL1       -0.4540
     13  O          8.3790   -2.4980   -0.8220 O.2     1  UNL1       -0.4540
     14  C          8.5690   -3.2210    0.3710 C.3     1  UNL1        0.4680
@<TRIPOS>BOND
     1     9     7    1
     2     9    11    2
     3     7     6    2
     4    13    11    1
     5    13    14    1
     6    11    10    1
     7     1     5    1
     8     1     2    1
     9     3     2    1
    10    14    12    1
    11     6     5    1
    12     6     8    1
    13    10     8    2
    14    10    12    1
    15     2     4    2
