@<TRIPOS>MOLECULE
/home/cewinharhar/GITHUB/reincatalyze/data/processed/docking_pred/2023-May-22-1739_sub9_nm5_bs15_s42_ex16_mel10_mts1000_k50_ec02_g099_lra9e-4_lrc1e-3/6d158fe290fd5017d73aec191e5eef2bb245b649_ligand_9.pdbqt
 14 15 0 0 0
SMALL
GASTEIGER

@<TRIPOS>ATOM
      1  C          5.4480    2.9000    0.0450 C.3     1  UNL1        0.0800
      2  C          6.2780    3.7850    0.9080 C.2     1  UNL1        0.1300
      3  C          7.2300    4.7700    0.3290 C.3     1  UNL1        0.0870
      4  O          6.2000    3.7270    2.1240 O.2     1  UNL1       -0.3000
      5  C          5.1580    1.5780    0.7290 C.3     1  UNL1        0.0430
      6  C          6.0000    0.4910    0.1980 C.2     1  UNL1       -0.0440
      7  C          6.3030   -0.6410    0.9620 C.2     1  UNL1        0.0080
      8  C          6.5020    0.5810   -1.0800 C.2     1  UNL1        0.0540
      9  C          7.0970   -1.6300    0.4100 C.2     1  UNL1        0.0510
     10  C          7.3040   -0.4220   -1.6340 C.2     1  UNL1        0.1660
     11  C          7.6040   -1.5360   -0.8820 C.2     1  UNL1        0.1650
     12  O          7.9160   -0.5650   -2.8610 O.2     1  UNL1       -0.4540
     13  O          8.4020   -2.3490   -1.6720 O.2     1  UNL1       -0.4540
     14  C          8.5490   -1.8150   -2.9660 C.3     1  UNL1        0.4680
@<TRIPOS>BOND
     1    14    12    1
     2    14    13    1
     3    12    10    1
     4    13    11    1
     5    10     8    1
     6    10    11    2
     7     8     6    2
     8    11     9    1
     9     1     5    1
    10     1     2    1
    11     6     5    1
    12     6     7    1
    13     3     2    1
    14     9     7    2
    15     2     4    2
