@<TRIPOS>MOLECULE
/home/cewinharhar/GITHUB/reincatalyze/data/processed/docking_pred/2023-May-22-1739_sub9_nm5_bs15_s42_ex16_mel10_mts1000_k50_ec02_g099_lra9e-4_lrc1e-3/6dc168e099aae66a1c19408847f7f9495b2b5216_ligand_9.pdbqt
 14 15 0 0 0
SMALL
GASTEIGER

@<TRIPOS>ATOM
      1  C          5.5580    1.9140    1.2760 C.3     1  UNL1        0.0800
      2  C          5.1290    0.6940    2.0160 C.2     1  UNL1        0.1300
      3  C          6.0350   -0.4730    2.1890 C.3     1  UNL1        0.0870
      4  O          4.0130    0.6170    2.5040 O.2     1  UNL1       -0.3000
      5  C          5.4240    1.7240   -0.2220 C.3     1  UNL1        0.0430
      6  C          6.5880    1.0210   -0.7900 C.2     1  UNL1       -0.0440
      7  C          7.8970    1.4470   -0.5370 C.2     1  UNL1        0.0080
      8  C          6.3950   -0.0850   -1.5870 C.2     1  UNL1        0.0540
      9  C          8.9500    0.7460   -1.0970 C.2     1  UNL1        0.0510
     10  C          7.4630   -0.7900   -2.1490 C.2     1  UNL1        0.1660
     11  C          8.7510   -0.3700   -1.9030 C.2     1  UNL1        0.1650
     12  O          7.5310   -1.9000   -2.9630 O.2     1  UNL1       -0.4540
     13  O          9.5920   -1.2420   -2.5760 O.2     1  UNL1       -0.4540
     14  C          8.8640   -2.2800   -3.1870 C.3     1  UNL1        0.4680
@<TRIPOS>BOND
     1    14    12    1
     2    14    13    1
     3    12    10    1
     4    13    11    1
     5    10    11    2
     6    10     8    1
     7    11     9    1
     8     8     6    2
     9     9     7    2
    10     6     7    1
    11     6     5    1
    12     5     1    1
    13     1     2    1
    14     2     3    1
    15     2     4    2
