@<TRIPOS>MOLECULE
/home/cewinharhar/GITHUB/reincatalyze/data/processed/docking_pred/2023-May-22-1739_sub9_nm5_bs15_s42_ex16_mel10_mts1000_k50_ec02_g099_lra9e-4_lrc1e-3/6dc168e099aae66a1c19408847f7f9495b2b5216_ligand_9.pdbqt
 14 15 0 0 0
SMALL
GASTEIGER

@<TRIPOS>ATOM
      1  C          5.4940    2.8690    0.2160 C.3     1  UNL1        0.0800
      2  C          6.2810    3.8480    1.0150 C.2     1  UNL1        0.1300
      3  C          7.2550    4.7740    0.3770 C.3     1  UNL1        0.0870
      4  O          6.1490    3.9180    2.2260 O.2     1  UNL1       -0.3000
      5  C          5.2810    1.5780    0.9810 C.3     1  UNL1        0.0430
      6  C          6.0950    0.4780    0.4350 C.2     1  UNL1       -0.0440
      7  C          6.4590   -0.6230    1.2180 C.2     1  UNL1        0.0080
      8  C          6.5100    0.5220   -0.8770 C.2     1  UNL1        0.0540
      9  C          7.2240   -1.6270    0.6510 C.2     1  UNL1        0.0510
     10  C          7.2820   -0.4950   -1.4460 C.2     1  UNL1        0.1660
     11  C          7.6430   -1.5780   -0.6750 C.2     1  UNL1        0.1650
     12  O          7.8120   -0.6800   -2.7050 O.2     1  UNL1       -0.4540
     13  O          8.3930   -2.4150   -1.4860 O.2     1  UNL1       -0.4540
     14  C          8.4490   -1.9280   -2.8060 C.3     1  UNL1        0.4680
@<TRIPOS>BOND
     1    14    12    1
     2    14    13    1
     3    12    10    1
     4    13    11    1
     5    10     8    1
     6    10    11    2
     7     8     6    2
     8    11     9    1
     9     1     5    1
    10     1     2    1
    11     3     2    1
    12     6     5    1
    13     6     7    1
    14     9     7    2
    15     2     4    2
