@<TRIPOS>MOLECULE
/home/cewinharhar/GITHUB/reincatalyze/data/processed/docking_pred/2023-May-22-1739_sub9_nm5_bs15_s42_ex16_mel10_mts1000_k50_ec02_g099_lra9e-4_lrc1e-3/6dc168e099aae66a1c19408847f7f9495b2b5216_ligand_9.pdbqt
 14 15 0 0 0
SMALL
GASTEIGER

@<TRIPOS>ATOM
      1  C          5.3020    3.0240    0.4070 C.3     1  UNL1        0.0800
      2  C          6.3860    3.7440    1.1320 C.2     1  UNL1        0.1300
      3  C          7.2230    4.7750    0.4620 C.3     1  UNL1        0.0870
      4  O          6.6190    3.5060    2.3060 O.2     1  UNL1       -0.3000
      5  C          5.0410    1.6620    1.0190 C.3     1  UNL1        0.0430
      6  C          5.8940    0.6200    0.4200 C.2     1  UNL1       -0.0440
      7  C          6.2710    0.6670   -0.9270 C.2     1  UNL1        0.0080
      8  C          6.3380   -0.4270    1.1950 C.2     1  UNL1        0.0540
      9  C          7.0740   -0.3390   -1.4350 C.2     1  UNL1        0.0510
     10  C          7.1500   -1.4410    0.6770 C.2     1  UNL1        0.1660
     11  C          7.5200   -1.3960   -0.6490 C.2     1  UNL1        0.1650
     12  O          7.7120   -2.5710    1.2330 O.2     1  UNL1       -0.4540
     13  O          8.3120   -2.5100   -0.8810 O.2     1  UNL1       -0.4540
     14  C          8.5330   -3.2330    0.3060 C.3     1  UNL1        0.4680
@<TRIPOS>BOND
     1     9     7    1
     2     9    11    2
     3     7     6    2
     4    13    11    1
     5    13    14    1
     6    11    10    1
     7    14    12    1
     8     1     5    1
     9     1     2    1
    10     6     5    1
    11     6     8    1
    12     3     2    1
    13    10     8    2
    14    10    12    1
    15     2     4    2
