MODEL 1
REMARK VINA RESULT:      -7.8      0.000      0.000
REMARK SMILES CC(=O)CCc1ccc2c(c1)OCO2
REMARK SMILES IDX 4 1 2 2 1 3 3 4 5 5 6 6 7 7 11 8 8 9 10 10 9 11 12 12 14 13
REMARK SMILES IDX 13 14
REMARK H PARENT
REMARK Flexibility Score: inf
ROOT
ATOM      1  C   UNL     1       5.494   2.869   0.216  1.00  0.00     0.080 C 
ENDROOT
BRANCH   1   2
ATOM      2  C   UNL     1       6.281   3.848   1.015  1.00  0.00     0.130 C 
ATOM      3  C   UNL     1       7.255   4.774   0.377  1.00  0.00     0.087 C 
ATOM      4  O   UNL     1       6.149   3.918   2.226  1.00  0.00    -0.300 OA
ENDBRANCH   1   2
BRANCH   1   5
ATOM      5  C   UNL     1       5.281   1.578   0.981  1.00  0.00     0.043 C 
BRANCH   5   6
ATOM      6  C   UNL     1       6.095   0.478   0.435  1.00  0.00    -0.044 A 
ATOM      7  C   UNL     1       6.459  -0.623   1.218  1.00  0.00     0.008 A 
ATOM      8  C   UNL     1       6.510   0.522  -0.877  1.00  0.00     0.054 A 
ATOM      9  C   UNL     1       7.224  -1.627   0.651  1.00  0.00     0.051 A 
ATOM     10  C   UNL     1       7.282  -0.495  -1.446  1.00  0.00     0.166 A 
ATOM     11  C   UNL     1       7.643  -1.578  -0.675  1.00  0.00     0.165 A 
ATOM     12  O   UNL     1       7.812  -0.680  -2.705  1.00  0.00    -0.454 OA
ATOM     13  O   UNL     1       8.393  -2.415  -1.486  1.00  0.00    -0.454 OA
ATOM     14  C   UNL     1       8.449  -1.928  -2.806  1.00  0.00     0.468 C 
ENDBRANCH   5   6
ENDBRANCH   1   5
TORSDOF 3
ENDMDL
MODEL 2
REMARK VINA RESULT:      -7.7      1.002      1.974
REMARK SMILES CC(=O)CCc1ccc2c(c1)OCO2
REMARK SMILES IDX 4 1 2 2 1 3 3 4 5 5 6 6 7 7 11 8 8 9 10 10 9 11 12 12 14 13
REMARK SMILES IDX 13 14
REMARK H PARENT
REMARK Flexibility Score: inf
ROOT
ATOM      1  C   UNL     1       5.302   3.024   0.407  1.00  0.00     0.080 C 
ENDROOT
BRANCH   1   2
ATOM      2  C   UNL     1       6.386   3.744   1.132  1.00  0.00     0.130 C 
ATOM      3  C   UNL     1       7.223   4.775   0.462  1.00  0.00     0.087 C 
ATOM      4  O   UNL     1       6.619   3.506   2.306  1.00  0.00    -0.300 OA
ENDBRANCH   1   2
BRANCH   1   5
ATOM      5  C   UNL     1       5.041   1.662   1.019  1.00  0.00     0.043 C 
BRANCH   5   6
ATOM      6  C   UNL     1       5.894   0.620   0.420  1.00  0.00    -0.044 A 
ATOM      7  C   UNL     1       6.271   0.667  -0.927  1.00  0.00     0.008 A 
ATOM      8  C   UNL     1       6.338  -0.427   1.195  1.00  0.00     0.054 A 
ATOM      9  C   UNL     1       7.074  -0.339  -1.435  1.00  0.00     0.051 A 
ATOM     10  C   UNL     1       7.150  -1.441   0.677  1.00  0.00     0.166 A 
ATOM     11  C   UNL     1       7.520  -1.396  -0.649  1.00  0.00     0.165 A 
ATOM     12  O   UNL     1       7.712  -2.571   1.233  1.00  0.00    -0.454 OA
ATOM     13  O   UNL     1       8.312  -2.510  -0.881  1.00  0.00    -0.454 OA
ATOM     14  C   UNL     1       8.533  -3.233   0.306  1.00  0.00     0.468 C 
ENDBRANCH   5   6
ENDBRANCH   1   5
TORSDOF 3
ENDMDL
MODEL 3
REMARK VINA RESULT:      -7.7      1.905      2.653
REMARK SMILES CC(=O)CCc1ccc2c(c1)OCO2
REMARK SMILES IDX 4 1 2 2 1 3 3 4 5 5 6 6 7 7 11 8 8 9 10 10 9 11 12 12 14 13
REMARK SMILES IDX 13 14
REMARK H PARENT
REMARK Flexibility Score: inf
ROOT
ATOM      1  C   UNL     1       5.558   1.914   1.276  1.00  0.00     0.080 C 
ENDROOT
BRANCH   1   2
ATOM      2  C   UNL     1       5.129   0.694   2.016  1.00  0.00     0.130 C 
ATOM      3  C   UNL     1       6.035  -0.473   2.189  1.00  0.00     0.087 C 
ATOM      4  O   UNL     1       4.013   0.617   2.504  1.00  0.00    -0.300 OA
ENDBRANCH   1   2
BRANCH   1   5
ATOM      5  C   UNL     1       5.424   1.724  -0.222  1.00  0.00     0.043 C 
BRANCH   5   6
ATOM      6  C   UNL     1       6.588   1.021  -0.790  1.00  0.00    -0.044 A 
ATOM      7  C   UNL     1       7.897   1.447  -0.537  1.00  0.00     0.008 A 
ATOM      8  C   UNL     1       6.395  -0.085  -1.587  1.00  0.00     0.054 A 
ATOM      9  C   UNL     1       8.950   0.746  -1.097  1.00  0.00     0.051 A 
ATOM     10  C   UNL     1       7.463  -0.790  -2.149  1.00  0.00     0.166 A 
ATOM     11  C   UNL     1       8.751  -0.370  -1.903  1.00  0.00     0.165 A 
ATOM     12  O   UNL     1       7.531  -1.900  -2.963  1.00  0.00    -0.454 OA
ATOM     13  O   UNL     1       9.592  -1.242  -2.576  1.00  0.00    -0.454 OA
ATOM     14  C   UNL     1       8.864  -2.280  -3.187  1.00  0.00     0.468 C 
ENDBRANCH   5   6
ENDBRANCH   1   5
TORSDOF 3
ENDMDL
