@<TRIPOS>MOLECULE
/home/cewinharhar/GITHUB/reincatalyze/data/processed/docking_pred/2023-May-22-1739_sub9_nm5_bs15_s42_ex16_mel10_mts1000_k50_ec02_g099_lra9e-4_lrc1e-3/6e6a373552f8835a6ba7a6c6fa001d8bbefa4498_ligand_9.pdbqt
 14 15 0 0 0
SMALL
GASTEIGER

@<TRIPOS>ATOM
      1  C          5.6060    2.7680   -0.2300 C.3     1  UNL1        0.0800
      2  C          6.2470    3.6620    0.7740 C.2     1  UNL1        0.1300
      3  C          7.1740    4.7530    0.3690 C.3     1  UNL1        0.0870
      4  O          6.0290    3.5230    1.9670 O.2     1  UNL1       -0.3000
      5  C          5.7530    1.3100    0.1580 C.3     1  UNL1        0.0430
      6  C          6.8100    0.6410   -0.6220 C.2     1  UNL1       -0.0440
      7  C          8.1240    1.1230   -0.6410 C.2     1  UNL1        0.0080
      8  C          6.5090   -0.4870   -1.3510 C.2     1  UNL1        0.0540
      9  C          9.0740    0.4530   -1.3900 C.2     1  UNL1        0.0510
     10  C          7.4740   -1.1610   -2.1070 C.2     1  UNL1        0.1660
     11  C          8.7660   -0.6860   -2.1270 C.2     1  UNL1        0.1650
     12  O          7.4260   -2.2840   -2.9040 O.2     1  UNL1       -0.4540
     13  O          9.4930   -1.5380   -2.9440 O.2     1  UNL1       -0.4540
     14  C          8.7030   -2.6160   -3.3850 C.3     1  UNL1        0.4680
@<TRIPOS>BOND
     1    14    13    1
     2    14    12    1
     3    13    11    1
     4    12    10    1
     5    11    10    2
     6    11     9    1
     7    10     8    1
     8     9     7    2
     9     8     6    2
    10     7     6    1
    11     6     5    1
    12     1     5    1
    13     1     2    1
    14     3     2    1
    15     2     4    2
