@<TRIPOS>MOLECULE
/home/cewinharhar/GITHUB/reincatalyze/data/processed/docking_pred/2023-May-22-1739_sub9_nm5_bs15_s42_ex16_mel10_mts1000_k50_ec02_g099_lra9e-4_lrc1e-3/6e6a373552f8835a6ba7a6c6fa001d8bbefa4498_ligand_9.pdbqt
 14 15 0 0 0
SMALL
GASTEIGER

@<TRIPOS>ATOM
      1  C          8.1310   -2.5440   -3.5960 C.3     1  UNL1        0.0800
      2  C          9.2350   -3.5250   -3.4030 C.2     1  UNL1        0.1300
      3  C          8.9750   -4.9870   -3.3150 C.3     1  UNL1        0.0870
      4  O         10.3940   -3.1540   -3.3100 O.2     1  UNL1       -0.3000
      5  C          8.5090   -1.1770   -3.0610 C.3     1  UNL1        0.0430
      6  C          7.7410   -0.8320   -1.8520 C.2     1  UNL1       -0.0440
      7  C          7.7750   -1.6370   -0.7070 C.2     1  UNL1        0.0080
      8  C          6.9700    0.3090   -1.8360 C.2     1  UNL1        0.0540
      9  C          7.0340   -1.2620    0.3990 C.2     1  UNL1        0.0510
     10  C          6.2230    0.6840   -0.7150 C.2     1  UNL1        0.1660
     11  C          6.2550   -0.1080    0.4120 C.2     1  UNL1        0.1650
     12  O          5.3920    1.7520   -0.4540 O.2     1  UNL1       -0.4540
     13  O          5.4350    0.4970    1.3500 O.2     1  UNL1       -0.4540
     14  C          4.9390    1.7260    0.8750 C.3     1  UNL1        0.4680
@<TRIPOS>BOND
     1     1     2    1
     2     1     5    1
     3     2     3    1
     4     2     4    2
     5     5     6    1
     6     6     8    2
     7     6     7    1
     8     8    10    1
     9    10    12    1
    10    10    11    2
    11     7     9    2
    12    12    14    1
    13     9    11    1
    14    11    13    1
    15    14    13    1
