@<TRIPOS>MOLECULE
/home/cewinharhar/GITHUB/reincatalyze/data/processed/docking_pred/2023-May-22-1739_sub9_nm5_bs15_s42_ex16_mel10_mts1000_k50_ec02_g099_lra9e-4_lrc1e-3/73f03501d88ed0f960f592fe5f6124e73644cb01_ligand_9.pdbqt
 14 15 0 0 0
SMALL
GASTEIGER

@<TRIPOS>ATOM
      1  C          5.7280    1.2900   -0.3090 C.3     1  UNL1        0.0800
      2  C          5.1670    1.2820    1.0710 C.2     1  UNL1        0.1300
      3  C          5.3270    0.1090    1.9720 C.3     1  UNL1        0.0870
      4  O          4.5540    2.2440    1.5040 O.2     1  UNL1       -0.3000
      5  C          7.2290    1.0820   -0.2940 C.3     1  UNL1        0.0430
      6  C          7.6090   -0.2110   -0.8900 C.2     1  UNL1       -0.0440
      7  C          7.6920   -0.3830   -2.2770 C.2     1  UNL1        0.0080
      8  C          7.8920   -1.2820   -0.0740 C.2     1  UNL1        0.0540
      9  C          8.0540   -1.6190   -2.7790 C.2     1  UNL1        0.0510
     10  C          8.2580   -2.5300   -0.5870 C.2     1  UNL1        0.1660
     11  C          8.3390   -2.7000   -1.9510 C.2     1  UNL1        0.1650
     12  O          8.5830   -3.7310    0.0070 O.2     1  UNL1       -0.4540
     13  O          8.7170   -4.0160   -2.1690 O.2     1  UNL1       -0.4540
     14  C          8.9710   -4.6800   -0.9540 C.3     1  UNL1        0.4680
@<TRIPOS>BOND
     1     9     7    1
     2     9    11    2
     3     7     6    2
     4    13    11    1
     5    13    14    1
     6    11    10    1
     7    14    12    1
     8     6     5    1
     9     6     8    1
    10    10     8    2
    11    10    12    1
    12     1     5    1
    13     1     2    1
    14     2     4    2
    15     2     3    1
