MODEL 1
REMARK VINA RESULT:      -7.6      0.000      0.000
REMARK SMILES CC(=O)CCc1ccc2c(c1)OCO2
REMARK SMILES IDX 4 1 2 2 1 3 3 4 5 5 6 6 7 7 11 8 8 9 10 10 9 11 12 12 14 13
REMARK SMILES IDX 13 14
REMARK H PARENT
REMARK Flexibility Score: inf
ROOT
ATOM      1  C   UNL     1       5.506   1.901   1.273  1.00  0.00     0.080 C 
ENDROOT
BRANCH   1   2
ATOM      2  C   UNL     1       5.062   0.682   2.004  1.00  0.00     0.130 C 
ATOM      3  C   UNL     1       5.944  -0.506   2.150  1.00  0.00     0.087 C 
ATOM      4  O   UNL     1       3.951   0.623   2.508  1.00  0.00    -0.300 OA
ENDBRANCH   1   2
BRANCH   1   5
ATOM      5  C   UNL     1       5.383   1.719  -0.227  1.00  0.00     0.043 C 
BRANCH   5   6
ATOM      6  C   UNL     1       6.554   1.025  -0.791  1.00  0.00    -0.044 A 
ATOM      7  C   UNL     1       7.858   1.470  -0.546  1.00  0.00     0.008 A 
ATOM      8  C   UNL     1       6.373  -0.090  -1.577  1.00  0.00     0.054 A 
ATOM      9  C   UNL     1       8.919   0.778  -1.101  1.00  0.00     0.051 A 
ATOM     10  C   UNL     1       7.449  -0.786  -2.136  1.00  0.00     0.166 A 
ATOM     11  C   UNL     1       8.732  -0.349  -1.896  1.00  0.00     0.165 A 
ATOM     12  O   UNL     1       7.529  -1.904  -2.940  1.00  0.00    -0.454 OA
ATOM     13  O   UNL     1       9.583  -1.216  -2.564  1.00  0.00    -0.454 OA
ATOM     14  C   UNL     1       8.866  -2.269  -3.164  1.00  0.00     0.468 C 
ENDBRANCH   5   6
ENDBRANCH   1   5
TORSDOF 3
ENDMDL
MODEL 2
REMARK VINA RESULT:      -7.4      1.932      2.414
REMARK SMILES CC(=O)CCc1ccc2c(c1)OCO2
REMARK SMILES IDX 4 1 2 2 1 3 3 4 5 5 6 6 7 7 11 8 8 9 10 10 9 11 12 12 14 13
REMARK SMILES IDX 13 14
REMARK H PARENT
REMARK Flexibility Score: inf
ROOT
ATOM      1  C   UNL     1       5.728   1.290  -0.309  1.00  0.00     0.080 C 
ENDROOT
BRANCH   1   2
ATOM      2  C   UNL     1       5.167   1.282   1.071  1.00  0.00     0.130 C 
ATOM      3  C   UNL     1       5.327   0.109   1.972  1.00  0.00     0.087 C 
ATOM      4  O   UNL     1       4.554   2.244   1.504  1.00  0.00    -0.300 OA
ENDBRANCH   1   2
BRANCH   1   5
ATOM      5  C   UNL     1       7.229   1.082  -0.294  1.00  0.00     0.043 C 
BRANCH   5   6
ATOM      6  C   UNL     1       7.609  -0.211  -0.890  1.00  0.00    -0.044 A 
ATOM      7  C   UNL     1       7.692  -0.383  -2.277  1.00  0.00     0.008 A 
ATOM      8  C   UNL     1       7.892  -1.282  -0.074  1.00  0.00     0.054 A 
ATOM      9  C   UNL     1       8.054  -1.619  -2.779  1.00  0.00     0.051 A 
ATOM     10  C   UNL     1       8.258  -2.530  -0.587  1.00  0.00     0.166 A 
ATOM     11  C   UNL     1       8.339  -2.700  -1.951  1.00  0.00     0.165 A 
ATOM     12  O   UNL     1       8.583  -3.731   0.007  1.00  0.00    -0.454 OA
ATOM     13  O   UNL     1       8.717  -4.016  -2.169  1.00  0.00    -0.454 OA
ATOM     14  C   UNL     1       8.971  -4.680  -0.954  1.00  0.00     0.468 C 
ENDBRANCH   5   6
ENDBRANCH   1   5
TORSDOF 3
ENDMDL
MODEL 3
REMARK VINA RESULT:      -7.3      2.180      2.799
REMARK SMILES CC(=O)CCc1ccc2c(c1)OCO2
REMARK SMILES IDX 4 1 2 2 1 3 3 4 5 5 6 6 7 7 11 8 8 9 10 10 9 11 12 12 14 13
REMARK SMILES IDX 13 14
REMARK H PARENT
REMARK Flexibility Score: inf
ROOT
ATOM      1  C   UNL     1       6.900   2.139  -0.122  1.00  0.00     0.080 C 
ENDROOT
BRANCH   1   2
ATOM      2  C   UNL     1       6.091   2.950   0.830  1.00  0.00     0.130 C 
ATOM      3  C   UNL     1       6.541   4.289   1.294  1.00  0.00     0.087 C 
ATOM      4  O   UNL     1       5.026   2.534   1.259  1.00  0.00    -0.300 OA
ENDBRANCH   1   2
BRANCH   1   5
ATOM      5  C   UNL     1       6.116   0.948  -0.636  1.00  0.00     0.043 C 
BRANCH   5   6
ATOM      6  C   UNL     1       6.803  -0.324  -0.348  1.00  0.00    -0.044 A 
ATOM      7  C   UNL     1       6.996  -0.773   0.963  1.00  0.00     0.008 A 
ATOM      8  C   UNL     1       7.268  -1.098  -1.387  1.00  0.00     0.054 A 
ATOM      9  C   UNL     1       7.647  -1.975   1.172  1.00  0.00     0.051 A 
ATOM     10  C   UNL     1       7.925  -2.314  -1.171  1.00  0.00     0.166 A 
ATOM     11  C   UNL     1       8.116  -2.755   0.120  1.00  0.00     0.165 A 
ATOM     12  O   UNL     1       8.472  -3.250  -2.021  1.00  0.00    -0.454 OA
ATOM     13  O   UNL     1       8.783  -3.967   0.034  1.00  0.00    -0.454 OA
ATOM     14  C   UNL     1       8.948  -4.362  -1.307  1.00  0.00     0.468 C 
ENDBRANCH   5   6
ENDBRANCH   1   5
TORSDOF 3
ENDMDL
