@<TRIPOS>MOLECULE
/home/cewinharhar/GITHUB/reincatalyze/data/processed/docking_pred/2023-May-22-1739_sub9_nm5_bs15_s42_ex16_mel10_mts1000_k50_ec02_g099_lra9e-4_lrc1e-3/73f03501d88ed0f960f592fe5f6124e73644cb01_ligand_9.pdbqt
 14 15 0 0 0
SMALL
GASTEIGER

@<TRIPOS>ATOM
      1  C          6.9000    2.1390   -0.1220 C.3     1  UNL1        0.0800
      2  C          6.0910    2.9500    0.8300 C.2     1  UNL1        0.1300
      3  C          6.5410    4.2890    1.2940 C.3     1  UNL1        0.0870
      4  O          5.0260    2.5340    1.2590 O.2     1  UNL1       -0.3000
      5  C          6.1160    0.9480   -0.6360 C.3     1  UNL1        0.0430
      6  C          6.8030   -0.3240   -0.3480 C.2     1  UNL1       -0.0440
      7  C          6.9960   -0.7730    0.9630 C.2     1  UNL1        0.0080
      8  C          7.2680   -1.0980   -1.3870 C.2     1  UNL1        0.0540
      9  C          7.6470   -1.9750    1.1720 C.2     1  UNL1        0.0510
     10  C          7.9250   -2.3140   -1.1710 C.2     1  UNL1        0.1660
     11  C          8.1160   -2.7550    0.1200 C.2     1  UNL1        0.1650
     12  O          8.4720   -3.2500   -2.0210 O.2     1  UNL1       -0.4540
     13  O          8.7830   -3.9670    0.0340 O.2     1  UNL1       -0.4540
     14  C          8.9480   -4.3620   -1.3070 C.3     1  UNL1        0.4680
@<TRIPOS>BOND
     1    12    14    1
     2    12    10    1
     3     8    10    1
     4     8     6    2
     5    14    13    1
     6    10    11    2
     7     5     6    1
     8     5     1    1
     9     6     7    1
    10     1     2    1
    11    13    11    1
    12    11     9    1
    13     2     4    2
    14     2     3    1
    15     7     9    2
