@<TRIPOS>MOLECULE
/home/cewinharhar/GITHUB/reincatalyze/data/processed/docking_pred/2023-May-22-1739_sub9_nm5_bs15_s42_ex16_mel10_mts1000_k50_ec02_g099_lra9e-4_lrc1e-3/73f03501d88ed0f960f592fe5f6124e73644cb01_ligand_9.pdbqt
 14 15 0 0 0
SMALL
GASTEIGER

@<TRIPOS>ATOM
      1  C          5.5060    1.9010    1.2730 C.3     1  UNL1        0.0800
      2  C          5.0620    0.6820    2.0040 C.2     1  UNL1        0.1300
      3  C          5.9440   -0.5060    2.1500 C.3     1  UNL1        0.0870
      4  O          3.9510    0.6230    2.5080 O.2     1  UNL1       -0.3000
      5  C          5.3830    1.7190   -0.2270 C.3     1  UNL1        0.0430
      6  C          6.5540    1.0250   -0.7910 C.2     1  UNL1       -0.0440
      7  C          7.8580    1.4700   -0.5460 C.2     1  UNL1        0.0080
      8  C          6.3730   -0.0900   -1.5770 C.2     1  UNL1        0.0540
      9  C          8.9190    0.7780   -1.1010 C.2     1  UNL1        0.0510
     10  C          7.4490   -0.7860   -2.1360 C.2     1  UNL1        0.1660
     11  C          8.7320   -0.3490   -1.8960 C.2     1  UNL1        0.1650
     12  O          7.5290   -1.9040   -2.9400 O.2     1  UNL1       -0.4540
     13  O          9.5830   -1.2160   -2.5640 O.2     1  UNL1       -0.4540
     14  C          8.8660   -2.2690   -3.1640 C.3     1  UNL1        0.4680
@<TRIPOS>BOND
     1    14    12    1
     2    14    13    1
     3    12    10    1
     4    13    11    1
     5    10    11    2
     6    10     8    1
     7    11     9    1
     8     8     6    2
     9     9     7    2
    10     6     7    1
    11     6     5    1
    12     5     1    1
    13     1     2    1
    14     2     3    1
    15     2     4    2
