@<TRIPOS>MOLECULE
/home/cewinharhar/GITHUB/reincatalyze/data/processed/docking_pred/2023-May-22-1739_sub9_nm5_bs15_s42_ex16_mel10_mts1000_k50_ec02_g099_lra9e-4_lrc1e-3/8651a6b7cbc4b018fd9bb7015a505d05e6fdae34_ligand_9.pdbqt
 14 15 0 0 0
SMALL
GASTEIGER

@<TRIPOS>ATOM
      1  C          5.4730    2.8780    0.3330 C.3     1  UNL1        0.0800
      2  C          6.4020    3.7450    1.1110 C.2     1  UNL1        0.1300
      3  C          7.2470    4.7750    0.4490 C.3     1  UNL1        0.0870
      4  O          6.4950    3.6350    2.3230 O.2     1  UNL1       -0.3000
      5  C          5.2360    1.5560    1.0370 C.3     1  UNL1        0.0430
      6  C          6.0600    0.4770    0.4650 C.2     1  UNL1       -0.0440
      7  C          6.4720   -0.6180    1.2340 C.2     1  UNL1        0.0080
      8  C          6.4380    0.5350   -0.8570 C.2     1  UNL1        0.0540
      9  C          7.2440   -1.6010    0.6430 C.2     1  UNL1        0.0510
     10  C          7.2180   -0.4630   -1.4500 C.2     1  UNL1        0.1660
     11  C          7.6250   -1.5390   -0.6940 C.2     1  UNL1        0.1650
     12  O          7.7180   -0.6320   -2.7240 O.2     1  UNL1       -0.4540
     13  O          8.3720   -2.3560   -1.5280 O.2     1  UNL1       -0.4540
     14  C          8.3800   -1.8640   -2.8470 C.3     1  UNL1        0.4680
@<TRIPOS>BOND
     1    14    12    1
     2    14    13    1
     3    12    10    1
     4    13    11    1
     5    10     8    1
     6    10    11    2
     7     8     6    2
     8    11     9    1
     9     1     5    1
    10     1     2    1
    11     3     2    1
    12     6     5    1
    13     6     7    1
    14     9     7    2
    15     2     4    2
