@<TRIPOS>MOLECULE
/home/cewinharhar/GITHUB/reincatalyze/data/processed/docking_pred/2023-May-22-1739_sub9_nm5_bs15_s42_ex16_mel10_mts1000_k50_ec02_g099_lra9e-4_lrc1e-3/8651a6b7cbc4b018fd9bb7015a505d05e6fdae34_ligand_9.pdbqt
 14 15 0 0 0
SMALL
GASTEIGER

@<TRIPOS>ATOM
      1  C          5.7480    1.3270   -0.3710 C.3     1  UNL1        0.0800
      2  C          5.1450    1.3110    0.9910 C.2     1  UNL1        0.1300
      3  C          5.3900    0.1920    1.9410 C.3     1  UNL1        0.0870
      4  O          4.4270    2.2220    1.3690 O.2     1  UNL1       -0.3000
      5  C          7.2450    1.0970   -0.3130 C.3     1  UNL1        0.0430
      6  C          7.6220   -0.2000   -0.9020 C.2     1  UNL1       -0.0440
      7  C          7.7130   -0.3770   -2.2870 C.2     1  UNL1        0.0080
      8  C          7.8960   -1.2690   -0.0800 C.2     1  UNL1        0.0540
      9  C          8.0720   -1.6170   -2.7830 C.2     1  UNL1        0.0510
     10  C          8.2600   -2.5210   -0.5860 C.2     1  UNL1        0.1660
     11  C          8.3480   -2.6960   -1.9490 C.2     1  UNL1        0.1650
     12  O          8.5760   -3.7210    0.0140 O.2     1  UNL1       -0.4540
     13  O          8.7220   -4.0140   -2.1600 O.2     1  UNL1       -0.4540
     14  C          8.9650   -4.6750   -0.9410 C.3     1  UNL1        0.4680
@<TRIPOS>BOND
     1     9     7    1
     2     9    11    2
     3     7     6    2
     4    13    11    1
     5    13    14    1
     6    11    10    1
     7    14    12    1
     8     6     5    1
     9     6     8    1
    10    10     8    2
    11    10    12    1
    12     1     5    1
    13     1     2    1
    14     2     4    2
    15     2     3    1
