MODEL 1
REMARK VINA RESULT:      -7.8      0.000      0.000
REMARK SMILES CC(=O)CCc1ccc2c(c1)OCO2
REMARK SMILES IDX 4 1 2 2 1 3 3 4 5 5 6 6 7 7 11 8 8 9 10 10 9 11 12 12 14 13
REMARK SMILES IDX 13 14
REMARK H PARENT
REMARK Flexibility Score: inf
ROOT
ATOM      1  C   UNL     1       5.473   2.878   0.333  1.00  0.00     0.080 C 
ENDROOT
BRANCH   1   2
ATOM      2  C   UNL     1       6.402   3.745   1.111  1.00  0.00     0.130 C 
ATOM      3  C   UNL     1       7.247   4.775   0.449  1.00  0.00     0.087 C 
ATOM      4  O   UNL     1       6.495   3.635   2.323  1.00  0.00    -0.300 OA
ENDBRANCH   1   2
BRANCH   1   5
ATOM      5  C   UNL     1       5.236   1.556   1.037  1.00  0.00     0.043 C 
BRANCH   5   6
ATOM      6  C   UNL     1       6.060   0.477   0.465  1.00  0.00    -0.044 A 
ATOM      7  C   UNL     1       6.472  -0.618   1.234  1.00  0.00     0.008 A 
ATOM      8  C   UNL     1       6.438   0.535  -0.857  1.00  0.00     0.054 A 
ATOM      9  C   UNL     1       7.244  -1.601   0.643  1.00  0.00     0.051 A 
ATOM     10  C   UNL     1       7.218  -0.463  -1.450  1.00  0.00     0.166 A 
ATOM     11  C   UNL     1       7.625  -1.539  -0.694  1.00  0.00     0.165 A 
ATOM     12  O   UNL     1       7.718  -0.632  -2.724  1.00  0.00    -0.454 OA
ATOM     13  O   UNL     1       8.372  -2.356  -1.528  1.00  0.00    -0.454 OA
ATOM     14  C   UNL     1       8.380  -1.864  -2.847  1.00  0.00     0.468 C 
ENDBRANCH   5   6
ENDBRANCH   1   5
TORSDOF 3
ENDMDL
MODEL 2
REMARK VINA RESULT:      -7.6      1.897      2.637
REMARK SMILES CC(=O)CCc1ccc2c(c1)OCO2
REMARK SMILES IDX 4 1 2 2 1 3 3 4 5 5 6 6 7 7 11 8 8 9 10 10 9 11 12 12 14 13
REMARK SMILES IDX 13 14
REMARK H PARENT
REMARK Flexibility Score: inf
ROOT
ATOM      1  C   UNL     1       5.542   1.912   1.274  1.00  0.00     0.080 C 
ENDROOT
BRANCH   1   2
ATOM      2  C   UNL     1       5.116   0.690   2.011  1.00  0.00     0.130 C 
ATOM      3  C   UNL     1       6.024  -0.476   2.181  1.00  0.00     0.087 C 
ATOM      4  O   UNL     1       4.001   0.610   2.499  1.00  0.00    -0.300 OA
ENDBRANCH   1   2
BRANCH   1   5
ATOM      5  C   UNL     1       5.413   1.724  -0.225  1.00  0.00     0.043 C 
BRANCH   5   6
ATOM      6  C   UNL     1       6.578   1.020  -0.790  1.00  0.00    -0.044 A 
ATOM      7  C   UNL     1       7.887   1.447  -0.536  1.00  0.00     0.008 A 
ATOM      8  C   UNL     1       6.387  -0.087  -1.585  1.00  0.00     0.054 A 
ATOM      9  C   UNL     1       8.941   0.746  -1.093  1.00  0.00     0.051 A 
ATOM     10  C   UNL     1       7.456  -0.793  -2.145  1.00  0.00     0.166 A 
ATOM     11  C   UNL     1       8.744  -0.372  -1.897  1.00  0.00     0.165 A 
ATOM     12  O   UNL     1       7.526  -1.905  -2.956  1.00  0.00    -0.454 OA
ATOM     13  O   UNL     1       9.587  -1.245  -2.567  1.00  0.00    -0.454 OA
ATOM     14  C   UNL     1       8.860  -2.285  -3.177  1.00  0.00     0.468 C 
ENDBRANCH   5   6
ENDBRANCH   1   5
TORSDOF 3
ENDMDL
MODEL 3
REMARK VINA RESULT:      -7.5      1.987      3.048
REMARK SMILES CC(=O)CCc1ccc2c(c1)OCO2
REMARK SMILES IDX 4 1 2 2 1 3 3 4 5 5 6 6 7 7 11 8 8 9 10 10 9 11 12 12 14 13
REMARK SMILES IDX 13 14
REMARK H PARENT
REMARK Flexibility Score: inf
ROOT
ATOM      1  C   UNL     1       5.748   1.327  -0.371  1.00  0.00     0.080 C 
ENDROOT
BRANCH   1   2
ATOM      2  C   UNL     1       5.145   1.311   0.991  1.00  0.00     0.130 C 
ATOM      3  C   UNL     1       5.390   0.192   1.941  1.00  0.00     0.087 C 
ATOM      4  O   UNL     1       4.427   2.222   1.369  1.00  0.00    -0.300 OA
ENDBRANCH   1   2
BRANCH   1   5
ATOM      5  C   UNL     1       7.245   1.097  -0.313  1.00  0.00     0.043 C 
BRANCH   5   6
ATOM      6  C   UNL     1       7.622  -0.200  -0.902  1.00  0.00    -0.044 A 
ATOM      7  C   UNL     1       7.713  -0.377  -2.287  1.00  0.00     0.008 A 
ATOM      8  C   UNL     1       7.896  -1.269  -0.080  1.00  0.00     0.054 A 
ATOM      9  C   UNL     1       8.072  -1.617  -2.783  1.00  0.00     0.051 A 
ATOM     10  C   UNL     1       8.260  -2.521  -0.586  1.00  0.00     0.166 A 
ATOM     11  C   UNL     1       8.348  -2.696  -1.949  1.00  0.00     0.165 A 
ATOM     12  O   UNL     1       8.576  -3.721   0.014  1.00  0.00    -0.454 OA
ATOM     13  O   UNL     1       8.722  -4.014  -2.160  1.00  0.00    -0.454 OA
ATOM     14  C   UNL     1       8.965  -4.675  -0.941  1.00  0.00     0.468 C 
ENDBRANCH   5   6
ENDBRANCH   1   5
TORSDOF 3
ENDMDL
