@<TRIPOS>MOLECULE
/home/cewinharhar/GITHUB/reincatalyze/data/processed/docking_pred/2023-May-22-1739_sub9_nm5_bs15_s42_ex16_mel10_mts1000_k50_ec02_g099_lra9e-4_lrc1e-3/8f3f3cc121b2e0b9b67c9595347d7d2b0dd21437_ligand_9.pdbqt
 14 15 0 0 0
SMALL
GASTEIGER

@<TRIPOS>ATOM
      1  C          5.5360    1.9360    1.2570 C.3     1  UNL1        0.0800
      2  C          5.1180    0.7170    2.0040 C.2     1  UNL1        0.1300
      3  C          6.0370   -0.4380    2.1900 C.3     1  UNL1        0.0870
      4  O          4.0010    0.6300    2.4870 O.2     1  UNL1       -0.3000
      5  C          5.4080    1.7350   -0.2400 C.3     1  UNL1        0.0430
      6  C          6.5730    1.0260   -0.7980 C.2     1  UNL1       -0.0440
      7  C          7.8820    1.4480   -0.5370 C.2     1  UNL1        0.0080
      8  C          6.3820   -0.0800   -1.5940 C.2     1  UNL1        0.0540
      9  C          8.9370    0.7420   -1.0870 C.2     1  UNL1        0.0510
     10  C          7.4520   -0.7900   -2.1480 C.2     1  UNL1        0.1660
     11  C          8.7400   -0.3750   -1.8920 C.2     1  UNL1        0.1650
     12  O          7.5210   -1.9030   -2.9590 O.2     1  UNL1       -0.4540
     13  O          9.5820   -1.2510   -2.5580 O.2     1  UNL1       -0.4540
     14  C          8.8550   -2.2880   -3.1720 C.3     1  UNL1        0.4680
@<TRIPOS>BOND
     1    14    12    1
     2    14    13    1
     3    12    10    1
     4    13    11    1
     5    10    11    2
     6    10     8    1
     7    11     9    1
     8     8     6    2
     9     9     7    2
    10     6     7    1
    11     6     5    1
    12     5     1    1
    13     1     2    1
    14     2     3    1
    15     2     4    2
