MODEL 1
REMARK VINA RESULT:      -7.6      0.000      0.000
REMARK SMILES CC(=O)CCc1ccc2c(c1)OCO2
REMARK SMILES IDX 4 1 2 2 1 3 3 4 5 5 6 6 7 7 11 8 8 9 10 10 9 11 12 12 14 13
REMARK SMILES IDX 13 14
REMARK H PARENT
REMARK Flexibility Score: inf
ROOT
ATOM      1  C   UNL     1       5.536   1.936   1.257  1.00  0.00     0.080 C 
ENDROOT
BRANCH   1   2
ATOM      2  C   UNL     1       5.118   0.717   2.004  1.00  0.00     0.130 C 
ATOM      3  C   UNL     1       6.037  -0.438   2.190  1.00  0.00     0.087 C 
ATOM      4  O   UNL     1       4.001   0.630   2.487  1.00  0.00    -0.300 OA
ENDBRANCH   1   2
BRANCH   1   5
ATOM      5  C   UNL     1       5.408   1.735  -0.240  1.00  0.00     0.043 C 
BRANCH   5   6
ATOM      6  C   UNL     1       6.573   1.026  -0.798  1.00  0.00    -0.044 A 
ATOM      7  C   UNL     1       7.882   1.448  -0.537  1.00  0.00     0.008 A 
ATOM      8  C   UNL     1       6.382  -0.080  -1.594  1.00  0.00     0.054 A 
ATOM      9  C   UNL     1       8.937   0.742  -1.087  1.00  0.00     0.051 A 
ATOM     10  C   UNL     1       7.452  -0.790  -2.148  1.00  0.00     0.166 A 
ATOM     11  C   UNL     1       8.740  -0.375  -1.892  1.00  0.00     0.165 A 
ATOM     12  O   UNL     1       7.521  -1.903  -2.959  1.00  0.00    -0.454 OA
ATOM     13  O   UNL     1       9.582  -1.251  -2.558  1.00  0.00    -0.454 OA
ATOM     14  C   UNL     1       8.855  -2.288  -3.172  1.00  0.00     0.468 C 
ENDBRANCH   5   6
ENDBRANCH   1   5
TORSDOF 3
ENDMDL
MODEL 2
REMARK VINA RESULT:      -7.5      1.933      2.404
REMARK SMILES CC(=O)CCc1ccc2c(c1)OCO2
REMARK SMILES IDX 4 1 2 2 1 3 3 4 5 5 6 6 7 7 11 8 8 9 10 10 9 11 12 12 14 13
REMARK SMILES IDX 13 14
REMARK H PARENT
REMARK Flexibility Score: inf
ROOT
ATOM      1  C   UNL     1       5.778   1.376  -0.368  1.00  0.00     0.080 C 
ENDROOT
BRANCH   1   2
ATOM      2  C   UNL     1       5.132   1.328   0.973  1.00  0.00     0.130 C 
ATOM      3  C   UNL     1       5.394   0.217   1.927  1.00  0.00     0.087 C 
ATOM      4  O   UNL     1       4.363   2.206   1.330  1.00  0.00    -0.300 OA
ENDBRANCH   1   2
BRANCH   1   5
ATOM      5  C   UNL     1       7.268   1.111  -0.271  1.00  0.00     0.043 C 
BRANCH   5   6
ATOM      6  C   UNL     1       7.632  -0.184  -0.873  1.00  0.00    -0.044 A 
ATOM      7  C   UNL     1       7.705  -0.353  -2.260  1.00  0.00     0.008 A 
ATOM      8  C   UNL     1       7.912  -1.259  -0.060  1.00  0.00     0.054 A 
ATOM      9  C   UNL     1       8.054  -1.592  -2.767  1.00  0.00     0.051 A 
ATOM     10  C   UNL     1       8.264  -2.509  -0.578  1.00  0.00     0.166 A 
ATOM     11  C   UNL     1       8.335  -2.677  -1.943  1.00  0.00     0.165 A 
ATOM     12  O   UNL     1       8.583  -3.714   0.011  1.00  0.00    -0.454 OA
ATOM     13  O   UNL     1       8.701  -3.995  -2.166  1.00  0.00    -0.454 OA
ATOM     14  C   UNL     1       8.957  -4.664  -0.954  1.00  0.00     0.468 C 
ENDBRANCH   5   6
ENDBRANCH   1   5
TORSDOF 3
ENDMDL
MODEL 3
REMARK VINA RESULT:      -7.1      2.014      2.571
REMARK SMILES CC(=O)CCc1ccc2c(c1)OCO2
REMARK SMILES IDX 4 1 2 2 1 3 3 4 5 5 6 6 7 7 11 8 8 9 10 10 9 11 12 12 14 13
REMARK SMILES IDX 13 14
REMARK H PARENT
REMARK Flexibility Score: inf
ROOT
ATOM      1  C   UNL     1       5.669   2.543   1.229  1.00  0.00     0.080 C 
ENDROOT
BRANCH   1   2
ATOM      2  C   UNL     1       6.370   3.850   1.095  1.00  0.00     0.130 C 
ATOM      3  C   UNL     1       6.895   4.579   2.280  1.00  0.00     0.087 C 
ATOM      4  O   UNL     1       6.533   4.365   0.000  1.00  0.00    -0.300 OA
ENDBRANCH   1   2
BRANCH   1   5
ATOM      5  C   UNL     1       5.366   1.939  -0.129  1.00  0.00     0.043 C 
BRANCH   5   6
ATOM      6  C   UNL     1       6.132   0.702  -0.360  1.00  0.00    -0.044 A 
ATOM      7  C   UNL     1       6.341  -0.232   0.661  1.00  0.00     0.008 A 
ATOM      8  C   UNL     1       6.656   0.447  -1.607  1.00  0.00     0.054 A 
ATOM      9  C   UNL     1       7.067  -1.377   0.385  1.00  0.00     0.051 A 
ATOM     10  C   UNL     1       7.389  -0.712  -1.881  1.00  0.00     0.166 A 
ATOM     11  C   UNL     1       7.596  -1.631  -0.876  1.00  0.00     0.165 A 
ATOM     12  O   UNL     1       8.004  -1.187  -3.019  1.00  0.00    -0.454 OA
ATOM     13  O   UNL     1       8.342  -2.663  -1.425  1.00  0.00    -0.454 OA
ATOM     14  C   UNL     1       8.545  -2.466  -2.804  1.00  0.00     0.468 C 
ENDBRANCH   5   6
ENDBRANCH   1   5
TORSDOF 3
ENDMDL
