@<TRIPOS>MOLECULE
/home/cewinharhar/GITHUB/reincatalyze/data/processed/docking_pred/2023-May-22-1739_sub9_nm5_bs15_s42_ex16_mel10_mts1000_k50_ec02_g099_lra9e-4_lrc1e-3/8f3f3cc121b2e0b9b67c9595347d7d2b0dd21437_ligand_9.pdbqt
 14 15 0 0 0
SMALL
GASTEIGER

@<TRIPOS>ATOM
      1  C          5.6690    2.5430    1.2290 C.3     1  UNL1        0.0800
      2  C          6.3700    3.8500    1.0950 C.2     1  UNL1        0.1300
      3  C          6.8950    4.5790    2.2800 C.3     1  UNL1        0.0870
      4  O          6.5330    4.3650    0.0000 O.2     1  UNL1       -0.3000
      5  C          5.3660    1.9390   -0.1290 C.3     1  UNL1        0.0430
      6  C          6.1320    0.7020   -0.3600 C.2     1  UNL1       -0.0440
      7  C          6.3410   -0.2320    0.6610 C.2     1  UNL1        0.0080
      8  C          6.6560    0.4470   -1.6070 C.2     1  UNL1        0.0540
      9  C          7.0670   -1.3770    0.3850 C.2     1  UNL1        0.0510
     10  C          7.3890   -0.7120   -1.8810 C.2     1  UNL1        0.1660
     11  C          7.5960   -1.6310   -0.8760 C.2     1  UNL1        0.1650
     12  O          8.0040   -1.1870   -3.0190 O.2     1  UNL1       -0.4540
     13  O          8.3420   -2.6630   -1.4250 O.2     1  UNL1       -0.4540
     14  C          8.5450   -2.4660   -2.8040 C.3     1  UNL1        0.4680
@<TRIPOS>BOND
     1    12    14    1
     2    12    10    1
     3    14    13    1
     4    10     8    1
     5    10    11    2
     6     8     6    2
     7    13    11    1
     8    11     9    1
     9     6     5    1
    10     6     7    1
    11     5     1    1
    12     4     2    2
    13     9     7    2
    14     2     1    1
    15     2     3    1
