MODEL 1
REMARK VINA RESULT:      -7.8      0.000      0.000
REMARK SMILES CC(=O)CCc1ccc2c(c1)OCO2
REMARK SMILES IDX 4 1 2 2 1 3 3 4 5 5 6 6 7 7 11 8 8 9 10 10 9 11 12 12 14 13
REMARK SMILES IDX 13 14
REMARK H PARENT
REMARK Flexibility Score: inf
ROOT
ATOM      1  C   UNL     1       5.414   2.858   0.226  1.00  0.00     0.080 C 
ENDROOT
BRANCH   1   2
ATOM      2  C   UNL     1       6.381   3.684   1.000  1.00  0.00     0.130 C 
ATOM      3  C   UNL     1       7.207   4.736   0.349  1.00  0.00     0.087 C 
ATOM      4  O   UNL     1       6.524   3.520   2.201  1.00  0.00    -0.300 OA
ENDBRANCH   1   2
BRANCH   1   5
ATOM      5  C   UNL     1       5.137   1.539   0.919  1.00  0.00     0.043 C 
BRANCH   5   6
ATOM      6  C   UNL     1       5.979   0.454   0.385  1.00  0.00    -0.044 A 
ATOM      7  C   UNL     1       6.352  -0.640   1.175  1.00  0.00     0.008 A 
ATOM      8  C   UNL     1       6.412   0.506  -0.920  1.00  0.00     0.054 A 
ATOM      9  C   UNL     1       7.143  -1.630   0.619  1.00  0.00     0.051 A 
ATOM     10  C   UNL     1       7.212  -0.497  -1.477  1.00  0.00     0.166 A 
ATOM     11  C   UNL     1       7.580  -1.574  -0.701  1.00  0.00     0.165 A 
ATOM     12  O   UNL     1       7.763  -0.673  -2.728  1.00  0.00    -0.454 OA
ATOM     13  O   UNL     1       8.358  -2.397  -1.500  1.00  0.00    -0.454 OA
ATOM     14  C   UNL     1       8.424  -1.909  -2.819  1.00  0.00     0.468 C 
ENDBRANCH   5   6
ENDBRANCH   1   5
TORSDOF 3
ENDMDL
MODEL 2
REMARK VINA RESULT:      -7.6      1.877      2.629
REMARK SMILES CC(=O)CCc1ccc2c(c1)OCO2
REMARK SMILES IDX 4 1 2 2 1 3 3 4 5 5 6 6 7 7 11 8 8 9 10 10 9 11 12 12 14 13
REMARK SMILES IDX 13 14
REMARK H PARENT
REMARK Flexibility Score: inf
ROOT
ATOM      1  C   UNL     1       5.545   1.928   1.260  1.00  0.00     0.080 C 
ENDROOT
BRANCH   1   2
ATOM      2  C   UNL     1       5.118   0.708   2.000  1.00  0.00     0.130 C 
ATOM      3  C   UNL     1       6.031  -0.452   2.187  1.00  0.00     0.087 C 
ATOM      4  O   UNL     1       3.998   0.624   2.478  1.00  0.00    -0.300 OA
ENDBRANCH   1   2
BRANCH   1   5
ATOM      5  C   UNL     1       5.415   1.736  -0.238  1.00  0.00     0.043 C 
BRANCH   5   6
ATOM      6  C   UNL     1       6.579   1.030  -0.802  1.00  0.00    -0.044 A 
ATOM      7  C   UNL     1       7.888   1.454  -0.545  1.00  0.00     0.008 A 
ATOM      8  C   UNL     1       6.386  -0.075  -1.600  1.00  0.00     0.054 A 
ATOM      9  C   UNL     1       8.942   0.751  -1.101  1.00  0.00     0.051 A 
ATOM     10  C   UNL     1       7.455  -0.782  -2.158  1.00  0.00     0.166 A 
ATOM     11  C   UNL     1       8.743  -0.366  -1.907  1.00  0.00     0.165 A 
ATOM     12  O   UNL     1       7.524  -1.893  -2.972  1.00  0.00    -0.454 OA
ATOM     13  O   UNL     1       9.585  -1.239  -2.578  1.00  0.00    -0.454 OA
ATOM     14  C   UNL     1       8.857  -2.276  -3.191  1.00  0.00     0.468 C 
ENDBRANCH   5   6
ENDBRANCH   1   5
TORSDOF 3
ENDMDL
MODEL 3
REMARK VINA RESULT:      -7.5      1.957      3.026
REMARK SMILES CC(=O)CCc1ccc2c(c1)OCO2
REMARK SMILES IDX 4 1 2 2 1 3 3 4 5 5 6 6 7 7 11 8 8 9 10 10 9 11 12 12 14 13
REMARK SMILES IDX 13 14
REMARK H PARENT
REMARK Flexibility Score: inf
ROOT
ATOM      1  C   UNL     1       5.730   1.326  -0.357  1.00  0.00     0.080 C 
ENDROOT
BRANCH   1   2
ATOM      2  C   UNL     1       5.119   1.290   1.001  1.00  0.00     0.130 C 
ATOM      3  C   UNL     1       5.344   0.150   1.930  1.00  0.00     0.087 C 
ATOM      4  O   UNL     1       4.410   2.203   1.394  1.00  0.00    -0.300 OA
ENDBRANCH   1   2
BRANCH   1   5
ATOM      5  C   UNL     1       7.228   1.100  -0.292  1.00  0.00     0.043 C 
BRANCH   5   6
ATOM      6  C   UNL     1       7.612  -0.191  -0.890  1.00  0.00    -0.044 A 
ATOM      7  C   UNL     1       7.715  -0.355  -2.277  1.00  0.00     0.008 A 
ATOM      8  C   UNL     1       7.881  -1.267  -0.076  1.00  0.00     0.054 A 
ATOM      9  C   UNL     1       8.081  -1.590  -2.781  1.00  0.00     0.051 A 
ATOM     10  C   UNL     1       8.251  -2.513  -0.590  1.00  0.00     0.166 A 
ATOM     11  C   UNL     1       8.352  -2.676  -1.954  1.00  0.00     0.165 A 
ATOM     12  O   UNL     1       8.564  -3.719   0.001  1.00  0.00    -0.454 OA
ATOM     13  O   UNL     1       8.729  -3.991  -2.174  1.00  0.00    -0.454 OA
ATOM     14  C   UNL     1       8.964  -4.663  -0.959  1.00  0.00     0.468 C 
ENDBRANCH   5   6
ENDBRANCH   1   5
TORSDOF 3
ENDMDL
