@<TRIPOS>MOLECULE
/home/cewinharhar/GITHUB/reincatalyze/data/processed/docking_pred/2023-May-22-1739_sub9_nm5_bs15_s42_ex16_mel10_mts1000_k50_ec02_g099_lra9e-4_lrc1e-3/91438d65c636cbfd2c8442c68b92b155f88758ee_ligand_9.pdbqt
 14 15 0 0 0
SMALL
GASTEIGER

@<TRIPOS>ATOM
      1  C          5.5450    1.9280    1.2600 C.3     1  UNL1        0.0800
      2  C          5.1180    0.7080    2.0000 C.2     1  UNL1        0.1300
      3  C          6.0310   -0.4520    2.1870 C.3     1  UNL1        0.0870
      4  O          3.9980    0.6240    2.4780 O.2     1  UNL1       -0.3000
      5  C          5.4150    1.7360   -0.2380 C.3     1  UNL1        0.0430
      6  C          6.5790    1.0300   -0.8020 C.2     1  UNL1       -0.0440
      7  C          7.8880    1.4540   -0.5450 C.2     1  UNL1        0.0080
      8  C          6.3860   -0.0750   -1.6000 C.2     1  UNL1        0.0540
      9  C          8.9420    0.7510   -1.1010 C.2     1  UNL1        0.0510
     10  C          7.4550   -0.7820   -2.1580 C.2     1  UNL1        0.1660
     11  C          8.7430   -0.3660   -1.9070 C.2     1  UNL1        0.1650
     12  O          7.5240   -1.8930   -2.9720 O.2     1  UNL1       -0.4540
     13  O          9.5850   -1.2390   -2.5780 O.2     1  UNL1       -0.4540
     14  C          8.8570   -2.2760   -3.1910 C.3     1  UNL1        0.4680
@<TRIPOS>BOND
     1    14    12    1
     2    14    13    1
     3    12    10    1
     4    13    11    1
     5    10    11    2
     6    10     8    1
     7    11     9    1
     8     8     6    2
     9     9     7    2
    10     6     7    1
    11     6     5    1
    12     5     1    1
    13     1     2    1
    14     2     3    1
    15     2     4    2
