@<TRIPOS>MOLECULE
/home/cewinharhar/GITHUB/reincatalyze/data/processed/docking_pred/2023-May-22-1739_sub9_nm5_bs15_s42_ex16_mel10_mts1000_k50_ec02_g099_lra9e-4_lrc1e-3/91438d65c636cbfd2c8442c68b92b155f88758ee_ligand_9.pdbqt
 14 15 0 0 0
SMALL
GASTEIGER

@<TRIPOS>ATOM
      1  C          5.4140    2.8580    0.2260 C.3     1  UNL1        0.0800
      2  C          6.3810    3.6840    1.0000 C.2     1  UNL1        0.1300
      3  C          7.2070    4.7360    0.3490 C.3     1  UNL1        0.0870
      4  O          6.5240    3.5200    2.2010 O.2     1  UNL1       -0.3000
      5  C          5.1370    1.5390    0.9190 C.3     1  UNL1        0.0430
      6  C          5.9790    0.4540    0.3850 C.2     1  UNL1       -0.0440
      7  C          6.3520   -0.6400    1.1750 C.2     1  UNL1        0.0080
      8  C          6.4120    0.5060   -0.9200 C.2     1  UNL1        0.0540
      9  C          7.1430   -1.6300    0.6190 C.2     1  UNL1        0.0510
     10  C          7.2120   -0.4970   -1.4770 C.2     1  UNL1        0.1660
     11  C          7.5800   -1.5740   -0.7010 C.2     1  UNL1        0.1650
     12  O          7.7630   -0.6730   -2.7280 O.2     1  UNL1       -0.4540
     13  O          8.3580   -2.3970   -1.5000 O.2     1  UNL1       -0.4540
     14  C          8.4240   -1.9090   -2.8190 C.3     1  UNL1        0.4680
@<TRIPOS>BOND
     1    14    12    1
     2    14    13    1
     3    12    10    1
     4    13    11    1
     5    10     8    1
     6    10    11    2
     7     8     6    2
     8    11     9    1
     9     1     5    1
    10     1     2    1
    11     3     2    1
    12     6     5    1
    13     6     7    1
    14     9     7    2
    15     2     4    2
