@<TRIPOS>MOLECULE
/home/cewinharhar/GITHUB/reincatalyze/data/processed/docking_pred/2023-May-22-1739_sub9_nm5_bs15_s42_ex16_mel10_mts1000_k50_ec02_g099_lra9e-4_lrc1e-3/91438d65c636cbfd2c8442c68b92b155f88758ee_ligand_9.pdbqt
 14 15 0 0 0
SMALL
GASTEIGER

@<TRIPOS>ATOM
      1  C          5.7300    1.3260   -0.3570 C.3     1  UNL1        0.0800
      2  C          5.1190    1.2900    1.0010 C.2     1  UNL1        0.1300
      3  C          5.3440    0.1500    1.9300 C.3     1  UNL1        0.0870
      4  O          4.4100    2.2030    1.3940 O.2     1  UNL1       -0.3000
      5  C          7.2280    1.1000   -0.2920 C.3     1  UNL1        0.0430
      6  C          7.6120   -0.1910   -0.8900 C.2     1  UNL1       -0.0440
      7  C          7.7150   -0.3550   -2.2770 C.2     1  UNL1        0.0080
      8  C          7.8810   -1.2670   -0.0760 C.2     1  UNL1        0.0540
      9  C          8.0810   -1.5900   -2.7810 C.2     1  UNL1        0.0510
     10  C          8.2510   -2.5130   -0.5900 C.2     1  UNL1        0.1660
     11  C          8.3520   -2.6760   -1.9540 C.2     1  UNL1        0.1650
     12  O          8.5640   -3.7190    0.0010 O.2     1  UNL1       -0.4540
     13  O          8.7290   -3.9910   -2.1740 O.2     1  UNL1       -0.4540
     14  C          8.9640   -4.6630   -0.9590 C.3     1  UNL1        0.4680
@<TRIPOS>BOND
     1     9     7    1
     2     9    11    2
     3     7     6    2
     4    13    11    1
     5    13    14    1
     6    11    10    1
     7    14    12    1
     8     6     5    1
     9     6     8    1
    10    10     8    2
    11    10    12    1
    12     1     5    1
    13     1     2    1
    14     2     4    2
    15     2     3    1
