@<TRIPOS>MOLECULE
/home/cewinharhar/GITHUB/reincatalyze/data/processed/docking_pred/2023-May-22-1739_sub9_nm5_bs15_s42_ex16_mel10_mts1000_k50_ec02_g099_lra9e-4_lrc1e-3/955e59fc22a1e87e2ab10a68f3a5c98643a236a4_ligand_9.pdbqt
 14 15 0 0 0
SMALL
GASTEIGER

@<TRIPOS>ATOM
      1  C          5.7300    1.2860   -0.3220 C.3     1  UNL1        0.0800
      2  C          5.1810    1.2970    1.0620 C.2     1  UNL1        0.1300
      3  C          5.3200    0.1240    1.9670 C.3     1  UNL1        0.0870
      4  O          4.5980    2.2760    1.4970 O.2     1  UNL1       -0.3000
      5  C          7.2330    1.0870   -0.3170 C.3     1  UNL1        0.0430
      6  C          7.6160   -0.2060   -0.9110 C.2     1  UNL1       -0.0440
      7  C          7.7080   -0.3780   -2.2960 C.2     1  UNL1        0.0080
      8  C          7.8930   -1.2770   -0.0920 C.2     1  UNL1        0.0540
      9  C          8.0730   -1.6150   -2.7960 C.2     1  UNL1        0.0510
     10  C          8.2620   -2.5260   -0.6020 C.2     1  UNL1        0.1660
     11  C          8.3520   -2.6960   -1.9650 C.2     1  UNL1        0.1650
     12  O          8.5820   -3.7270   -0.0060 O.2     1  UNL1       -0.4540
     13  O          8.7310   -4.0120   -2.1810 O.2     1  UNL1       -0.4540
     14  C          8.9760   -4.6760   -0.9640 C.3     1  UNL1        0.4680
@<TRIPOS>BOND
     1     9     7    1
     2     9    11    2
     3     7     6    2
     4    13    11    1
     5    13    14    1
     6    11    10    1
     7    14    12    1
     8     6     5    1
     9     6     8    1
    10    10     8    2
    11    10    12    1
    12     1     5    1
    13     1     2    1
    14     2     4    2
    15     2     3    1
