MODEL 1
REMARK VINA RESULT:      -7.6      0.000      0.000
REMARK SMILES CC(=O)CCc1ccc2c(c1)OCO2
REMARK SMILES IDX 4 1 2 2 1 3 3 4 5 5 6 6 7 7 11 8 8 9 10 10 9 11 12 12 14 13
REMARK SMILES IDX 13 14
REMARK H PARENT
REMARK Flexibility Score: inf
ROOT
ATOM      1  C   UNL     1       5.543   1.920   1.267  1.00  0.00     0.080 C 
ENDROOT
BRANCH   1   2
ATOM      2  C   UNL     1       5.114   0.700   2.006  1.00  0.00     0.130 C 
ATOM      3  C   UNL     1       6.022  -0.464   2.186  1.00  0.00     0.087 C 
ATOM      4  O   UNL     1       3.995   0.620   2.489  1.00  0.00    -0.300 OA
ENDBRANCH   1   2
BRANCH   1   5
ATOM      5  C   UNL     1       5.413   1.729  -0.231  1.00  0.00     0.043 C 
BRANCH   5   6
ATOM      6  C   UNL     1       6.578   1.023  -0.795  1.00  0.00    -0.044 A 
ATOM      7  C   UNL     1       7.887   1.451  -0.542  1.00  0.00     0.008 A 
ATOM      8  C   UNL     1       6.386  -0.085  -1.587  1.00  0.00     0.054 A 
ATOM      9  C   UNL     1       8.941   0.748  -1.098  1.00  0.00     0.051 A 
ATOM     10  C   UNL     1       7.455  -0.793  -2.145  1.00  0.00     0.166 A 
ATOM     11  C   UNL     1       8.743  -0.372  -1.899  1.00  0.00     0.165 A 
ATOM     12  O   UNL     1       7.524  -1.907  -2.955  1.00  0.00    -0.454 OA
ATOM     13  O   UNL     1       9.585  -1.247  -2.568  1.00  0.00    -0.454 OA
ATOM     14  C   UNL     1       8.857  -2.288  -3.175  1.00  0.00     0.468 C 
ENDBRANCH   5   6
ENDBRANCH   1   5
TORSDOF 3
ENDMDL
MODEL 2
REMARK VINA RESULT:      -7.5      1.929      2.405
REMARK SMILES CC(=O)CCc1ccc2c(c1)OCO2
REMARK SMILES IDX 4 1 2 2 1 3 3 4 5 5 6 6 7 7 11 8 8 9 10 10 9 11 12 12 14 13
REMARK SMILES IDX 13 14
REMARK H PARENT
REMARK Flexibility Score: inf
ROOT
ATOM      1  C   UNL     1       5.730   1.286  -0.322  1.00  0.00     0.080 C 
ENDROOT
BRANCH   1   2
ATOM      2  C   UNL     1       5.181   1.297   1.062  1.00  0.00     0.130 C 
ATOM      3  C   UNL     1       5.320   0.124   1.967  1.00  0.00     0.087 C 
ATOM      4  O   UNL     1       4.598   2.276   1.497  1.00  0.00    -0.300 OA
ENDBRANCH   1   2
BRANCH   1   5
ATOM      5  C   UNL     1       7.233   1.087  -0.317  1.00  0.00     0.043 C 
BRANCH   5   6
ATOM      6  C   UNL     1       7.616  -0.206  -0.911  1.00  0.00    -0.044 A 
ATOM      7  C   UNL     1       7.708  -0.378  -2.296  1.00  0.00     0.008 A 
ATOM      8  C   UNL     1       7.893  -1.277  -0.092  1.00  0.00     0.054 A 
ATOM      9  C   UNL     1       8.073  -1.615  -2.796  1.00  0.00     0.051 A 
ATOM     10  C   UNL     1       8.262  -2.526  -0.602  1.00  0.00     0.166 A 
ATOM     11  C   UNL     1       8.352  -2.696  -1.965  1.00  0.00     0.165 A 
ATOM     12  O   UNL     1       8.582  -3.727  -0.006  1.00  0.00    -0.454 OA
ATOM     13  O   UNL     1       8.731  -4.012  -2.181  1.00  0.00    -0.454 OA
ATOM     14  C   UNL     1       8.976  -4.676  -0.964  1.00  0.00     0.468 C 
ENDBRANCH   5   6
ENDBRANCH   1   5
TORSDOF 3
ENDMDL
MODEL 3
REMARK VINA RESULT:      -7.1      2.034      2.620
REMARK SMILES CC(=O)CCc1ccc2c(c1)OCO2
REMARK SMILES IDX 4 1 2 2 1 3 3 4 5 5 6 6 7 7 11 8 8 9 10 10 9 11 12 12 14 13
REMARK SMILES IDX 13 14
REMARK H PARENT
REMARK Flexibility Score: inf
ROOT
ATOM      1  C   UNL     1       6.007   2.469   1.514  1.00  0.00     0.080 C 
ENDROOT
BRANCH   1   2
ATOM      2  C   UNL     1       6.470   3.856   1.227  1.00  0.00     0.130 C 
ATOM      3  C   UNL     1       6.902   4.775   2.314  1.00  0.00     0.087 C 
ATOM      4  O   UNL     1       6.507   4.280   0.083  1.00  0.00    -0.300 OA
ENDBRANCH   1   2
BRANCH   1   5
ATOM      5  C   UNL     1       5.433   1.813   0.273  1.00  0.00     0.043 C 
BRANCH   5   6
ATOM      6  C   UNL     1       6.192   0.609  -0.108  1.00  0.00    -0.044 A 
ATOM      7  C   UNL     1       6.410  -0.438   0.795  1.00  0.00     0.008 A 
ATOM      8  C   UNL     1       6.701   0.498  -1.382  1.00  0.00     0.054 A 
ATOM      9  C   UNL     1       7.129  -1.544   0.380  1.00  0.00     0.051 A 
ATOM     10  C   UNL     1       7.426  -0.622  -1.797  1.00  0.00     0.166 A 
ATOM     11  C   UNL     1       7.642  -1.652  -0.908  1.00  0.00     0.165 A 
ATOM     12  O   UNL     1       8.027  -0.964  -2.990  1.00  0.00    -0.454 OA
ATOM     13  O   UNL     1       8.378  -2.615  -1.581  1.00  0.00    -0.454 OA
ATOM     14  C   UNL     1       8.566  -2.260  -2.930  1.00  0.00     0.468 C 
ENDBRANCH   5   6
ENDBRANCH   1   5
TORSDOF 3
ENDMDL
