@<TRIPOS>MOLECULE
/home/cewinharhar/GITHUB/reincatalyze/data/processed/docking_pred/2023-May-22-1739_sub9_nm5_bs15_s42_ex16_mel10_mts1000_k50_ec02_g099_lra9e-4_lrc1e-3/955e59fc22a1e87e2ab10a68f3a5c98643a236a4_ligand_9.pdbqt
 14 15 0 0 0
SMALL
GASTEIGER

@<TRIPOS>ATOM
      1  C          6.0070    2.4690    1.5140 C.3     1  UNL1        0.0800
      2  C          6.4700    3.8560    1.2270 C.2     1  UNL1        0.1300
      3  C          6.9020    4.7750    2.3140 C.3     1  UNL1        0.0870
      4  O          6.5070    4.2800    0.0830 O.2     1  UNL1       -0.3000
      5  C          5.4330    1.8130    0.2730 C.3     1  UNL1        0.0430
      6  C          6.1920    0.6090   -0.1080 C.2     1  UNL1       -0.0440
      7  C          6.4100   -0.4380    0.7950 C.2     1  UNL1        0.0080
      8  C          6.7010    0.4980   -1.3820 C.2     1  UNL1        0.0540
      9  C          7.1290   -1.5440    0.3800 C.2     1  UNL1        0.0510
     10  C          7.4260   -0.6220   -1.7970 C.2     1  UNL1        0.1660
     11  C          7.6420   -1.6520   -0.9080 C.2     1  UNL1        0.1650
     12  O          8.0270   -0.9640   -2.9900 O.2     1  UNL1       -0.4540
     13  O          8.3780   -2.6150   -1.5810 O.2     1  UNL1       -0.4540
     14  C          8.5660   -2.2600   -2.9300 C.3     1  UNL1        0.4680
@<TRIPOS>BOND
     1    12    14    1
     2    12    10    1
     3    14    13    1
     4    10     8    1
     5    10    11    2
     6    13    11    1
     7     8     6    2
     8    11     9    1
     9     6     5    1
    10     6     7    1
    11     4     2    2
    12     5     1    1
    13     9     7    2
    14     2     1    1
    15     2     3    1
