@<TRIPOS>MOLECULE
/home/cewinharhar/GITHUB/reincatalyze/data/processed/docking_pred/2023-May-22-1739_sub9_nm5_bs15_s42_ex16_mel10_mts1000_k50_ec02_g099_lra9e-4_lrc1e-3/955e59fc22a1e87e2ab10a68f3a5c98643a236a4_ligand_9.pdbqt
 14 15 0 0 0
SMALL
GASTEIGER

@<TRIPOS>ATOM
      1  C          5.5430    1.9200    1.2670 C.3     1  UNL1        0.0800
      2  C          5.1140    0.7000    2.0060 C.2     1  UNL1        0.1300
      3  C          6.0220   -0.4640    2.1860 C.3     1  UNL1        0.0870
      4  O          3.9950    0.6200    2.4890 O.2     1  UNL1       -0.3000
      5  C          5.4130    1.7290   -0.2310 C.3     1  UNL1        0.0430
      6  C          6.5780    1.0230   -0.7950 C.2     1  UNL1       -0.0440
      7  C          7.8870    1.4510   -0.5420 C.2     1  UNL1        0.0080
      8  C          6.3860   -0.0850   -1.5870 C.2     1  UNL1        0.0540
      9  C          8.9410    0.7480   -1.0980 C.2     1  UNL1        0.0510
     10  C          7.4550   -0.7930   -2.1450 C.2     1  UNL1        0.1660
     11  C          8.7430   -0.3720   -1.8990 C.2     1  UNL1        0.1650
     12  O          7.5240   -1.9070   -2.9550 O.2     1  UNL1       -0.4540
     13  O          9.5850   -1.2470   -2.5680 O.2     1  UNL1       -0.4540
     14  C          8.8570   -2.2880   -3.1750 C.3     1  UNL1        0.4680
@<TRIPOS>BOND
     1    14    12    1
     2    14    13    1
     3    12    10    1
     4    13    11    1
     5    10    11    2
     6    10     8    1
     7    11     9    1
     8     8     6    2
     9     9     7    2
    10     6     7    1
    11     6     5    1
    12     5     1    1
    13     1     2    1
    14     2     3    1
    15     2     4    2
