MODEL 1
REMARK VINA RESULT:      -7.6      0.000      0.000
REMARK SMILES CC(=O)CCc1ccc2c(c1)OCO2
REMARK SMILES IDX 4 1 2 2 1 3 3 4 5 5 6 6 7 7 11 8 8 9 10 10 9 11 12 12 14 13
REMARK SMILES IDX 13 14
REMARK H PARENT
REMARK Flexibility Score: inf
ROOT
ATOM      1  C   UNL     1       5.536   1.929   1.264  1.00  0.00     0.080 C 
ENDROOT
BRANCH   1   2
ATOM      2  C   UNL     1       5.105   0.714   2.010  1.00  0.00     0.130 C 
ATOM      3  C   UNL     1       6.010  -0.452   2.193  1.00  0.00     0.087 C 
ATOM      4  O   UNL     1       3.987   0.639   2.494  1.00  0.00    -0.300 OA
ENDBRANCH   1   2
BRANCH   1   5
ATOM      5  C   UNL     1       5.405   1.732  -0.233  1.00  0.00     0.043 C 
BRANCH   5   6
ATOM      6  C   UNL     1       6.572   1.031  -0.796  1.00  0.00    -0.044 A 
ATOM      7  C   UNL     1       7.879   1.464  -0.547  1.00  0.00     0.008 A 
ATOM      8  C   UNL     1       6.384  -0.081  -1.586  1.00  0.00     0.054 A 
ATOM      9  C   UNL     1       8.935   0.765  -1.102  1.00  0.00     0.051 A 
ATOM     10  C   UNL     1       7.455  -0.784  -2.145  1.00  0.00     0.166 A 
ATOM     11  C   UNL     1       8.742  -0.357  -1.900  1.00  0.00     0.165 A 
ATOM     12  O   UNL     1       7.528  -1.900  -2.952  1.00  0.00    -0.454 OA
ATOM     13  O   UNL     1       9.587  -1.229  -2.569  1.00  0.00    -0.454 OA
ATOM     14  C   UNL     1       8.864  -2.275  -3.173  1.00  0.00     0.468 C 
ENDBRANCH   5   6
ENDBRANCH   1   5
TORSDOF 3
ENDMDL
MODEL 2
REMARK VINA RESULT:      -7.4      1.930      2.407
REMARK SMILES CC(=O)CCc1ccc2c(c1)OCO2
REMARK SMILES IDX 4 1 2 2 1 3 3 4 5 5 6 6 7 7 11 8 8 9 10 10 9 11 12 12 14 13
REMARK SMILES IDX 13 14
REMARK H PARENT
REMARK Flexibility Score: inf
ROOT
ATOM      1  C   UNL     1       5.787   1.388  -0.373  1.00  0.00     0.080 C 
ENDROOT
BRANCH   1   2
ATOM      2  C   UNL     1       5.121   1.333   0.959  1.00  0.00     0.130 C 
ATOM      3  C   UNL     1       5.385   0.227   1.918  1.00  0.00     0.087 C 
ATOM      4  O   UNL     1       4.334   2.200   1.303  1.00  0.00    -0.300 OA
ENDBRANCH   1   2
BRANCH   1   5
ATOM      5  C   UNL     1       7.272   1.108  -0.258  1.00  0.00     0.043 C 
BRANCH   5   6
ATOM      6  C   UNL     1       7.633  -0.184  -0.867  1.00  0.00    -0.044 A 
ATOM      7  C   UNL     1       7.704  -0.346  -2.255  1.00  0.00     0.008 A 
ATOM      8  C   UNL     1       7.912  -1.264  -0.060  1.00  0.00     0.054 A 
ATOM      9  C   UNL     1       8.049  -1.583  -2.770  1.00  0.00     0.051 A 
ATOM     10  C   UNL     1       8.262  -2.512  -0.586  1.00  0.00     0.166 A 
ATOM     11  C   UNL     1       8.330  -2.672  -1.952  1.00  0.00     0.165 A 
ATOM     12  O   UNL     1       8.579  -3.721  -0.004  1.00  0.00    -0.454 OA
ATOM     13  O   UNL     1       8.693  -3.990  -2.183  1.00  0.00    -0.454 OA
ATOM     14  C   UNL     1       8.949  -4.666  -0.975  1.00  0.00     0.468 C 
ENDBRANCH   5   6
ENDBRANCH   1   5
TORSDOF 3
ENDMDL
MODEL 3
REMARK VINA RESULT:      -7.1      2.052      2.620
REMARK SMILES CC(=O)CCc1ccc2c(c1)OCO2
REMARK SMILES IDX 4 1 2 2 1 3 3 4 5 5 6 6 7 7 11 8 8 9 10 10 9 11 12 12 14 13
REMARK SMILES IDX 13 14
REMARK H PARENT
REMARK Flexibility Score: inf
ROOT
ATOM      1  C   UNL     1       6.026   2.512   1.461  1.00  0.00     0.080 C 
ENDROOT
BRANCH   1   2
ATOM      2  C   UNL     1       6.488   3.911   1.238  1.00  0.00     0.130 C 
ATOM      3  C   UNL     1       6.958   4.766   2.361  1.00  0.00     0.087 C 
ATOM      4  O   UNL     1       6.493   4.398   0.120  1.00  0.00    -0.300 OA
ENDBRANCH   1   2
BRANCH   1   5
ATOM      5  C   UNL     1       5.472   1.906   0.187  1.00  0.00     0.043 C 
BRANCH   5   6
ATOM      6  C   UNL     1       6.216   0.697  -0.212  1.00  0.00    -0.044 A 
ATOM      7  C   UNL     1       6.333  -0.406   0.642  1.00  0.00     0.008 A 
ATOM      8  C   UNL     1       6.811   0.640  -1.451  1.00  0.00     0.054 A 
ATOM      9  C   UNL     1       7.042  -1.513   0.213  1.00  0.00     0.051 A 
ATOM     10  C   UNL     1       7.527  -0.482  -1.880  1.00  0.00     0.166 A 
ATOM     11  C   UNL     1       7.643  -1.567  -1.040  1.00  0.00     0.165 A 
ATOM     12  O   UNL     1       8.200  -0.778  -3.046  1.00  0.00    -0.454 OA
ATOM     13  O   UNL     1       8.393  -2.518  -1.716  1.00  0.00    -0.454 OA
ATOM     14  C   UNL     1       8.690  -2.095  -3.025  1.00  0.00     0.468 C 
ENDBRANCH   5   6
ENDBRANCH   1   5
TORSDOF 3
ENDMDL
