@<TRIPOS>MOLECULE
/home/cewinharhar/GITHUB/reincatalyze/data/processed/docking_pred/2023-May-22-1739_sub9_nm5_bs15_s42_ex16_mel10_mts1000_k50_ec02_g099_lra9e-4_lrc1e-3/9cf679a9c5542d052f5b9fd38195e755841f8057_ligand_9.pdbqt
 14 15 0 0 0
SMALL
GASTEIGER

@<TRIPOS>ATOM
      1  C          6.0260    2.5120    1.4610 C.3     1  UNL1        0.0800
      2  C          6.4880    3.9110    1.2380 C.2     1  UNL1        0.1300
      3  C          6.9580    4.7660    2.3610 C.3     1  UNL1        0.0870
      4  O          6.4930    4.3980    0.1200 O.2     1  UNL1       -0.3000
      5  C          5.4720    1.9060    0.1870 C.3     1  UNL1        0.0430
      6  C          6.2160    0.6970   -0.2120 C.2     1  UNL1       -0.0440
      7  C          6.3330   -0.4060    0.6420 C.2     1  UNL1        0.0080
      8  C          6.8110    0.6400   -1.4510 C.2     1  UNL1        0.0540
      9  C          7.0420   -1.5130    0.2130 C.2     1  UNL1        0.0510
     10  C          7.5270   -0.4820   -1.8800 C.2     1  UNL1        0.1660
     11  C          7.6430   -1.5670   -1.0400 C.2     1  UNL1        0.1650
     12  O          8.2000   -0.7780   -3.0460 O.2     1  UNL1       -0.4540
     13  O          8.3930   -2.5180   -1.7160 O.2     1  UNL1       -0.4540
     14  C          8.6900   -2.0950   -3.0250 C.3     1  UNL1        0.4680
@<TRIPOS>BOND
     1    12    14    1
     2    12    10    1
     3    14    13    1
     4    10     8    1
     5    10    11    2
     6    13    11    1
     7     8     6    2
     8    11     9    1
     9     6     5    1
    10     6     7    1
    11     4     2    2
    12     5     1    1
    13     9     7    2
    14     2     1    1
    15     2     3    1
