MODEL 1
REMARK VINA RESULT:      -7.6      0.000      0.000
REMARK SMILES CC(=O)CCc1ccc2c(c1)OCO2
REMARK SMILES IDX 4 1 2 2 1 3 3 4 5 5 6 6 7 7 11 8 8 9 10 10 9 11 12 12 14 13
REMARK SMILES IDX 13 14
REMARK H PARENT
REMARK Flexibility Score: inf
ROOT
ATOM      1  C   UNL     1       5.560   1.909   1.280  1.00  0.00     0.080 C 
ENDROOT
BRANCH   1   2
ATOM      2  C   UNL     1       5.128   0.690   2.019  1.00  0.00     0.130 C 
ATOM      3  C   UNL     1       6.032  -0.477   2.197  1.00  0.00     0.087 C 
ATOM      4  O   UNL     1       4.010   0.614   2.503  1.00  0.00    -0.300 OA
ENDBRANCH   1   2
BRANCH   1   5
ATOM      5  C   UNL     1       5.424   1.722  -0.218  1.00  0.00     0.043 C 
BRANCH   5   6
ATOM      6  C   UNL     1       6.588   1.020  -0.788  1.00  0.00    -0.044 A 
ATOM      7  C   UNL     1       7.897   1.449  -0.540  1.00  0.00     0.008 A 
ATOM      8  C   UNL     1       6.395  -0.087  -1.583  1.00  0.00     0.054 A 
ATOM      9  C   UNL     1       8.950   0.750  -1.102  1.00  0.00     0.051 A 
ATOM     10  C   UNL     1       7.463  -0.791  -2.147  1.00  0.00     0.166 A 
ATOM     11  C   UNL     1       8.751  -0.369  -1.905  1.00  0.00     0.165 A 
ATOM     12  O   UNL     1       7.530  -1.903  -2.960  1.00  0.00    -0.454 OA
ATOM     13  O   UNL     1       9.592  -1.240  -2.580  1.00  0.00    -0.454 OA
ATOM     14  C   UNL     1       8.864  -2.280  -3.187  1.00  0.00     0.468 C 
ENDBRANCH   5   6
ENDBRANCH   1   5
TORSDOF 3
ENDMDL
MODEL 2
REMARK VINA RESULT:      -7.4      1.939      2.409
REMARK SMILES CC(=O)CCc1ccc2c(c1)OCO2
REMARK SMILES IDX 4 1 2 2 1 3 3 4 5 5 6 6 7 7 11 8 8 9 10 10 9 11 12 12 14 13
REMARK SMILES IDX 13 14
REMARK H PARENT
REMARK Flexibility Score: inf
ROOT
ATOM      1  C   UNL     1       5.732   1.293  -0.308  1.00  0.00     0.080 C 
ENDROOT
BRANCH   1   2
ATOM      2  C   UNL     1       5.170   1.281   1.072  1.00  0.00     0.130 C 
ATOM      3  C   UNL     1       5.324   0.104   1.968  1.00  0.00     0.087 C 
ATOM      4  O   UNL     1       4.561   2.245   1.508  1.00  0.00    -0.300 OA
ENDBRANCH   1   2
BRANCH   1   5
ATOM      5  C   UNL     1       7.234   1.084  -0.292  1.00  0.00     0.043 C 
BRANCH   5   6
ATOM      6  C   UNL     1       7.612  -0.210  -0.889  1.00  0.00    -0.044 A 
ATOM      7  C   UNL     1       7.691  -0.382  -2.275  1.00  0.00     0.008 A 
ATOM      8  C   UNL     1       7.898  -1.280  -0.072  1.00  0.00     0.054 A 
ATOM      9  C   UNL     1       8.052  -1.619  -2.778  1.00  0.00     0.051 A 
ATOM     10  C   UNL     1       8.263  -2.528  -0.586  1.00  0.00     0.166 A 
ATOM     11  C   UNL     1       8.340  -2.699  -1.950  1.00  0.00     0.165 A 
ATOM     12  O   UNL     1       8.590  -3.729   0.007  1.00  0.00    -0.454 OA
ATOM     13  O   UNL     1       8.718  -4.014  -2.169  1.00  0.00    -0.454 OA
ATOM     14  C   UNL     1       8.975  -4.678  -0.954  1.00  0.00     0.468 C 
ENDBRANCH   5   6
ENDBRANCH   1   5
TORSDOF 3
ENDMDL
MODEL 3
REMARK VINA RESULT:      -7.2      2.177      2.796
REMARK SMILES CC(=O)CCc1ccc2c(c1)OCO2
REMARK SMILES IDX 4 1 2 2 1 3 3 4 5 5 6 6 7 7 11 8 8 9 10 10 9 11 12 12 14 13
REMARK SMILES IDX 13 14
REMARK H PARENT
REMARK Flexibility Score: inf
ROOT
ATOM      1  C   UNL     1       6.965   2.174  -0.035  1.00  0.00     0.080 C 
ENDROOT
BRANCH   1   2
ATOM      2  C   UNL     1       6.102   3.004   0.852  1.00  0.00     0.130 C 
ATOM      3  C   UNL     1       6.522   4.356   1.308  1.00  0.00     0.087 C 
ATOM      4  O   UNL     1       5.017   2.595   1.232  1.00  0.00    -0.300 OA
ENDBRANCH   1   2
BRANCH   1   5
ATOM      5  C   UNL     1       6.191   1.012  -0.625  1.00  0.00     0.043 C 
BRANCH   5   6
ATOM      6  C   UNL     1       6.843  -0.278  -0.343  1.00  0.00    -0.044 A 
ATOM      7  C   UNL     1       6.992  -0.754   0.965  1.00  0.00     0.008 A 
ATOM      8  C   UNL     1       7.319  -1.044  -1.383  1.00  0.00     0.054 A 
ATOM      9  C   UNL     1       7.612  -1.973   1.169  1.00  0.00     0.051 A 
ATOM     10  C   UNL     1       7.945  -2.276  -1.171  1.00  0.00     0.166 A 
ATOM     11  C   UNL     1       8.093  -2.745   0.115  1.00  0.00     0.165 A 
ATOM     12  O   UNL     1       8.495  -3.210  -2.024  1.00  0.00    -0.454 OA
ATOM     13  O   UNL     1       8.737  -3.969   0.025  1.00  0.00    -0.454 OA
ATOM     14  C   UNL     1       8.929  -4.344  -1.318  1.00  0.00     0.468 C 
ENDBRANCH   5   6
ENDBRANCH   1   5
TORSDOF 3
ENDMDL
