@<TRIPOS>MOLECULE
/home/cewinharhar/GITHUB/reincatalyze/data/processed/docking_pred/2023-May-22-1739_sub9_nm5_bs15_s42_ex16_mel10_mts1000_k50_ec02_g099_lra9e-4_lrc1e-3/a1c3c4a97d6bd518e48ffa0772dda1f342f6565e_ligand_9.pdbqt
 14 15 0 0 0
SMALL
GASTEIGER

@<TRIPOS>ATOM
      1  C          6.9650    2.1740   -0.0350 C.3     1  UNL1        0.0800
      2  C          6.1020    3.0040    0.8520 C.2     1  UNL1        0.1300
      3  C          6.5220    4.3560    1.3080 C.3     1  UNL1        0.0870
      4  O          5.0170    2.5950    1.2320 O.2     1  UNL1       -0.3000
      5  C          6.1910    1.0120   -0.6250 C.3     1  UNL1        0.0430
      6  C          6.8430   -0.2780   -0.3430 C.2     1  UNL1       -0.0440
      7  C          6.9920   -0.7540    0.9650 C.2     1  UNL1        0.0080
      8  C          7.3190   -1.0440   -1.3830 C.2     1  UNL1        0.0540
      9  C          7.6120   -1.9730    1.1690 C.2     1  UNL1        0.0510
     10  C          7.9450   -2.2760   -1.1710 C.2     1  UNL1        0.1660
     11  C          8.0930   -2.7450    0.1150 C.2     1  UNL1        0.1650
     12  O          8.4950   -3.2100   -2.0240 O.2     1  UNL1       -0.4540
     13  O          8.7370   -3.9690    0.0250 O.2     1  UNL1       -0.4540
     14  C          8.9290   -4.3440   -1.3180 C.3     1  UNL1        0.4680
@<TRIPOS>BOND
     1    12    14    1
     2    12    10    1
     3     8    10    1
     4     8     6    2
     5    14    13    1
     6    10    11    2
     7     5     6    1
     8     5     1    1
     9     6     7    1
    10     1     2    1
    11    13    11    1
    12    11     9    1
    13     2     4    2
    14     2     3    1
    15     7     9    2
