@<TRIPOS>MOLECULE
/home/cewinharhar/GITHUB/reincatalyze/data/processed/docking_pred/2023-May-22-1739_sub9_nm5_bs15_s42_ex16_mel10_mts1000_k50_ec02_g099_lra9e-4_lrc1e-3/a1c3c4a97d6bd518e48ffa0772dda1f342f6565e_ligand_9.pdbqt
 14 15 0 0 0
SMALL
GASTEIGER

@<TRIPOS>ATOM
      1  C          5.7320    1.2930   -0.3080 C.3     1  UNL1        0.0800
      2  C          5.1700    1.2810    1.0720 C.2     1  UNL1        0.1300
      3  C          5.3240    0.1040    1.9680 C.3     1  UNL1        0.0870
      4  O          4.5610    2.2450    1.5080 O.2     1  UNL1       -0.3000
      5  C          7.2340    1.0840   -0.2920 C.3     1  UNL1        0.0430
      6  C          7.6120   -0.2100   -0.8890 C.2     1  UNL1       -0.0440
      7  C          7.6910   -0.3820   -2.2750 C.2     1  UNL1        0.0080
      8  C          7.8980   -1.2800   -0.0720 C.2     1  UNL1        0.0540
      9  C          8.0520   -1.6190   -2.7780 C.2     1  UNL1        0.0510
     10  C          8.2630   -2.5280   -0.5860 C.2     1  UNL1        0.1660
     11  C          8.3400   -2.6990   -1.9500 C.2     1  UNL1        0.1650
     12  O          8.5900   -3.7290    0.0070 O.2     1  UNL1       -0.4540
     13  O          8.7180   -4.0140   -2.1690 O.2     1  UNL1       -0.4540
     14  C          8.9750   -4.6780   -0.9540 C.3     1  UNL1        0.4680
@<TRIPOS>BOND
     1     9     7    1
     2     9    11    2
     3     7     6    2
     4    13    11    1
     5    13    14    1
     6    11    10    1
     7    14    12    1
     8     6     5    1
     9     6     8    1
    10    10     8    2
    11    10    12    1
    12     1     5    1
    13     1     2    1
    14     2     4    2
    15     2     3    1
