@<TRIPOS>MOLECULE
/home/cewinharhar/GITHUB/reincatalyze/data/processed/docking_pred/2023-May-22-1739_sub9_nm5_bs15_s42_ex16_mel10_mts1000_k50_ec02_g099_lra9e-4_lrc1e-3/ab955c776f37f5544fae82246801d9a2769dfb79_ligand_9.pdbqt
 14 15 0 0 0
SMALL
GASTEIGER

@<TRIPOS>ATOM
      1  C          5.5630    1.9100    1.2820 C.3     1  UNL1        0.0800
      2  C          5.1130    0.6970    2.0200 C.2     1  UNL1        0.1300
      3  C          6.0010   -0.4830    2.1990 C.3     1  UNL1        0.0870
      4  O          3.9940    0.6360    2.5030 O.2     1  UNL1       -0.3000
      5  C          5.4250    1.7250   -0.2160 C.3     1  UNL1        0.0430
      6  C          6.5880    1.0230   -0.7890 C.2     1  UNL1       -0.0440
      7  C          7.8960    1.4610   -0.5560 C.2     1  UNL1        0.0080
      8  C          6.3930   -0.0930   -1.5710 C.2     1  UNL1        0.0540
      9  C          8.9480    0.7610   -1.1190 C.2     1  UNL1        0.0510
     10  C          7.4600   -0.7970   -2.1380 C.2     1  UNL1        0.1660
     11  C          8.7480   -0.3660   -1.9100 C.2     1  UNL1        0.1650
     12  O          7.5270   -1.9160   -2.9400 O.2     1  UNL1       -0.4540
     13  O          9.5880   -1.2400   -2.5830 O.2     1  UNL1       -0.4540
     14  C          8.8600   -2.2900   -3.1740 C.3     1  UNL1        0.4680
@<TRIPOS>BOND
     1    14    12    1
     2    14    13    1
     3    12    10    1
     4    13    11    1
     5    10    11    2
     6    10     8    1
     7    11     9    1
     8     8     6    2
     9     9     7    2
    10     6     7    1
    11     6     5    1
    12     5     1    1
    13     1     2    1
    14     2     3    1
    15     2     4    2
