@<TRIPOS>MOLECULE
/home/cewinharhar/GITHUB/reincatalyze/data/processed/docking_pred/2023-May-22-1739_sub9_nm5_bs15_s42_ex16_mel10_mts1000_k50_ec02_g099_lra9e-4_lrc1e-3/ab955c776f37f5544fae82246801d9a2769dfb79_ligand_9.pdbqt
 14 15 0 0 0
SMALL
GASTEIGER

@<TRIPOS>ATOM
      1  C          5.5420    2.8290    0.1700 C.3     1  UNL1        0.0800
      2  C          6.3470    3.7410    1.0300 C.2     1  UNL1        0.1300
      3  C          7.2430    4.7750    0.4470 C.3     1  UNL1        0.0870
      4  O          6.2950    3.6630    2.2470 O.2     1  UNL1       -0.3000
      5  C          5.2650    1.5140    0.8710 C.3     1  UNL1        0.0430
      6  C          6.0960    0.4220    0.3320 C.2     1  UNL1       -0.0440
      7  C          6.4800   -0.6660    1.1250 C.2     1  UNL1        0.0080
      8  C          6.5070    0.4620   -0.9800 C.2     1  UNL1        0.0540
      9  C          7.2600   -1.6610    0.5650 C.2     1  UNL1        0.0510
     10  C          7.2950   -0.5470   -1.5420 C.2     1  UNL1        0.1660
     11  C          7.6750   -1.6170   -0.7620 C.2     1  UNL1        0.1650
     12  O          7.8260   -0.7350   -2.8010 O.2     1  UNL1       -0.4540
     13  O          8.4380   -2.4490   -1.5680 O.2     1  UNL1       -0.4540
     14  C          8.4820   -1.9730   -2.8920 C.3     1  UNL1        0.4680
@<TRIPOS>BOND
     1    14    12    1
     2    14    13    1
     3    12    10    1
     4    13    11    1
     5    10     8    1
     6    10    11    2
     7     8     6    2
     8    11     9    1
     9     1     5    1
    10     1     2    1
    11     6     5    1
    12     6     7    1
    13     3     2    1
    14     9     7    2
    15     2     4    2
