MODEL 1
REMARK VINA RESULT:      -7.8      0.000      0.000
REMARK SMILES CC(=O)CCc1ccc2c(c1)OCO2
REMARK SMILES IDX 4 1 2 2 1 3 3 4 5 5 6 6 7 7 11 8 8 9 10 10 9 11 12 12 14 13
REMARK SMILES IDX 13 14
REMARK H PARENT
REMARK Flexibility Score: inf
ROOT
ATOM      1  C   UNL     1       5.542   2.829   0.170  1.00  0.00     0.080 C 
ENDROOT
BRANCH   1   2
ATOM      2  C   UNL     1       6.347   3.741   1.030  1.00  0.00     0.130 C 
ATOM      3  C   UNL     1       7.243   4.775   0.447  1.00  0.00     0.087 C 
ATOM      4  O   UNL     1       6.295   3.663   2.247  1.00  0.00    -0.300 OA
ENDBRANCH   1   2
BRANCH   1   5
ATOM      5  C   UNL     1       5.265   1.514   0.871  1.00  0.00     0.043 C 
BRANCH   5   6
ATOM      6  C   UNL     1       6.096   0.422   0.332  1.00  0.00    -0.044 A 
ATOM      7  C   UNL     1       6.480  -0.666   1.125  1.00  0.00     0.008 A 
ATOM      8  C   UNL     1       6.507   0.462  -0.980  1.00  0.00     0.054 A 
ATOM      9  C   UNL     1       7.260  -1.661   0.565  1.00  0.00     0.051 A 
ATOM     10  C   UNL     1       7.295  -0.547  -1.542  1.00  0.00     0.166 A 
ATOM     11  C   UNL     1       7.675  -1.617  -0.762  1.00  0.00     0.165 A 
ATOM     12  O   UNL     1       7.826  -0.735  -2.801  1.00  0.00    -0.454 OA
ATOM     13  O   UNL     1       8.438  -2.449  -1.568  1.00  0.00    -0.454 OA
ATOM     14  C   UNL     1       8.482  -1.973  -2.892  1.00  0.00     0.468 C 
ENDBRANCH   5   6
ENDBRANCH   1   5
TORSDOF 3
ENDMDL
MODEL 2
REMARK VINA RESULT:      -7.7      1.875      2.611
REMARK SMILES CC(=O)CCc1ccc2c(c1)OCO2
REMARK SMILES IDX 4 1 2 2 1 3 3 4 5 5 6 6 7 7 11 8 8 9 10 10 9 11 12 12 14 13
REMARK SMILES IDX 13 14
REMARK H PARENT
REMARK Flexibility Score: inf
ROOT
ATOM      1  C   UNL     1       5.563   1.910   1.282  1.00  0.00     0.080 C 
ENDROOT
BRANCH   1   2
ATOM      2  C   UNL     1       5.113   0.697   2.020  1.00  0.00     0.130 C 
ATOM      3  C   UNL     1       6.001  -0.483   2.199  1.00  0.00     0.087 C 
ATOM      4  O   UNL     1       3.994   0.636   2.503  1.00  0.00    -0.300 OA
ENDBRANCH   1   2
BRANCH   1   5
ATOM      5  C   UNL     1       5.425   1.725  -0.216  1.00  0.00     0.043 C 
BRANCH   5   6
ATOM      6  C   UNL     1       6.588   1.023  -0.789  1.00  0.00    -0.044 A 
ATOM      7  C   UNL     1       7.896   1.461  -0.556  1.00  0.00     0.008 A 
ATOM      8  C   UNL     1       6.393  -0.093  -1.571  1.00  0.00     0.054 A 
ATOM      9  C   UNL     1       8.948   0.761  -1.119  1.00  0.00     0.051 A 
ATOM     10  C   UNL     1       7.460  -0.797  -2.138  1.00  0.00     0.166 A 
ATOM     11  C   UNL     1       8.748  -0.366  -1.910  1.00  0.00     0.165 A 
ATOM     12  O   UNL     1       7.527  -1.916  -2.940  1.00  0.00    -0.454 OA
ATOM     13  O   UNL     1       9.588  -1.240  -2.583  1.00  0.00    -0.454 OA
ATOM     14  C   UNL     1       8.860  -2.290  -3.174  1.00  0.00     0.468 C 
ENDBRANCH   5   6
ENDBRANCH   1   5
TORSDOF 3
ENDMDL
MODEL 3
REMARK VINA RESULT:      -7.5      1.951      2.963
REMARK SMILES CC(=O)CCc1ccc2c(c1)OCO2
REMARK SMILES IDX 4 1 2 2 1 3 3 4 5 5 6 6 7 7 11 8 8 9 10 10 9 11 12 12 14 13
REMARK SMILES IDX 13 14
REMARK H PARENT
REMARK Flexibility Score: inf
ROOT
ATOM      1  C   UNL     1       5.776   1.379  -0.344  1.00  0.00     0.080 C 
ENDROOT
BRANCH   1   2
ATOM      2  C   UNL     1       5.131   1.316   0.997  1.00  0.00     0.130 C 
ATOM      3  C   UNL     1       5.402   0.201   1.943  1.00  0.00     0.087 C 
ATOM      4  O   UNL     1       4.354   2.185   1.360  1.00  0.00    -0.300 OA
ENDBRANCH   1   2
BRANCH   1   5
ATOM      5  C   UNL     1       7.265   1.112  -0.251  1.00  0.00     0.043 C 
BRANCH   5   6
ATOM      6  C   UNL     1       7.627  -0.181  -0.860  1.00  0.00    -0.044 A 
ATOM      7  C   UNL     1       7.691  -0.345  -2.248  1.00  0.00     0.008 A 
ATOM      8  C   UNL     1       7.914  -1.258  -0.053  1.00  0.00     0.054 A 
ATOM      9  C   UNL     1       8.038  -1.581  -2.763  1.00  0.00     0.051 A 
ATOM     10  C   UNL     1       8.265  -2.506  -0.578  1.00  0.00     0.166 A 
ATOM     11  C   UNL     1       8.327  -2.668  -1.944  1.00  0.00     0.165 A 
ATOM     12  O   UNL     1       8.589  -3.712   0.005  1.00  0.00    -0.454 OA
ATOM     13  O   UNL     1       8.693  -3.985  -2.174  1.00  0.00    -0.454 OA
ATOM     14  C   UNL     1       8.958  -4.658  -0.967  1.00  0.00     0.468 C 
ENDBRANCH   5   6
ENDBRANCH   1   5
TORSDOF 3
ENDMDL
