MODEL 1
REMARK VINA RESULT:      -7.8      0.000      0.000
REMARK SMILES CC(=O)CCc1ccc2c(c1)OCO2
REMARK SMILES IDX 4 1 2 2 1 3 3 4 5 5 6 6 7 7 11 8 8 9 10 10 9 11 12 12 14 13
REMARK SMILES IDX 13 14
REMARK H PARENT
REMARK Flexibility Score: inf
ROOT
ATOM      1  C   UNL     1       5.527   2.829   0.234  1.00  0.00     0.080 C 
ENDROOT
BRANCH   1   2
ATOM      2  C   UNL     1       6.398   3.709   1.061  1.00  0.00     0.130 C 
ATOM      3  C   UNL     1       7.236   4.775   0.449  1.00  0.00     0.087 C 
ATOM      4  O   UNL     1       6.450   3.580   2.273  1.00  0.00    -0.300 OA
ENDBRANCH   1   2
BRANCH   1   5
ATOM      5  C   UNL     1       5.256   1.510   0.932  1.00  0.00     0.043 C 
BRANCH   5   6
ATOM      6  C   UNL     1       6.083   0.421   0.382  1.00  0.00    -0.044 A 
ATOM      7  C   UNL     1       6.477  -0.668   1.167  1.00  0.00     0.008 A 
ATOM      8  C   UNL     1       6.481   0.465  -0.935  1.00  0.00     0.054 A 
ATOM      9  C   UNL     1       7.252  -1.662   0.597  1.00  0.00     0.051 A 
ATOM     10  C   UNL     1       7.264  -0.542  -1.507  1.00  0.00     0.166 A 
ATOM     11  C   UNL     1       7.653  -1.614  -0.735  1.00  0.00     0.165 A 
ATOM     12  O   UNL     1       7.782  -0.726  -2.772  1.00  0.00    -0.454 OA
ATOM     13  O   UNL     1       8.408  -2.442  -1.550  1.00  0.00    -0.454 OA
ATOM     14  C   UNL     1       8.439  -1.963  -2.873  1.00  0.00     0.468 C 
ENDBRANCH   5   6
ENDBRANCH   1   5
TORSDOF 3
ENDMDL
MODEL 2
REMARK VINA RESULT:      -7.7      1.880      2.608
REMARK SMILES CC(=O)CCc1ccc2c(c1)OCO2
REMARK SMILES IDX 4 1 2 2 1 3 3 4 5 5 6 6 7 7 11 8 8 9 10 10 9 11 12 12 14 13
REMARK SMILES IDX 13 14
REMARK H PARENT
REMARK Flexibility Score: inf
ROOT
ATOM      1  C   UNL     1       5.519   1.940   1.249  1.00  0.00     0.080 C 
ENDROOT
BRANCH   1   2
ATOM      2  C   UNL     1       5.095   0.726   2.001  1.00  0.00     0.130 C 
ATOM      3  C   UNL     1       6.006  -0.435   2.189  1.00  0.00     0.087 C 
ATOM      4  O   UNL     1       3.978   0.648   2.487  1.00  0.00    -0.300 OA
ENDBRANCH   1   2
BRANCH   1   5
ATOM      5  C   UNL     1       5.392   1.733  -0.247  1.00  0.00     0.043 C 
BRANCH   5   6
ATOM      6  C   UNL     1       6.562   1.030  -0.803  1.00  0.00    -0.044 A 
ATOM      7  C   UNL     1       7.868   1.462  -0.545  1.00  0.00     0.008 A 
ATOM      8  C   UNL     1       6.378  -0.080  -1.595  1.00  0.00     0.054 A 
ATOM      9  C   UNL     1       8.927   0.762  -1.093  1.00  0.00     0.051 A 
ATOM     10  C   UNL     1       7.452  -0.785  -2.147  1.00  0.00     0.166 A 
ATOM     11  C   UNL     1       8.737  -0.359  -1.894  1.00  0.00     0.165 A 
ATOM     12  O   UNL     1       7.529  -1.900  -2.954  1.00  0.00    -0.454 OA
ATOM     13  O   UNL     1       9.586  -1.232  -2.557  1.00  0.00    -0.454 OA
ATOM     14  C   UNL     1       8.865  -2.276  -3.167  1.00  0.00     0.468 C 
ENDBRANCH   5   6
ENDBRANCH   1   5
TORSDOF 3
ENDMDL
MODEL 3
REMARK VINA RESULT:      -7.5      1.978      2.994
REMARK SMILES CC(=O)CCc1ccc2c(c1)OCO2
REMARK SMILES IDX 4 1 2 2 1 3 3 4 5 5 6 6 7 7 11 8 8 9 10 10 9 11 12 12 14 13
REMARK SMILES IDX 13 14
REMARK H PARENT
REMARK Flexibility Score: inf
ROOT
ATOM      1  C   UNL     1       5.762   1.342  -0.385  1.00  0.00     0.080 C 
ENDROOT
BRANCH   1   2
ATOM      2  C   UNL     1       5.126   1.323   0.962  1.00  0.00     0.130 C 
ATOM      3  C   UNL     1       5.388   0.227   1.933  1.00  0.00     0.087 C 
ATOM      4  O   UNL     1       4.366   2.212   1.308  1.00  0.00    -0.300 OA
ENDBRANCH   1   2
BRANCH   1   5
ATOM      5  C   UNL     1       7.249   1.060  -0.296  1.00  0.00     0.043 C 
BRANCH   5   6
ATOM      6  C   UNL     1       7.596  -0.240  -0.898  1.00  0.00    -0.044 A 
ATOM      7  C   UNL     1       7.605  -0.426  -2.285  1.00  0.00     0.008 A 
ATOM      8  C   UNL     1       7.922  -1.302  -0.087  1.00  0.00     0.054 A 
ATOM      9  C   UNL     1       7.940  -1.668  -2.794  1.00  0.00     0.051 A 
ATOM     10  C   UNL     1       8.260  -2.556  -0.605  1.00  0.00     0.166 A 
ATOM     11  C   UNL     1       8.268  -2.740  -1.970  1.00  0.00     0.165 A 
ATOM     12  O   UNL     1       8.615  -3.751  -0.017  1.00  0.00    -0.454 OA
ATOM     13  O   UNL     1       8.634  -4.058  -2.194  1.00  0.00    -0.454 OA
ATOM     14  C   UNL     1       8.951  -4.710  -0.988  1.00  0.00     0.468 C 
ENDBRANCH   5   6
ENDBRANCH   1   5
TORSDOF 3
ENDMDL
