@<TRIPOS>MOLECULE
/home/cewinharhar/GITHUB/reincatalyze/data/processed/docking_pred/2023-May-22-1739_sub9_nm5_bs15_s42_ex16_mel10_mts1000_k50_ec02_g099_lra9e-4_lrc1e-3/af895cae38f50b8ad608cacdd29f7ae1ddca485c_ligand_9.pdbqt
 14 15 0 0 0
SMALL
GASTEIGER

@<TRIPOS>ATOM
      1  C          5.5270    2.8290    0.2340 C.3     1  UNL1        0.0800
      2  C          6.3980    3.7090    1.0610 C.2     1  UNL1        0.1300
      3  C          7.2360    4.7750    0.4490 C.3     1  UNL1        0.0870
      4  O          6.4500    3.5800    2.2730 O.2     1  UNL1       -0.3000
      5  C          5.2560    1.5100    0.9320 C.3     1  UNL1        0.0430
      6  C          6.0830    0.4210    0.3820 C.2     1  UNL1       -0.0440
      7  C          6.4770   -0.6680    1.1670 C.2     1  UNL1        0.0080
      8  C          6.4810    0.4650   -0.9350 C.2     1  UNL1        0.0540
      9  C          7.2520   -1.6620    0.5970 C.2     1  UNL1        0.0510
     10  C          7.2640   -0.5420   -1.5070 C.2     1  UNL1        0.1660
     11  C          7.6530   -1.6140   -0.7350 C.2     1  UNL1        0.1650
     12  O          7.7820   -0.7260   -2.7720 O.2     1  UNL1       -0.4540
     13  O          8.4080   -2.4420   -1.5500 O.2     1  UNL1       -0.4540
     14  C          8.4390   -1.9630   -2.8730 C.3     1  UNL1        0.4680
@<TRIPOS>BOND
     1    14    12    1
     2    14    13    1
     3    12    10    1
     4    13    11    1
     5    10     8    1
     6    10    11    2
     7     8     6    2
     8    11     9    1
     9     1     5    1
    10     1     2    1
    11     6     5    1
    12     6     7    1
    13     3     2    1
    14     9     7    2
    15     2     4    2
