@<TRIPOS>MOLECULE
/home/cewinharhar/GITHUB/reincatalyze/data/processed/docking_pred/2023-May-22-1739_sub9_nm5_bs15_s42_ex16_mel10_mts1000_k50_ec02_g099_lra9e-4_lrc1e-3/b8d8050f43b71ccf975db7ed0a80e234855f027b_ligand_9.pdbqt
 14 15 0 0 0
SMALL
GASTEIGER

@<TRIPOS>ATOM
      1  C          5.7940    1.3670   -0.3480 C.3     1  UNL1        0.0800
      2  C          5.1440    1.3180    0.9910 C.2     1  UNL1        0.1300
      3  C          5.4010    0.2040    1.9430 C.3     1  UNL1        0.0870
      4  O          4.3760    2.1960    1.3480 O.2     1  UNL1       -0.3000
      5  C          7.2770    1.0660   -0.2520 C.3     1  UNL1        0.0430
      6  C          7.6120   -0.2320   -0.8650 C.2     1  UNL1       -0.0440
      7  C          7.6070   -0.4090   -2.2540 C.2     1  UNL1        0.0080
      8  C          7.9410   -1.3000   -0.0630 C.2     1  UNL1        0.0540
      9  C          7.9310   -1.6500   -2.7720 C.2     1  UNL1        0.0510
     10  C          8.2680   -2.5520   -0.5930 C.2     1  UNL1        0.1660
     11  C          8.2630   -2.7280   -1.9580 C.2     1  UNL1        0.1650
     12  O          8.6240   -3.7530   -0.0150 O.2     1  UNL1       -0.4540
     13  O          8.6200   -4.0470   -2.1940 O.2     1  UNL1       -0.4540
     14  C          8.9460   -4.7070   -0.9940 C.3     1  UNL1        0.4680
@<TRIPOS>BOND
     1     9     7    1
     2     9    11    2
     3     7     6    2
     4    13    11    1
     5    13    14    1
     6    11    10    1
     7    14    12    1
     8     6     5    1
     9     6     8    1
    10    10     8    2
    11    10    12    1
    12     1     5    1
    13     1     2    1
    14     2     4    2
    15     2     3    1
