MODEL 1
REMARK VINA RESULT:      -7.6      0.000      0.000
REMARK SMILES CC(=O)CCc1ccc2c(c1)OCO2
REMARK SMILES IDX 4 1 2 2 1 3 3 4 5 5 6 6 7 7 11 8 8 9 10 10 9 11 12 12 14 13
REMARK SMILES IDX 13 14
REMARK H PARENT
REMARK Flexibility Score: inf
ROOT
ATOM      1  C   UNL     1       5.506   1.926   1.260  1.00  0.00     0.080 C 
ENDROOT
BRANCH   1   2
ATOM      2  C   UNL     1       5.062   0.712   2.000  1.00  0.00     0.130 C 
ATOM      3  C   UNL     1       5.946  -0.474   2.157  1.00  0.00     0.087 C 
ATOM      4  O   UNL     1       3.951   0.656   2.502  1.00  0.00    -0.300 OA
ENDBRANCH   1   2
BRANCH   1   5
ATOM      5  C   UNL     1       5.383   1.733  -0.238  1.00  0.00     0.043 C 
BRANCH   5   6
ATOM      6  C   UNL     1       6.554   1.034  -0.797  1.00  0.00    -0.044 A 
ATOM      7  C   UNL     1       7.859   1.470  -0.541  1.00  0.00     0.008 A 
ATOM      8  C   UNL     1       6.372  -0.078  -1.588  1.00  0.00     0.054 A 
ATOM      9  C   UNL     1       8.920   0.773  -1.092  1.00  0.00     0.051 A 
ATOM     10  C   UNL     1       7.447  -0.779  -2.141  1.00  0.00     0.166 A 
ATOM     11  C   UNL     1       8.731  -0.350  -1.891  1.00  0.00     0.165 A 
ATOM     12  O   UNL     1       7.526  -1.895  -2.948  1.00  0.00    -0.454 OA
ATOM     13  O   UNL     1       9.581  -1.220  -2.556  1.00  0.00    -0.454 OA
ATOM     14  C   UNL     1       8.863  -2.267  -3.163  1.00  0.00     0.468 C 
ENDBRANCH   5   6
ENDBRANCH   1   5
TORSDOF 3
ENDMDL
MODEL 2
REMARK VINA RESULT:      -7.4      1.939      2.440
REMARK SMILES CC(=O)CCc1ccc2c(c1)OCO2
REMARK SMILES IDX 4 1 2 2 1 3 3 4 5 5 6 6 7 7 11 8 8 9 10 10 9 11 12 12 14 13
REMARK SMILES IDX 13 14
REMARK H PARENT
REMARK Flexibility Score: inf
ROOT
ATOM      1  C   UNL     1       5.794   1.367  -0.348  1.00  0.00     0.080 C 
ENDROOT
BRANCH   1   2
ATOM      2  C   UNL     1       5.144   1.318   0.991  1.00  0.00     0.130 C 
ATOM      3  C   UNL     1       5.401   0.204   1.943  1.00  0.00     0.087 C 
ATOM      4  O   UNL     1       4.376   2.196   1.348  1.00  0.00    -0.300 OA
ENDBRANCH   1   2
BRANCH   1   5
ATOM      5  C   UNL     1       7.277   1.066  -0.252  1.00  0.00     0.043 C 
BRANCH   5   6
ATOM      6  C   UNL     1       7.612  -0.232  -0.865  1.00  0.00    -0.044 A 
ATOM      7  C   UNL     1       7.607  -0.409  -2.254  1.00  0.00     0.008 A 
ATOM      8  C   UNL     1       7.941  -1.300  -0.063  1.00  0.00     0.054 A 
ATOM      9  C   UNL     1       7.931  -1.650  -2.772  1.00  0.00     0.051 A 
ATOM     10  C   UNL     1       8.268  -2.552  -0.593  1.00  0.00     0.166 A 
ATOM     11  C   UNL     1       8.263  -2.728  -1.958  1.00  0.00     0.165 A 
ATOM     12  O   UNL     1       8.624  -3.753  -0.015  1.00  0.00    -0.454 OA
ATOM     13  O   UNL     1       8.620  -4.047  -2.194  1.00  0.00    -0.454 OA
ATOM     14  C   UNL     1       8.946  -4.707  -0.994  1.00  0.00     0.468 C 
ENDBRANCH   5   6
ENDBRANCH   1   5
TORSDOF 3
ENDMDL
MODEL 3
REMARK VINA RESULT:      -7.2      2.199      2.721
REMARK SMILES CC(=O)CCc1ccc2c(c1)OCO2
REMARK SMILES IDX 4 1 2 2 1 3 3 4 5 5 6 6 7 7 11 8 8 9 10 10 9 11 12 12 14 13
REMARK SMILES IDX 13 14
REMARK H PARENT
REMARK Flexibility Score: inf
ROOT
ATOM      1  C   UNL     1       5.614   1.286  -0.517  1.00  0.00     0.080 C 
ENDROOT
BRANCH   1   2
ATOM      2  C   UNL     1       5.318   2.259   0.571  1.00  0.00     0.130 C 
ATOM      3  C   UNL     1       6.054   3.546   0.689  1.00  0.00     0.087 C 
ATOM      4  O   UNL     1       4.458   2.025   1.404  1.00  0.00    -0.300 OA
ENDBRANCH   1   2
BRANCH   1   5
ATOM      5  C   UNL     1       7.107   1.117  -0.715  1.00  0.00     0.043 C 
BRANCH   5   6
ATOM      6  C   UNL     1       7.547  -0.257  -0.415  1.00  0.00    -0.044 A 
ATOM      7  C   UNL     1       7.693  -0.709   0.902  1.00  0.00     0.008 A 
ATOM      8  C   UNL     1       7.819  -1.126  -1.446  1.00  0.00     0.054 A 
ATOM      9  C   UNL     1       8.108  -2.010   1.122  1.00  0.00     0.051 A 
ATOM     10  C   UNL     1       8.238  -2.441  -1.218  1.00  0.00     0.166 A 
ATOM     11  C   UNL     1       8.383  -2.886   0.077  1.00  0.00     0.165 A 
ATOM     12  O   UNL     1       8.567  -3.482  -2.060  1.00  0.00    -0.454 OA
ATOM     13  O   UNL     1       8.802  -4.205   0.003  1.00  0.00    -0.454 OA
ATOM     14  C   UNL     1       8.844  -4.651  -1.332  1.00  0.00     0.468 C 
ENDBRANCH   5   6
ENDBRANCH   1   5
TORSDOF 3
ENDMDL
