MODEL 1
REMARK VINA RESULT:      -7.9      0.000      0.000
REMARK SMILES CC(=O)CCc1ccc2c(c1)OCO2
REMARK SMILES IDX 4 1 2 2 1 3 3 4 5 5 6 6 7 7 11 8 8 9 10 10 9 11 12 12 14 13
REMARK SMILES IDX 13 14
REMARK H PARENT
REMARK Flexibility Score: inf
ROOT
ATOM      1  C   UNL     1       5.444   2.901   0.069  1.00  0.00     0.080 C 
ENDROOT
BRANCH   1   2
ATOM      2  C   UNL     1       6.277   3.802   0.913  1.00  0.00     0.130 C 
ATOM      3  C   UNL     1       7.232   4.771   0.313  1.00  0.00     0.087 C 
ATOM      4  O   UNL     1       6.199   3.770   2.131  1.00  0.00    -0.300 OA
ENDBRANCH   1   2
BRANCH   1   5
ATOM      5  C   UNL     1       5.174   1.584   0.770  1.00  0.00     0.043 C 
BRANCH   5   6
ATOM      6  C   UNL     1       6.012   0.497   0.233  1.00  0.00    -0.044 A 
ATOM      7  C   UNL     1       6.322  -0.634   0.996  1.00  0.00     0.008 A 
ATOM      8  C   UNL     1       6.504   0.585  -1.049  1.00  0.00     0.054 A 
ATOM      9  C   UNL     1       7.112  -1.623   0.439  1.00  0.00     0.051 A 
ATOM     10  C   UNL     1       7.302  -0.418  -1.608  1.00  0.00     0.166 A 
ATOM     11  C   UNL     1       7.609  -1.531  -0.857  1.00  0.00     0.165 A 
ATOM     12  O   UNL     1       7.905  -0.562  -2.839  1.00  0.00    -0.454 OA
ATOM     13  O   UNL     1       8.401  -2.345  -1.652  1.00  0.00    -0.454 OA
ATOM     14  C   UNL     1       8.538  -1.811  -2.948  1.00  0.00     0.468 C 
ENDBRANCH   5   6
ENDBRANCH   1   5
TORSDOF 3
ENDMDL
MODEL 2
REMARK VINA RESULT:      -7.8      1.051      2.030
REMARK SMILES CC(=O)CCc1ccc2c(c1)OCO2
REMARK SMILES IDX 4 1 2 2 1 3 3 4 5 5 6 6 7 7 11 8 8 9 10 10 9 11 12 12 14 13
REMARK SMILES IDX 13 14
REMARK H PARENT
REMARK Flexibility Score: inf
ROOT
ATOM      1  C   UNL     1       5.308   3.026   0.187  1.00  0.00     0.080 C 
ENDROOT
BRANCH   1   2
ATOM      2  C   UNL     1       6.292   3.797   0.997  1.00  0.00     0.130 C 
ATOM      3  C   UNL     1       7.223   4.775   0.371  1.00  0.00     0.087 C 
ATOM      4  O   UNL     1       6.364   3.647   2.206  1.00  0.00    -0.300 OA
ENDBRANCH   1   2
BRANCH   1   5
ATOM      5  C   UNL     1       5.009   1.681   0.819  1.00  0.00     0.043 C 
BRANCH   5   6
ATOM      6  C   UNL     1       5.880   0.619   0.283  1.00  0.00    -0.044 A 
ATOM      7  C   UNL     1       6.296   0.618  -1.053  1.00  0.00     0.008 A 
ATOM      8  C   UNL     1       6.302  -0.398   1.108  1.00  0.00     0.054 A 
ATOM      9  C   UNL     1       7.114  -0.404  -1.500  1.00  0.00     0.051 A 
ATOM     10  C   UNL     1       7.130  -1.429   0.652  1.00  0.00     0.166 A 
ATOM     11  C   UNL     1       7.539  -1.432  -0.663  1.00  0.00     0.165 A 
ATOM     12  O   UNL     1       7.676  -2.536   1.265  1.00  0.00    -0.454 OA
ATOM     13  O   UNL     1       8.337  -2.552  -0.832  1.00  0.00    -0.454 OA
ATOM     14  C   UNL     1       8.525  -3.231   0.387  1.00  0.00     0.468 C 
ENDBRANCH   5   6
ENDBRANCH   1   5
TORSDOF 3
ENDMDL
MODEL 3
REMARK VINA RESULT:      -7.7      1.885      2.620
REMARK SMILES CC(=O)CCc1ccc2c(c1)OCO2
REMARK SMILES IDX 4 1 2 2 1 3 3 4 5 5 6 6 7 7 11 8 8 9 10 10 9 11 12 12 14 13
REMARK SMILES IDX 13 14
REMARK H PARENT
REMARK Flexibility Score: inf
ROOT
ATOM      1  C   UNL     1       5.509   1.919   1.260  1.00  0.00     0.080 C 
ENDROOT
BRANCH   1   2
ATOM      2  C   UNL     1       5.061   0.706   1.998  1.00  0.00     0.130 C 
ATOM      3  C   UNL     1       5.941  -0.483   2.153  1.00  0.00     0.087 C 
ATOM      4  O   UNL     1       3.951   0.653   2.501  1.00  0.00    -0.300 OA
ENDBRANCH   1   2
BRANCH   1   5
ATOM      5  C   UNL     1       5.386   1.728  -0.239  1.00  0.00     0.043 C 
BRANCH   5   6
ATOM      6  C   UNL     1       6.556   1.027  -0.798  1.00  0.00    -0.044 A 
ATOM      7  C   UNL     1       7.862   1.465  -0.548  1.00  0.00     0.008 A 
ATOM      8  C   UNL     1       6.373  -0.087  -1.585  1.00  0.00     0.054 A 
ATOM      9  C   UNL     1       8.921   0.767  -1.098  1.00  0.00     0.051 A 
ATOM     10  C   UNL     1       7.447  -0.789  -2.139  1.00  0.00     0.166 A 
ATOM     11  C   UNL     1       8.732  -0.358  -1.894  1.00  0.00     0.165 A 
ATOM     12  O   UNL     1       7.525  -1.907  -2.943  1.00  0.00    -0.454 OA
ATOM     13  O   UNL     1       9.581  -1.230  -2.558  1.00  0.00    -0.454 OA
ATOM     14  C   UNL     1       8.861  -2.280  -3.160  1.00  0.00     0.468 C 
ENDBRANCH   5   6
ENDBRANCH   1   5
TORSDOF 3
ENDMDL
