@<TRIPOS>MOLECULE
/home/cewinharhar/GITHUB/reincatalyze/data/processed/docking_pred/2023-May-22-1739_sub9_nm5_bs15_s42_ex16_mel10_mts1000_k50_ec02_g099_lra9e-4_lrc1e-3/c8a10dea28a77dd5a54e6b3bff917c6d12aef46d_ligand_9.pdbqt
 14 15 0 0 0
SMALL
GASTEIGER

@<TRIPOS>ATOM
      1  C          5.3080    3.0260    0.1870 C.3     1  UNL1        0.0800
      2  C          6.2920    3.7970    0.9970 C.2     1  UNL1        0.1300
      3  C          7.2230    4.7750    0.3710 C.3     1  UNL1        0.0870
      4  O          6.3640    3.6470    2.2060 O.2     1  UNL1       -0.3000
      5  C          5.0090    1.6810    0.8190 C.3     1  UNL1        0.0430
      6  C          5.8800    0.6190    0.2830 C.2     1  UNL1       -0.0440
      7  C          6.2960    0.6180   -1.0530 C.2     1  UNL1        0.0080
      8  C          6.3020   -0.3980    1.1080 C.2     1  UNL1        0.0540
      9  C          7.1140   -0.4040   -1.5000 C.2     1  UNL1        0.0510
     10  C          7.1300   -1.4290    0.6520 C.2     1  UNL1        0.1660
     11  C          7.5390   -1.4320   -0.6630 C.2     1  UNL1        0.1650
     12  O          7.6760   -2.5360    1.2650 O.2     1  UNL1       -0.4540
     13  O          8.3370   -2.5520   -0.8320 O.2     1  UNL1       -0.4540
     14  C          8.5250   -3.2310    0.3870 C.3     1  UNL1        0.4680
@<TRIPOS>BOND
     1     9     7    1
     2     9    11    2
     3     7     6    2
     4    13    11    1
     5    13    14    1
     6    11    10    1
     7     1     5    1
     8     1     2    1
     9     6     5    1
    10     6     8    1
    11     3     2    1
    12    14    12    1
    13    10     8    2
    14    10    12    1
    15     2     4    2
