MODEL 1
REMARK VINA RESULT:      -7.6      0.000      0.000
REMARK SMILES CC(=O)CCc1ccc2c(c1)OCO2
REMARK SMILES IDX 4 1 2 2 1 3 3 4 5 5 6 6 7 7 11 8 8 9 10 10 9 11 12 12 14 13
REMARK SMILES IDX 13 14
REMARK H PARENT
REMARK Flexibility Score: inf
ROOT
ATOM      1  C   UNL     1       5.503   1.935   1.257  1.00  0.00     0.080 C 
ENDROOT
BRANCH   1   2
ATOM      2  C   UNL     1       5.069   0.718   1.999  1.00  0.00     0.130 C 
ATOM      3  C   UNL     1       5.964  -0.458   2.161  1.00  0.00     0.087 C 
ATOM      4  O   UNL     1       3.958   0.653   2.500  1.00  0.00    -0.300 OA
ENDBRANCH   1   2
BRANCH   1   5
ATOM      5  C   UNL     1       5.381   1.738  -0.241  1.00  0.00     0.043 C 
BRANCH   5   6
ATOM      6  C   UNL     1       6.551   1.037  -0.797  1.00  0.00    -0.044 A 
ATOM      7  C   UNL     1       7.857   1.471  -0.538  1.00  0.00     0.008 A 
ATOM      8  C   UNL     1       6.369  -0.073  -1.590  1.00  0.00     0.054 A 
ATOM      9  C   UNL     1       8.917   0.772  -1.087  1.00  0.00     0.051 A 
ATOM     10  C   UNL     1       7.444  -0.776  -2.142  1.00  0.00     0.166 A 
ATOM     11  C   UNL     1       8.729  -0.349  -1.888  1.00  0.00     0.165 A 
ATOM     12  O   UNL     1       7.523  -1.890  -2.950  1.00  0.00    -0.454 OA
ATOM     13  O   UNL     1       9.579  -1.221  -2.552  1.00  0.00    -0.454 OA
ATOM     14  C   UNL     1       8.860  -2.265  -3.163  1.00  0.00     0.468 C 
ENDBRANCH   5   6
ENDBRANCH   1   5
TORSDOF 3
ENDMDL
MODEL 2
REMARK VINA RESULT:      -7.5      1.929      2.409
REMARK SMILES CC(=O)CCc1ccc2c(c1)OCO2
REMARK SMILES IDX 4 1 2 2 1 3 3 4 5 5 6 6 7 7 11 8 8 9 10 10 9 11 12 12 14 13
REMARK SMILES IDX 13 14
REMARK H PARENT
REMARK Flexibility Score: inf
ROOT
ATOM      1  C   UNL     1       5.730   1.298  -0.313  1.00  0.00     0.080 C 
ENDROOT
BRANCH   1   2
ATOM      2  C   UNL     1       5.175   1.289   1.069  1.00  0.00     0.130 C 
ATOM      3  C   UNL     1       5.332   0.113   1.966  1.00  0.00     0.087 C 
ATOM      4  O   UNL     1       4.569   2.253   1.507  1.00  0.00    -0.300 OA
ENDBRANCH   1   2
BRANCH   1   5
ATOM      5  C   UNL     1       7.232   1.093  -0.304  1.00  0.00     0.043 C 
BRANCH   5   6
ATOM      6  C   UNL     1       7.611  -0.200  -0.901  1.00  0.00    -0.044 A 
ATOM      7  C   UNL     1       7.693  -0.371  -2.288  1.00  0.00     0.008 A 
ATOM      8  C   UNL     1       7.896  -1.271  -0.084  1.00  0.00     0.054 A 
ATOM      9  C   UNL     1       8.054  -1.608  -2.791  1.00  0.00     0.051 A 
ATOM     10  C   UNL     1       8.262  -2.518  -0.598  1.00  0.00     0.166 A 
ATOM     11  C   UNL     1       8.341  -2.688  -1.962  1.00  0.00     0.165 A 
ATOM     12  O   UNL     1       8.588  -3.720  -0.005  1.00  0.00    -0.454 OA
ATOM     13  O   UNL     1       8.720  -4.004  -2.181  1.00  0.00    -0.454 OA
ATOM     14  C   UNL     1       8.975  -4.668  -0.966  1.00  0.00     0.468 C 
ENDBRANCH   5   6
ENDBRANCH   1   5
TORSDOF 3
ENDMDL
MODEL 3
REMARK VINA RESULT:      -7.2      2.193      2.793
REMARK SMILES CC(=O)CCc1ccc2c(c1)OCO2
REMARK SMILES IDX 4 1 2 2 1 3 3 4 5 5 6 6 7 7 11 8 8 9 10 10 9 11 12 12 14 13
REMARK SMILES IDX 13 14
REMARK H PARENT
REMARK Flexibility Score: inf
ROOT
ATOM      1  C   UNL     1       6.927   2.138  -0.068  1.00  0.00     0.080 C 
ENDROOT
BRANCH   1   2
ATOM      2  C   UNL     1       6.096   2.956   0.859  1.00  0.00     0.130 C 
ATOM      3  C   UNL     1       6.536   4.299   1.323  1.00  0.00     0.087 C 
ATOM      4  O   UNL     1       5.023   2.544   1.268  1.00  0.00    -0.300 OA
ENDBRANCH   1   2
BRANCH   1   5
ATOM      5  C   UNL     1       6.148   0.954  -0.605  1.00  0.00     0.043 C 
BRANCH   5   6
ATOM      6  C   UNL     1       6.830  -0.322  -0.322  1.00  0.00    -0.044 A 
ATOM      7  C   UNL     1       7.036  -0.769   0.988  1.00  0.00     0.008 A 
ATOM      8  C   UNL     1       7.278  -1.101  -1.365  1.00  0.00     0.054 A 
ATOM      9  C   UNL     1       7.681  -1.975   1.192  1.00  0.00     0.051 A 
ATOM     10  C   UNL     1       7.930  -2.320  -1.153  1.00  0.00     0.166 A 
ATOM     11  C   UNL     1       8.133  -2.761   0.135  1.00  0.00     0.165 A 
ATOM     12  O   UNL     1       8.461  -3.262  -2.008  1.00  0.00    -0.454 OA
ATOM     13  O   UNL     1       8.791  -3.977   0.044  1.00  0.00    -0.454 OA
ATOM     14  C   UNL     1       8.938  -4.376  -1.298  1.00  0.00     0.468 C 
ENDBRANCH   5   6
ENDBRANCH   1   5
TORSDOF 3
ENDMDL
