@<TRIPOS>MOLECULE
/home/cewinharhar/GITHUB/reincatalyze/data/processed/docking_pred/2023-May-22-1739_sub9_nm5_bs15_s42_ex16_mel10_mts1000_k50_ec02_g099_lra9e-4_lrc1e-3/cf36f354a35629e8f67fe5763b2daf9f978d0e2b_ligand_9.pdbqt
 14 15 0 0 0
SMALL
GASTEIGER

@<TRIPOS>ATOM
      1  C          6.9270    2.1380   -0.0680 C.3     1  UNL1        0.0800
      2  C          6.0960    2.9560    0.8590 C.2     1  UNL1        0.1300
      3  C          6.5360    4.2990    1.3230 C.3     1  UNL1        0.0870
      4  O          5.0230    2.5440    1.2680 O.2     1  UNL1       -0.3000
      5  C          6.1480    0.9540   -0.6050 C.3     1  UNL1        0.0430
      6  C          6.8300   -0.3220   -0.3220 C.2     1  UNL1       -0.0440
      7  C          7.0360   -0.7690    0.9880 C.2     1  UNL1        0.0080
      8  C          7.2780   -1.1010   -1.3650 C.2     1  UNL1        0.0540
      9  C          7.6810   -1.9750    1.1920 C.2     1  UNL1        0.0510
     10  C          7.9300   -2.3200   -1.1530 C.2     1  UNL1        0.1660
     11  C          8.1330   -2.7610    0.1350 C.2     1  UNL1        0.1650
     12  O          8.4610   -3.2620   -2.0080 O.2     1  UNL1       -0.4540
     13  O          8.7910   -3.9770    0.0440 O.2     1  UNL1       -0.4540
     14  C          8.9380   -4.3760   -1.2980 C.3     1  UNL1        0.4680
@<TRIPOS>BOND
     1    12    14    1
     2    12    10    1
     3     8    10    1
     4     8     6    2
     5    14    13    1
     6    10    11    2
     7     5     6    1
     8     5     1    1
     9     6     7    1
    10     1     2    1
    11    13    11    1
    12    11     9    1
    13     2     4    2
    14     2     3    1
    15     7     9    2
