@<TRIPOS>MOLECULE
/home/cewinharhar/GITHUB/reincatalyze/data/processed/docking_pred/2023-May-22-1739_sub9_nm5_bs15_s42_ex16_mel10_mts1000_k50_ec02_g099_lra9e-4_lrc1e-3/cf36f354a35629e8f67fe5763b2daf9f978d0e2b_ligand_9.pdbqt
 14 15 0 0 0
SMALL
GASTEIGER

@<TRIPOS>ATOM
      1  C          5.7300    1.2980   -0.3130 C.3     1  UNL1        0.0800
      2  C          5.1750    1.2890    1.0690 C.2     1  UNL1        0.1300
      3  C          5.3320    0.1130    1.9660 C.3     1  UNL1        0.0870
      4  O          4.5690    2.2530    1.5070 O.2     1  UNL1       -0.3000
      5  C          7.2320    1.0930   -0.3040 C.3     1  UNL1        0.0430
      6  C          7.6110   -0.2000   -0.9010 C.2     1  UNL1       -0.0440
      7  C          7.6930   -0.3710   -2.2880 C.2     1  UNL1        0.0080
      8  C          7.8960   -1.2710   -0.0840 C.2     1  UNL1        0.0540
      9  C          8.0540   -1.6080   -2.7910 C.2     1  UNL1        0.0510
     10  C          8.2620   -2.5180   -0.5980 C.2     1  UNL1        0.1660
     11  C          8.3410   -2.6880   -1.9620 C.2     1  UNL1        0.1650
     12  O          8.5880   -3.7200   -0.0050 O.2     1  UNL1       -0.4540
     13  O          8.7200   -4.0040   -2.1810 O.2     1  UNL1       -0.4540
     14  C          8.9750   -4.6680   -0.9660 C.3     1  UNL1        0.4680
@<TRIPOS>BOND
     1     9     7    1
     2     9    11    2
     3     7     6    2
     4    13    11    1
     5    13    14    1
     6    11    10    1
     7    14    12    1
     8     6     5    1
     9     6     8    1
    10    10     8    2
    11    10    12    1
    12     1     5    1
    13     1     2    1
    14     2     4    2
    15     2     3    1
