@<TRIPOS>MOLECULE
/home/cewinharhar/GITHUB/reincatalyze/data/processed/docking_pred/2023-May-22-1739_sub9_nm5_bs15_s42_ex16_mel10_mts1000_k50_ec02_g099_lra9e-4_lrc1e-3/cf36f354a35629e8f67fe5763b2daf9f978d0e2b_ligand_9.pdbqt
 14 15 0 0 0
SMALL
GASTEIGER

@<TRIPOS>ATOM
      1  C          5.5030    1.9350    1.2570 C.3     1  UNL1        0.0800
      2  C          5.0690    0.7180    1.9990 C.2     1  UNL1        0.1300
      3  C          5.9640   -0.4580    2.1610 C.3     1  UNL1        0.0870
      4  O          3.9580    0.6530    2.5000 O.2     1  UNL1       -0.3000
      5  C          5.3810    1.7380   -0.2410 C.3     1  UNL1        0.0430
      6  C          6.5510    1.0370   -0.7970 C.2     1  UNL1       -0.0440
      7  C          7.8570    1.4710   -0.5380 C.2     1  UNL1        0.0080
      8  C          6.3690   -0.0730   -1.5900 C.2     1  UNL1        0.0540
      9  C          8.9170    0.7720   -1.0870 C.2     1  UNL1        0.0510
     10  C          7.4440   -0.7760   -2.1420 C.2     1  UNL1        0.1660
     11  C          8.7290   -0.3490   -1.8880 C.2     1  UNL1        0.1650
     12  O          7.5230   -1.8900   -2.9500 O.2     1  UNL1       -0.4540
     13  O          9.5790   -1.2210   -2.5520 O.2     1  UNL1       -0.4540
     14  C          8.8600   -2.2650   -3.1630 C.3     1  UNL1        0.4680
@<TRIPOS>BOND
     1    14    12    1
     2    14    13    1
     3    12    10    1
     4    13    11    1
     5    10    11    2
     6    10     8    1
     7    11     9    1
     8     8     6    2
     9     9     7    2
    10     6     7    1
    11     6     5    1
    12     5     1    1
    13     1     2    1
    14     2     3    1
    15     2     4    2
