MODEL 1
REMARK VINA RESULT:      -7.8      0.000      0.000
REMARK SMILES CC(=O)CCc1ccc2c(c1)OCO2
REMARK SMILES IDX 4 1 2 2 1 3 3 4 5 5 6 6 7 7 11 8 8 9 10 10 9 11 12 12 14 13
REMARK SMILES IDX 13 14
REMARK H PARENT
REMARK Flexibility Score: inf
ROOT
ATOM      1  C   UNL     1       5.484   2.874   0.185  1.00  0.00     0.080 C 
ENDROOT
BRANCH   1   2
ATOM      2  C   UNL     1       6.264   3.858   0.986  1.00  0.00     0.130 C 
ATOM      3  C   UNL     1       7.249   4.775   0.352  1.00  0.00     0.087 C 
ATOM      4  O   UNL     1       6.117   3.940   2.195  1.00  0.00    -0.300 OA
ENDBRANCH   1   2
BRANCH   1   5
ATOM      5  C   UNL     1       5.289   1.577   0.945  1.00  0.00     0.043 C 
BRANCH   5   6
ATOM      6  C   UNL     1       6.094   0.483   0.374  1.00  0.00    -0.044 A 
ATOM      7  C   UNL     1       6.428  -0.651   1.124  1.00  0.00     0.008 A 
ATOM      8  C   UNL     1       6.532   0.566  -0.928  1.00  0.00     0.054 A 
ATOM      9  C   UNL     1       7.185  -1.647   0.534  1.00  0.00     0.051 A 
ATOM     10  C   UNL     1       7.297  -0.444  -1.520  1.00  0.00     0.166 A 
ATOM     11  C   UNL     1       7.626  -1.559  -0.782  1.00  0.00     0.165 A 
ATOM     12  O   UNL     1       7.844  -0.594  -2.777  1.00  0.00    -0.454 OA
ATOM     13  O   UNL     1       8.376  -2.380  -1.610  1.00  0.00    -0.454 OA
ATOM     14  C   UNL     1       8.462  -1.849  -2.911  1.00  0.00     0.468 C 
ENDBRANCH   5   6
ENDBRANCH   1   5
TORSDOF 3
ENDMDL
MODEL 2
REMARK VINA RESULT:      -7.7      1.904      2.647
REMARK SMILES CC(=O)CCc1ccc2c(c1)OCO2
REMARK SMILES IDX 4 1 2 2 1 3 3 4 5 5 6 6 7 7 11 8 8 9 10 10 9 11 12 12 14 13
REMARK SMILES IDX 13 14
REMARK H PARENT
REMARK Flexibility Score: inf
ROOT
ATOM      1  C   UNL     1       5.543   1.909   1.275  1.00  0.00     0.080 C 
ENDROOT
BRANCH   1   2
ATOM      2  C   UNL     1       5.113   0.686   2.009  1.00  0.00     0.130 C 
ATOM      3  C   UNL     1       6.018  -0.482   2.178  1.00  0.00     0.087 C 
ATOM      4  O   UNL     1       3.997   0.608   2.497  1.00  0.00    -0.300 OA
ENDBRANCH   1   2
BRANCH   1   5
ATOM      5  C   UNL     1       5.414   1.724  -0.224  1.00  0.00     0.043 C 
BRANCH   5   6
ATOM      6  C   UNL     1       6.579   1.021  -0.791  1.00  0.00    -0.044 A 
ATOM      7  C   UNL     1       7.887   1.451  -0.540  1.00  0.00     0.008 A 
ATOM      8  C   UNL     1       6.388  -0.087  -1.585  1.00  0.00     0.054 A 
ATOM      9  C   UNL     1       8.942   0.751  -1.098  1.00  0.00     0.051 A 
ATOM     10  C   UNL     1       7.457  -0.791  -2.146  1.00  0.00     0.166 A 
ATOM     11  C   UNL     1       8.745  -0.368  -1.901  1.00  0.00     0.165 A 
ATOM     12  O   UNL     1       7.527  -1.904  -2.957  1.00  0.00    -0.454 OA
ATOM     13  O   UNL     1       9.587  -1.240  -2.572  1.00  0.00    -0.454 OA
ATOM     14  C   UNL     1       8.862  -2.282  -3.180  1.00  0.00     0.468 C 
ENDBRANCH   5   6
ENDBRANCH   1   5
TORSDOF 3
ENDMDL
MODEL 3
REMARK VINA RESULT:      -7.5      1.982      3.019
REMARK SMILES CC(=O)CCc1ccc2c(c1)OCO2
REMARK SMILES IDX 4 1 2 2 1 3 3 4 5 5 6 6 7 7 11 8 8 9 10 10 9 11 12 12 14 13
REMARK SMILES IDX 13 14
REMARK H PARENT
REMARK Flexibility Score: inf
ROOT
ATOM      1  C   UNL     1       5.756   1.340  -0.368  1.00  0.00     0.080 C 
ENDROOT
BRANCH   1   2
ATOM      2  C   UNL     1       5.137   1.314   0.987  1.00  0.00     0.130 C 
ATOM      3  C   UNL     1       5.394   0.203   1.941  1.00  0.00     0.087 C 
ATOM      4  O   UNL     1       4.395   2.211   1.354  1.00  0.00    -0.300 OA
ENDBRANCH   1   2
BRANCH   1   5
ATOM      5  C   UNL     1       7.246   1.071  -0.297  1.00  0.00     0.043 C 
BRANCH   5   6
ATOM      6  C   UNL     1       7.597  -0.228  -0.899  1.00  0.00    -0.044 A 
ATOM      7  C   UNL     1       7.617  -0.411  -2.286  1.00  0.00     0.008 A 
ATOM      8  C   UNL     1       7.915  -1.292  -0.087  1.00  0.00     0.054 A 
ATOM      9  C   UNL     1       7.955  -1.653  -2.794  1.00  0.00     0.051 A 
ATOM     10  C   UNL     1       8.256  -2.545  -0.605  1.00  0.00     0.166 A 
ATOM     11  C   UNL     1       8.275  -2.727  -1.970  1.00  0.00     0.165 A 
ATOM     12  O   UNL     1       8.606  -3.742  -0.016  1.00  0.00    -0.454 OA
ATOM     13  O   UNL     1       8.642  -4.045  -2.193  1.00  0.00    -0.454 OA
ATOM     14  C   UNL     1       8.949  -4.699  -0.985  1.00  0.00     0.468 C 
ENDBRANCH   5   6
ENDBRANCH   1   5
TORSDOF 3
ENDMDL
