@<TRIPOS>MOLECULE
/home/cewinharhar/GITHUB/reincatalyze/data/processed/docking_pred/2023-May-22-1739_sub9_nm5_bs15_s42_ex16_mel10_mts1000_k50_ec02_g099_lra9e-4_lrc1e-3/d27e6afc186b75c76b7fe435f4b9560b42cd14a2_ligand_9.pdbqt
 14 15 0 0 0
SMALL
GASTEIGER

@<TRIPOS>ATOM
      1  C          5.4840    2.8740    0.1850 C.3     1  UNL1        0.0800
      2  C          6.2640    3.8580    0.9860 C.2     1  UNL1        0.1300
      3  C          7.2490    4.7750    0.3520 C.3     1  UNL1        0.0870
      4  O          6.1170    3.9400    2.1950 O.2     1  UNL1       -0.3000
      5  C          5.2890    1.5770    0.9450 C.3     1  UNL1        0.0430
      6  C          6.0940    0.4830    0.3740 C.2     1  UNL1       -0.0440
      7  C          6.4280   -0.6510    1.1240 C.2     1  UNL1        0.0080
      8  C          6.5320    0.5660   -0.9280 C.2     1  UNL1        0.0540
      9  C          7.1850   -1.6470    0.5340 C.2     1  UNL1        0.0510
     10  C          7.2970   -0.4440   -1.5200 C.2     1  UNL1        0.1660
     11  C          7.6260   -1.5590   -0.7820 C.2     1  UNL1        0.1650
     12  O          7.8440   -0.5940   -2.7770 O.2     1  UNL1       -0.4540
     13  O          8.3760   -2.3800   -1.6100 O.2     1  UNL1       -0.4540
     14  C          8.4620   -1.8490   -2.9110 C.3     1  UNL1        0.4680
@<TRIPOS>BOND
     1    14    12    1
     2    14    13    1
     3    12    10    1
     4    13    11    1
     5    10     8    1
     6    10    11    2
     7     8     6    2
     8    11     9    1
     9     1     5    1
    10     1     2    1
    11     3     2    1
    12     6     5    1
    13     6     7    1
    14     9     7    2
    15     2     4    2
