@<TRIPOS>MOLECULE
/home/cewinharhar/GITHUB/reincatalyze/data/processed/docking_pred/2023-May-22-1739_sub9_nm5_bs15_s42_ex16_mel10_mts1000_k50_ec02_g099_lra9e-4_lrc1e-3/db02e8dbba2ca978bde564db4603195d7659b46f_ligand_9.pdbqt
 14 15 0 0 0
SMALL
GASTEIGER

@<TRIPOS>ATOM
      1  C          5.9970    2.4620    1.5440 C.3     1  UNL1        0.0800
      2  C          6.4650    3.8400    1.2270 C.2     1  UNL1        0.1300
      3  C          6.9180    4.7750    2.2920 C.3     1  UNL1        0.0870
      4  O          6.4910    4.2440    0.0760 O.2     1  UNL1       -0.3000
      5  C          5.3670    1.8030    0.3330 C.3     1  UNL1        0.0430
      6  C          6.1420    0.6340   -0.1180 C.2     1  UNL1       -0.0440
      7  C          6.2740   -0.5100    0.6780 C.2     1  UNL1        0.0080
      8  C          6.7530    0.6550   -1.3510 C.2     1  UNL1        0.0540
      9  C          7.0140   -1.5770    0.2020 C.2     1  UNL1        0.0510
     10  C          7.4990   -0.4270   -1.8280 C.2     1  UNL1        0.1660
     11  C          7.6310   -1.5520   -1.0450 C.2     1  UNL1        0.1650
     12  O          8.1930   -0.6460   -3.0000 O.2     1  UNL1       -0.4540
     13  O          8.4100   -2.4490   -1.7600 O.2     1  UNL1       -0.4540
     14  C          8.7120   -1.9510   -3.0410 C.3     1  UNL1        0.4680
@<TRIPOS>BOND
     1    14    12    1
     2    14    13    1
     3    12    10    1
     4    10     8    1
     5    10    11    2
     6    13    11    1
     7     8     6    2
     8    11     9    1
     9     6     5    1
    10     6     7    1
    11     4     2    2
    12     9     7    2
    13     5     1    1
    14     2     1    1
    15     2     3    1
