@<TRIPOS>MOLECULE
/home/cewinharhar/GITHUB/reincatalyze/data/processed/docking_pred/2023-May-22-1739_sub9_nm5_bs15_s42_ex16_mel10_mts1000_k50_ec02_g099_lra9e-4_lrc1e-3/db02e8dbba2ca978bde564db4603195d7659b46f_ligand_9.pdbqt
 14 15 0 0 0
SMALL
GASTEIGER

@<TRIPOS>ATOM
      1  C          5.5370    1.9090    1.2700 C.3     1  UNL1        0.0800
      2  C          5.1020    0.6880    2.0050 C.2     1  UNL1        0.1300
      3  C          6.0050   -0.4810    2.1790 C.3     1  UNL1        0.0870
      4  O          3.9840    0.6120    2.4890 O.2     1  UNL1       -0.3000
      5  C          5.4090    1.7240   -0.2290 C.3     1  UNL1        0.0430
      6  C          6.5750    1.0210   -0.7940 C.2     1  UNL1       -0.0440
      7  C          7.8830    1.4540   -0.5460 C.2     1  UNL1        0.0080
      8  C          6.3850   -0.0910   -1.5830 C.2     1  UNL1        0.0540
      9  C          8.9380    0.7530   -1.1020 C.2     1  UNL1        0.0510
     10  C          7.4550   -0.7950   -2.1420 C.2     1  UNL1        0.1660
     11  C          8.7420   -0.3700   -1.9000 C.2     1  UNL1        0.1650
     12  O          7.5260   -1.9110   -2.9490 O.2     1  UNL1       -0.4540
     13  O          9.5850   -1.2430   -2.5690 O.2     1  UNL1       -0.4540
     14  C          8.8600   -2.2880   -3.1720 C.3     1  UNL1        0.4680
@<TRIPOS>BOND
     1    14    12    1
     2    14    13    1
     3    12    10    1
     4    13    11    1
     5    10    11    2
     6    10     8    1
     7    11     9    1
     8     8     6    2
     9     9     7    2
    10     6     7    1
    11     6     5    1
    12     5     1    1
    13     1     2    1
    14     2     3    1
    15     2     4    2
