MODEL 1
REMARK VINA RESULT:      -7.6      0.000      0.000
REMARK SMILES CC(=O)CCc1ccc2c(c1)OCO2
REMARK SMILES IDX 4 1 2 2 1 3 3 4 5 5 6 6 7 7 11 8 8 9 10 10 9 11 12 12 14 13
REMARK SMILES IDX 13 14
REMARK H PARENT
REMARK Flexibility Score: inf
ROOT
ATOM      1  C   UNL     1       5.539   1.917   1.268  1.00  0.00     0.080 C 
ENDROOT
BRANCH   1   2
ATOM      2  C   UNL     1       5.108   0.697   2.005  1.00  0.00     0.130 C 
ATOM      3  C   UNL     1       6.014  -0.468   2.185  1.00  0.00     0.087 C 
ATOM      4  O   UNL     1       3.989   0.618   2.486  1.00  0.00    -0.300 OA
ENDBRANCH   1   2
BRANCH   1   5
ATOM      5  C   UNL     1       5.411   1.728  -0.231  1.00  0.00     0.043 C 
BRANCH   5   6
ATOM      6  C   UNL     1       6.577   1.024  -0.795  1.00  0.00    -0.044 A 
ATOM      7  C   UNL     1       7.885   1.453  -0.542  1.00  0.00     0.008 A 
ATOM      8  C   UNL     1       6.386  -0.085  -1.587  1.00  0.00     0.054 A 
ATOM      9  C   UNL     1       8.940   0.752  -1.098  1.00  0.00     0.051 A 
ATOM     10  C   UNL     1       7.456  -0.791  -2.145  1.00  0.00     0.166 A 
ATOM     11  C   UNL     1       8.743  -0.369  -1.899  1.00  0.00     0.165 A 
ATOM     12  O   UNL     1       7.527  -1.905  -2.955  1.00  0.00    -0.454 OA
ATOM     13  O   UNL     1       9.587  -1.242  -2.568  1.00  0.00    -0.454 OA
ATOM     14  C   UNL     1       8.861  -2.284  -3.175  1.00  0.00     0.468 C 
ENDBRANCH   5   6
ENDBRANCH   1   5
TORSDOF 3
ENDMDL
MODEL 2
REMARK VINA RESULT:      -7.4      1.925      2.387
REMARK SMILES CC(=O)CCc1ccc2c(c1)OCO2
REMARK SMILES IDX 4 1 2 2 1 3 3 4 5 5 6 6 7 7 11 8 8 9 10 10 9 11 12 12 14 13
REMARK SMILES IDX 13 14
REMARK H PARENT
REMARK Flexibility Score: inf
ROOT
ATOM      1  C   UNL     1       5.786   1.392  -0.315  1.00  0.00     0.080 C 
ENDROOT
BRANCH   1   2
ATOM      2  C   UNL     1       5.128   1.312   1.020  1.00  0.00     0.130 C 
ATOM      3  C   UNL     1       5.385   0.181   1.950  1.00  0.00     0.087 C 
ATOM      4  O   UNL     1       4.353   2.180   1.389  1.00  0.00    -0.300 OA
ENDBRANCH   1   2
BRANCH   1   5
ATOM      5  C   UNL     1       7.272   1.112  -0.213  1.00  0.00     0.043 C 
BRANCH   5   6
ATOM      6  C   UNL     1       7.629  -0.176  -0.834  1.00  0.00    -0.044 A 
ATOM      7  C   UNL     1       7.683  -0.330  -2.224  1.00  0.00     0.008 A 
ATOM      8  C   UNL     1       7.921  -1.260  -0.037  1.00  0.00     0.054 A 
ATOM      9  C   UNL     1       8.025  -1.562  -2.750  1.00  0.00     0.051 A 
ATOM     10  C   UNL     1       8.266  -2.503  -0.574  1.00  0.00     0.166 A 
ATOM     11  C   UNL     1       8.319  -2.656  -1.942  1.00  0.00     0.165 A 
ATOM     12  O   UNL     1       8.594  -3.715  -0.003  1.00  0.00    -0.454 OA
ATOM     13  O   UNL     1       8.682  -3.971  -2.185  1.00  0.00    -0.454 OA
ATOM     14  C   UNL     1       8.955  -4.653  -0.984  1.00  0.00     0.468 C 
ENDBRANCH   5   6
ENDBRANCH   1   5
TORSDOF 3
ENDMDL
MODEL 3
REMARK VINA RESULT:      -7.1      2.038      2.617
REMARK SMILES CC(=O)CCc1ccc2c(c1)OCO2
REMARK SMILES IDX 4 1 2 2 1 3 3 4 5 5 6 6 7 7 11 8 8 9 10 10 9 11 12 12 14 13
REMARK SMILES IDX 13 14
REMARK H PARENT
REMARK Flexibility Score: inf
ROOT
ATOM      1  C   UNL     1       5.804   2.558   1.352  1.00  0.00     0.080 C 
ENDROOT
BRANCH   1   2
ATOM      2  C   UNL     1       6.415   3.900   1.139  1.00  0.00     0.130 C 
ATOM      3  C   UNL     1       6.900   4.727   2.276  1.00  0.00     0.087 C 
ATOM      4  O   UNL     1       6.535   4.363   0.016  1.00  0.00    -0.300 OA
ENDBRANCH   1   2
BRANCH   1   5
ATOM      5  C   UNL     1       5.388   1.928   0.037  1.00  0.00     0.043 C 
BRANCH   5   6
ATOM      6  C   UNL     1       6.150   0.699  -0.245  1.00  0.00    -0.044 A 
ATOM      7  C   UNL     1       6.367  -0.272   0.739  1.00  0.00     0.008 A 
ATOM      8  C   UNL     1       6.663   0.489  -1.505  1.00  0.00     0.054 A 
ATOM      9  C   UNL     1       7.090  -1.406   0.416  1.00  0.00     0.051 A 
ATOM     10  C   UNL     1       7.393  -0.659  -1.827  1.00  0.00     0.166 A 
ATOM     11  C   UNL     1       7.608  -1.614  -0.859  1.00  0.00     0.165 A 
ATOM     12  O   UNL     1       7.998  -1.093  -2.988  1.00  0.00    -0.454 OA
ATOM     13  O   UNL     1       8.347  -2.626  -1.451  1.00  0.00    -0.454 OA
ATOM     14  C   UNL     1       8.539  -2.379  -2.824  1.00  0.00     0.468 C 
ENDBRANCH   5   6
ENDBRANCH   1   5
TORSDOF 3
ENDMDL
