@<TRIPOS>MOLECULE
/home/cewinharhar/GITHUB/reincatalyze/data/processed/docking_pred/2023-May-22-1739_sub9_nm5_bs15_s42_ex16_mel10_mts1000_k50_ec02_g099_lra9e-4_lrc1e-3/dea2b8be3c05a7e32d8e1c0cb085cc688668c765_ligand_9.pdbqt
 14 15 0 0 0
SMALL
GASTEIGER

@<TRIPOS>ATOM
      1  C          5.8040    2.5580    1.3520 C.3     1  UNL1        0.0800
      2  C          6.4150    3.9000    1.1390 C.2     1  UNL1        0.1300
      3  C          6.9000    4.7270    2.2760 C.3     1  UNL1        0.0870
      4  O          6.5350    4.3630    0.0160 O.2     1  UNL1       -0.3000
      5  C          5.3880    1.9280    0.0370 C.3     1  UNL1        0.0430
      6  C          6.1500    0.6990   -0.2450 C.2     1  UNL1       -0.0440
      7  C          6.3670   -0.2720    0.7390 C.2     1  UNL1        0.0080
      8  C          6.6630    0.4890   -1.5050 C.2     1  UNL1        0.0540
      9  C          7.0900   -1.4060    0.4160 C.2     1  UNL1        0.0510
     10  C          7.3930   -0.6590   -1.8270 C.2     1  UNL1        0.1660
     11  C          7.6080   -1.6140   -0.8590 C.2     1  UNL1        0.1650
     12  O          7.9980   -1.0930   -2.9880 O.2     1  UNL1       -0.4540
     13  O          8.3470   -2.6260   -1.4510 O.2     1  UNL1       -0.4540
     14  C          8.5390   -2.3790   -2.8240 C.3     1  UNL1        0.4680
@<TRIPOS>BOND
     1    12    14    1
     2    12    10    1
     3    14    13    1
     4    10     8    1
     5    10    11    2
     6     8     6    2
     7    13    11    1
     8    11     9    1
     9     6     5    1
    10     6     7    1
    11     4     2    2
    12     5     1    1
    13     9     7    2
    14     2     1    1
    15     2     3    1
