MODEL 1
REMARK VINA RESULT:      -7.6      0.000      0.000
REMARK SMILES CC(=O)CCc1ccc2c(c1)OCO2
REMARK SMILES IDX 4 1 2 2 1 3 3 4 5 5 6 6 7 7 11 8 8 9 10 10 9 11 12 12 14 13
REMARK SMILES IDX 13 14
REMARK H PARENT
REMARK Flexibility Score: inf
ROOT
ATOM      1  C   UNL     1       5.543   1.893   1.292  1.00  0.00     0.080 C 
ENDROOT
BRANCH   1   2
ATOM      2  C   UNL     1       5.113   0.673   2.030  1.00  0.00     0.130 C 
ATOM      3  C   UNL     1       6.012  -0.502   2.188  1.00  0.00     0.087 C 
ATOM      4  O   UNL     1       4.002   0.602   2.530  1.00  0.00    -0.300 OA
ENDBRANCH   1   2
BRANCH   1   5
ATOM      5  C   UNL     1       5.405   1.707  -0.206  1.00  0.00     0.043 C 
BRANCH   5   6
ATOM      6  C   UNL     1       6.571   1.012  -0.781  1.00  0.00    -0.044 A 
ATOM      7  C   UNL     1       7.877   1.457  -0.546  1.00  0.00     0.008 A 
ATOM      8  C   UNL     1       6.383  -0.102  -1.566  1.00  0.00     0.054 A 
ATOM      9  C   UNL     1       8.933   0.765  -1.111  1.00  0.00     0.051 A 
ATOM     10  C   UNL     1       7.454  -0.799  -2.134  1.00  0.00     0.166 A 
ATOM     11  C   UNL     1       8.739  -0.361  -1.905  1.00  0.00     0.165 A 
ATOM     12  O   UNL     1       7.527  -1.916  -2.939  1.00  0.00    -0.454 OA
ATOM     13  O   UNL     1       9.584  -1.229  -2.580  1.00  0.00    -0.454 OA
ATOM     14  C   UNL     1       8.863  -2.281  -3.174  1.00  0.00     0.468 C 
ENDBRANCH   5   6
ENDBRANCH   1   5
TORSDOF 3
ENDMDL
MODEL 2
REMARK VINA RESULT:      -7.5      1.931      2.419
REMARK SMILES CC(=O)CCc1ccc2c(c1)OCO2
REMARK SMILES IDX 4 1 2 2 1 3 3 4 5 5 6 6 7 7 11 8 8 9 10 10 9 11 12 12 14 13
REMARK SMILES IDX 13 14
REMARK H PARENT
REMARK Flexibility Score: inf
ROOT
ATOM      1  C   UNL     1       5.756   1.328  -0.382  1.00  0.00     0.080 C 
ENDROOT
BRANCH   1   2
ATOM      2  C   UNL     1       5.139   1.317   0.974  1.00  0.00     0.130 C 
ATOM      3  C   UNL     1       5.384   0.208   1.934  1.00  0.00     0.087 C 
ATOM      4  O   UNL     1       4.408   2.224   1.338  1.00  0.00    -0.300 OA
ENDBRANCH   1   2
BRANCH   1   5
ATOM      5  C   UNL     1       7.251   1.091  -0.308  1.00  0.00     0.043 C 
BRANCH   5   6
ATOM      6  C   UNL     1       7.628  -0.205  -0.900  1.00  0.00    -0.044 A 
ATOM      7  C   UNL     1       7.724  -0.378  -2.286  1.00  0.00     0.008 A 
ATOM      8  C   UNL     1       7.897  -1.277  -0.080  1.00  0.00     0.054 A 
ATOM      9  C   UNL     1       8.083  -1.617  -2.784  1.00  0.00     0.051 A 
ATOM     10  C   UNL     1       8.261  -2.528  -0.589  1.00  0.00     0.166 A 
ATOM     11  C   UNL     1       8.354  -2.699  -1.953  1.00  0.00     0.165 A 
ATOM     12  O   UNL     1       8.573  -3.731   0.008  1.00  0.00    -0.454 OA
ATOM     13  O   UNL     1       8.726  -4.017  -2.167  1.00  0.00    -0.454 OA
ATOM     14  C   UNL     1       8.964  -4.682  -0.949  1.00  0.00     0.468 C 
ENDBRANCH   5   6
ENDBRANCH   1   5
TORSDOF 3
ENDMDL
MODEL 3
REMARK VINA RESULT:      -7.2      2.194      2.742
REMARK SMILES CC(=O)CCc1ccc2c(c1)OCO2
REMARK SMILES IDX 4 1 2 2 1 3 3 4 5 5 6 6 7 7 11 8 8 9 10 10 9 11 12 12 14 13
REMARK SMILES IDX 13 14
REMARK H PARENT
REMARK Flexibility Score: inf
ROOT
ATOM      1  C   UNL     1       5.648   1.298  -0.523  1.00  0.00     0.080 C 
ENDROOT
BRANCH   1   2
ATOM      2  C   UNL     1       5.348   2.275   0.560  1.00  0.00     0.130 C 
ATOM      3  C   UNL     1       6.084   3.563   0.677  1.00  0.00     0.087 C 
ATOM      4  O   UNL     1       4.482   2.045   1.390  1.00  0.00    -0.300 OA
ENDBRANCH   1   2
BRANCH   1   5
ATOM      5  C   UNL     1       7.143   1.117  -0.702  1.00  0.00     0.043 C 
BRANCH   5   6
ATOM      6  C   UNL     1       7.565  -0.263  -0.407  1.00  0.00    -0.044 A 
ATOM      7  C   UNL     1       7.677  -0.731   0.907  1.00  0.00     0.008 A 
ATOM      8  C   UNL     1       7.858  -1.123  -1.442  1.00  0.00     0.054 A 
ATOM      9  C   UNL     1       8.077  -2.037   1.123  1.00  0.00     0.051 A 
ATOM     10  C   UNL     1       8.262  -2.442  -1.218  1.00  0.00     0.166 A 
ATOM     11  C   UNL     1       8.373  -2.903   0.075  1.00  0.00     0.165 A 
ATOM     12  O   UNL     1       8.605  -3.476  -2.064  1.00  0.00    -0.454 OA
ATOM     13  O   UNL     1       8.785  -4.224  -0.004  1.00  0.00    -0.454 OA
ATOM     14  C   UNL     1       8.856  -4.655  -1.343  1.00  0.00     0.468 C 
ENDBRANCH   5   6
ENDBRANCH   1   5
TORSDOF 3
ENDMDL
