@<TRIPOS>MOLECULE
/home/cewinharhar/GITHUB/reincatalyze/data/processed/docking_pred/2023-May-22-1739_sub9_nm5_bs15_s42_ex16_mel10_mts1000_k50_ec02_g099_lra9e-4_lrc1e-3/f74925e0f2dbd9eb14447f51d5c862455f02ecd6_ligand_9.pdbqt
 14 15 0 0 0
SMALL
GASTEIGER

@<TRIPOS>ATOM
      1  C          5.5430    1.8930    1.2920 C.3     1  UNL1        0.0800
      2  C          5.1130    0.6730    2.0300 C.2     1  UNL1        0.1300
      3  C          6.0120   -0.5020    2.1880 C.3     1  UNL1        0.0870
      4  O          4.0020    0.6020    2.5300 O.2     1  UNL1       -0.3000
      5  C          5.4050    1.7070   -0.2060 C.3     1  UNL1        0.0430
      6  C          6.5710    1.0120   -0.7810 C.2     1  UNL1       -0.0440
      7  C          7.8770    1.4570   -0.5460 C.2     1  UNL1        0.0080
      8  C          6.3830   -0.1020   -1.5660 C.2     1  UNL1        0.0540
      9  C          8.9330    0.7650   -1.1110 C.2     1  UNL1        0.0510
     10  C          7.4540   -0.7990   -2.1340 C.2     1  UNL1        0.1660
     11  C          8.7390   -0.3610   -1.9050 C.2     1  UNL1        0.1650
     12  O          7.5270   -1.9160   -2.9390 O.2     1  UNL1       -0.4540
     13  O          9.5840   -1.2290   -2.5800 O.2     1  UNL1       -0.4540
     14  C          8.8630   -2.2810   -3.1740 C.3     1  UNL1        0.4680
@<TRIPOS>BOND
     1    14    12    1
     2    14    13    1
     3    12    10    1
     4    13    11    1
     5    10    11    2
     6    10     8    1
     7    11     9    1
     8     8     6    2
     9     9     7    2
    10     6     7    1
    11     6     5    1
    12     5     1    1
    13     1     2    1
    14     2     3    1
    15     2     4    2
