@<TRIPOS>MOLECULE
/home/cewinharhar/GITHUB/reincatalyze/data/processed/docking_pred/2023-May-24-1506_sub9_nm5_bs15_s42_ex16_mel10_mts10000_k50_ec02_g099_lra3e-4_lrc3e-3/00e9120e950cdac3df36db08e9ab65e08c6ac53a_ligand_9.pdbqt
 14 15 0 0 0
SMALL
GASTEIGER

@<TRIPOS>ATOM
      1  C          7.0060    1.0040    1.1970 C.3     1  UNL1        0.0800
      2  C          5.5430    1.1370    1.4400 C.2     1  UNL1        0.1300
      3  C          4.7210    2.1500    0.7240 C.3     1  UNL1        0.0870
      4  O          4.9720    0.4140    2.2400 O.2     1  UNL1       -0.3000
      5  C          7.3300    1.1060   -0.2810 C.3     1  UNL1        0.0430
      6  C          7.6550   -0.2090   -0.8610 C.2     1  UNL1       -0.0440
      7  C          7.6540   -0.4200   -2.2450 C.2     1  UNL1        0.0080
      8  C          7.9710   -1.2620   -0.0320 C.2     1  UNL1        0.0540
      9  C          7.9670   -1.6760   -2.7330 C.2     1  UNL1        0.0510
     10  C          8.2880   -2.5290   -0.5300 C.2     1  UNL1        0.1660
     11  C          8.2860   -2.7380   -1.8920 C.2     1  UNL1        0.1650
     12  O          8.6300   -3.7180    0.0770 O.2     1  UNL1       -0.4540
     13  O          8.6320   -4.0650   -2.0940 O.2     1  UNL1       -0.4540
     14  C          8.9470   -4.6990   -0.8780 C.3     1  UNL1        0.4680
@<TRIPOS>BOND
     1     9     7    1
     2     9    11    2
     3     7     6    2
     4    13    11    1
     5    13    14    1
     6    11    10    1
     7    14    12    1
     8     6     5    1
     9     6     8    1
    10    10     8    2
    11    10    12    1
    12     5     1    1
    13     3     2    1
    14     1     2    1
    15     2     4    2
