@<TRIPOS>MOLECULE
/home/cewinharhar/GITHUB/reincatalyze/data/processed/docking_pred/2023-May-24-1506_sub9_nm5_bs15_s42_ex16_mel10_mts10000_k50_ec02_g099_lra3e-4_lrc3e-3/00fabcb6e86abbd64330e8a307762c5d347247e8_ligand_9.pdbqt
 14 15 0 0 0
SMALL
GASTEIGER

@<TRIPOS>ATOM
      1  C          6.8390    0.7350    0.8340 C.3     1  UNL1        0.0800
      2  C          5.5010    1.1070    1.3730 C.2     1  UNL1        0.1300
      3  C          4.6610    2.1490    0.7260 C.3     1  UNL1        0.0870
      4  O          5.0540    0.5620    2.3690 O.2     1  UNL1       -0.3000
      5  C          6.8290    0.6880   -0.6810 C.3     1  UNL1        0.0430
      6  C          7.4380   -0.5520   -1.1940 C.2     1  UNL1       -0.0440
      7  C          7.7870   -0.6940   -2.5410 C.2     1  UNL1        0.0080
      8  C          7.6770   -1.6000   -0.3350 C.2     1  UNL1        0.0540
      9  C          8.3560   -1.8810   -2.9650 C.2     1  UNL1        0.0510
     10  C          8.2530   -2.7980   -0.7680 C.2     1  UNL1        0.1660
     11  C          8.5960   -2.9400   -2.0940 C.2     1  UNL1        0.1650
     12  O          8.5860   -3.9690   -0.1210 O.2     1  UNL1       -0.4540
     13  O          9.1380   -4.2070   -2.2350 O.2     1  UNL1       -0.4540
     14  C          9.2340   -4.8600   -0.9920 C.3     1  UNL1        0.4680
@<TRIPOS>BOND
     1     9     7    1
     2     9    11    2
     3     7     6    2
     4    13    11    1
     5    13    14    1
     6    11    10    1
     7     6     5    1
     8     6     8    1
     9    14    12    1
    10    10     8    2
    11    10    12    1
    12     5     1    1
    13     3     2    1
    14     1     2    1
    15     2     4    2
