MODEL 1
REMARK VINA RESULT:      -7.7      0.000      0.000
REMARK SMILES CC(=O)CCc1ccc2c(c1)OCO2
REMARK SMILES IDX 4 1 2 2 1 3 3 4 5 5 6 6 7 7 11 8 8 9 10 10 9 11 12 12 14 13
REMARK SMILES IDX 13 14
REMARK H PARENT
REMARK Flexibility Score: inf
ROOT
ATOM      1  C   UNL     1       5.546   1.910   1.286  1.00  0.00     0.080 C 
ENDROOT
BRANCH   1   2
ATOM      2  C   UNL     1       5.119   0.687   2.022  1.00  0.00     0.130 C 
ATOM      3  C   UNL     1       6.029  -0.477   2.197  1.00  0.00     0.087 C 
ATOM      4  O   UNL     1       4.002   0.606   2.507  1.00  0.00    -0.300 OA
ENDBRANCH   1   2
BRANCH   1   5
ATOM      5  C   UNL     1       5.412   1.724  -0.213  1.00  0.00     0.043 C 
BRANCH   5   6
ATOM      6  C   UNL     1       6.577   1.023  -0.782  1.00  0.00    -0.044 A 
ATOM      7  C   UNL     1       7.886   1.452  -0.531  1.00  0.00     0.008 A 
ATOM      8  C   UNL     1       6.386  -0.082  -1.580  1.00  0.00     0.054 A 
ATOM      9  C   UNL     1       8.940   0.755  -1.092  1.00  0.00     0.051 A 
ATOM     10  C   UNL     1       7.455  -0.784  -2.144  1.00  0.00     0.166 A 
ATOM     11  C   UNL     1       8.743  -0.362  -1.898  1.00  0.00     0.165 A 
ATOM     12  O   UNL     1       7.525  -1.895  -2.958  1.00  0.00    -0.454 OA
ATOM     13  O   UNL     1       9.585  -1.231  -2.573  1.00  0.00    -0.454 OA
ATOM     14  C   UNL     1       8.859  -2.271  -3.184  1.00  0.00     0.468 C 
ENDBRANCH   5   6
ENDBRANCH   1   5
TORSDOF 3
ENDMDL
MODEL 2
REMARK VINA RESULT:      -7.4      1.955      2.382
REMARK SMILES CC(=O)CCc1ccc2c(c1)OCO2
REMARK SMILES IDX 4 1 2 2 1 3 3 4 5 5 6 6 7 7 11 8 8 9 10 10 9 11 12 12 14 13
REMARK SMILES IDX 13 14
REMARK H PARENT
REMARK Flexibility Score: inf
ROOT
ATOM      1  C   UNL     1       5.796   1.415  -0.182  1.00  0.00     0.080 C 
ENDROOT
BRANCH   1   2
ATOM      2  C   UNL     1       5.087   1.272   1.121  1.00  0.00     0.130 C 
ATOM      3  C   UNL     1       5.346   0.123   2.029  1.00  0.00     0.087 C 
ATOM      4  O   UNL     1       4.267   2.100   1.482  1.00  0.00    -0.300 OA
ENDBRANCH   1   2
BRANCH   1   5
ATOM      5  C   UNL     1       7.272   1.100  -0.042  1.00  0.00     0.043 C 
BRANCH   5   6
ATOM      6  C   UNL     1       7.622  -0.176  -0.692  1.00  0.00    -0.044 A 
ATOM      7  C   UNL     1       7.634  -0.311  -2.085  1.00  0.00     0.008 A 
ATOM      8  C   UNL     1       7.948  -1.268   0.081  1.00  0.00     0.054 A 
ATOM      9  C   UNL     1       7.971  -1.532  -2.638  1.00  0.00     0.051 A 
ATOM     10  C   UNL     1       8.289  -2.501  -0.484  1.00  0.00     0.166 A 
ATOM     11  C   UNL     1       8.300  -2.634  -1.854  1.00  0.00     0.165 A 
ATOM     12  O   UNL     1       8.646  -3.717   0.060  1.00  0.00    -0.454 OA
ATOM     13  O   UNL     1       8.668  -3.942  -2.127  1.00  0.00    -0.454 OA
ATOM     14  C   UNL     1       8.985  -4.638  -0.945  1.00  0.00     0.468 C 
ENDBRANCH   5   6
ENDBRANCH   1   5
TORSDOF 3
ENDMDL
MODEL 3
REMARK VINA RESULT:      -7.2      2.069      2.644
REMARK SMILES CC(=O)CCc1ccc2c(c1)OCO2
REMARK SMILES IDX 4 1 2 2 1 3 3 4 5 5 6 6 7 7 11 8 8 9 10 10 9 11 12 12 14 13
REMARK SMILES IDX 13 14
REMARK H PARENT
REMARK Flexibility Score: inf
ROOT
ATOM      1  C   UNL     1       5.402  -0.074   1.999  1.00  0.00     0.080 C 
ENDROOT
BRANCH   1   2
ATOM      2  C   UNL     1       4.575   1.143   1.766  1.00  0.00     0.130 C 
ATOM      3  C   UNL     1       4.920   2.131   0.710  1.00  0.00     0.087 C 
ATOM      4  O   UNL     1       3.584   1.366   2.442  1.00  0.00    -0.300 OA
ENDBRANCH   1   2
BRANCH   1   5
ATOM      5  C   UNL     1       6.848   0.160   1.609  1.00  0.00     0.043 C 
BRANCH   5   6
ATOM      6  C   UNL     1       7.282  -0.761   0.543  1.00  0.00    -0.044 A 
ATOM      7  C   UNL     1       7.161  -0.425  -0.810  1.00  0.00     0.008 A 
ATOM      8  C   UNL     1       7.824  -1.981   0.876  1.00  0.00     0.054 A 
ATOM      9  C   UNL     1       7.586  -1.329  -1.766  1.00  0.00     0.051 A 
ATOM     10  C   UNL     1       8.254  -2.891  -0.095  1.00  0.00     0.166 A 
ATOM     11  C   UNL     1       8.133  -2.562  -1.427  1.00  0.00     0.165 A 
ATOM     12  O   UNL     1       8.816  -4.148  -0.022  1.00  0.00    -0.454 OA
ATOM     13  O   UNL     1       8.631  -3.635  -2.151  1.00  0.00    -0.454 OA
ATOM     14  C   UNL     1       9.157  -4.623  -1.299  1.00  0.00     0.468 C 
ENDBRANCH   5   6
ENDBRANCH   1   5
TORSDOF 3
ENDMDL
MODEL 4
REMARK VINA RESULT:      -7.1      1.259      1.474
REMARK SMILES CC(=O)CCc1ccc2c(c1)OCO2
REMARK SMILES IDX 4 1 2 2 1 3 3 4 5 5 6 6 7 7 11 8 8 9 10 10 9 11 12 12 14 13
REMARK SMILES IDX 13 14
REMARK H PARENT
REMARK Flexibility Score: inf
ROOT
ATOM      1  C   UNL     1       6.392   1.192   0.949  1.00  0.00     0.080 C 
ENDROOT
BRANCH   1   2
ATOM      2  C   UNL     1       5.655   0.376   1.953  1.00  0.00     0.130 C 
ATOM      3  C   UNL     1       6.247  -0.852   2.548  1.00  0.00     0.087 C 
ATOM      4  O   UNL     1       4.535   0.694   2.319  1.00  0.00    -0.300 OA
ENDBRANCH   1   2
BRANCH   1   5
ATOM      5  C   UNL     1       5.883   0.929  -0.455  1.00  0.00     0.043 C 
BRANCH   5   6
ATOM      6  C   UNL     1       6.822   0.099  -1.230  1.00  0.00    -0.044 A 
ATOM      7  C   UNL     1       7.494   0.603  -2.350  1.00  0.00     0.008 A 
ATOM      8  C   UNL     1       7.054  -1.204  -0.851  1.00  0.00     0.054 A 
ATOM      9  C   UNL     1       8.365  -0.222  -3.038  1.00  0.00     0.051 A 
ATOM     10  C   UNL     1       7.936  -2.034  -1.550  1.00  0.00     0.166 A 
ATOM     11  C   UNL     1       8.596  -1.539  -2.652  1.00  0.00     0.165 A 
ATOM     12  O   UNL     1       8.330  -3.344  -1.377  1.00  0.00    -0.454 OA
ATOM     13  O   UNL     1       9.391  -2.565  -3.138  1.00  0.00    -0.454 OA
ATOM     14  C   UNL     1       9.322  -3.699  -2.306  1.00  0.00     0.468 C 
ENDBRANCH   5   6
ENDBRANCH   1   5
TORSDOF 3
ENDMDL
MODEL 5
REMARK VINA RESULT:      -6.8      1.952      2.609
REMARK SMILES CC(=O)CCc1ccc2c(c1)OCO2
REMARK SMILES IDX 4 1 2 2 1 3 3 4 5 5 6 6 7 7 11 8 8 9 10 10 9 11 12 12 14 13
REMARK SMILES IDX 13 14
REMARK H PARENT
REMARK Flexibility Score: inf
ROOT
ATOM      1  C   UNL     1       6.839   0.735   0.834  1.00  0.00     0.080 C 
ENDROOT
BRANCH   1   2
ATOM      2  C   UNL     1       5.501   1.107   1.373  1.00  0.00     0.130 C 
ATOM      3  C   UNL     1       4.661   2.149   0.726  1.00  0.00     0.087 C 
ATOM      4  O   UNL     1       5.054   0.562   2.369  1.00  0.00    -0.300 OA
ENDBRANCH   1   2
BRANCH   1   5
ATOM      5  C   UNL     1       6.829   0.688  -0.681  1.00  0.00     0.043 C 
BRANCH   5   6
ATOM      6  C   UNL     1       7.438  -0.552  -1.194  1.00  0.00    -0.044 A 
ATOM      7  C   UNL     1       7.787  -0.694  -2.541  1.00  0.00     0.008 A 
ATOM      8  C   UNL     1       7.677  -1.600  -0.335  1.00  0.00     0.054 A 
ATOM      9  C   UNL     1       8.356  -1.881  -2.965  1.00  0.00     0.051 A 
ATOM     10  C   UNL     1       8.253  -2.798  -0.768  1.00  0.00     0.166 A 
ATOM     11  C   UNL     1       8.596  -2.940  -2.094  1.00  0.00     0.165 A 
ATOM     12  O   UNL     1       8.586  -3.969  -0.121  1.00  0.00    -0.454 OA
ATOM     13  O   UNL     1       9.138  -4.207  -2.235  1.00  0.00    -0.454 OA
ATOM     14  C   UNL     1       9.234  -4.860  -0.992  1.00  0.00     0.468 C 
ENDBRANCH   5   6
ENDBRANCH   1   5
TORSDOF 3
ENDMDL
