@<TRIPOS>MOLECULE
/home/cewinharhar/GITHUB/reincatalyze/data/processed/docking_pred/2023-May-24-1506_sub9_nm5_bs15_s42_ex16_mel10_mts10000_k50_ec02_g099_lra3e-4_lrc3e-3/00fabcb6e86abbd64330e8a307762c5d347247e8_ligand_9.pdbqt
 14 15 0 0 0
SMALL
GASTEIGER

@<TRIPOS>ATOM
      1  C          5.5460    1.9100    1.2860 C.3     1  UNL1        0.0800
      2  C          5.1190    0.6870    2.0220 C.2     1  UNL1        0.1300
      3  C          6.0290   -0.4770    2.1970 C.3     1  UNL1        0.0870
      4  O          4.0020    0.6060    2.5070 O.2     1  UNL1       -0.3000
      5  C          5.4120    1.7240   -0.2130 C.3     1  UNL1        0.0430
      6  C          6.5770    1.0230   -0.7820 C.2     1  UNL1       -0.0440
      7  C          7.8860    1.4520   -0.5310 C.2     1  UNL1        0.0080
      8  C          6.3860   -0.0820   -1.5800 C.2     1  UNL1        0.0540
      9  C          8.9400    0.7550   -1.0920 C.2     1  UNL1        0.0510
     10  C          7.4550   -0.7840   -2.1440 C.2     1  UNL1        0.1660
     11  C          8.7430   -0.3620   -1.8980 C.2     1  UNL1        0.1650
     12  O          7.5250   -1.8950   -2.9580 O.2     1  UNL1       -0.4540
     13  O          9.5850   -1.2310   -2.5730 O.2     1  UNL1       -0.4540
     14  C          8.8590   -2.2710   -3.1840 C.3     1  UNL1        0.4680
@<TRIPOS>BOND
     1    14    12    1
     2    14    13    1
     3    12    10    1
     4    13    11    1
     5    10    11    2
     6    10     8    1
     7    11     9    1
     8     8     6    2
     9     9     7    2
    10     6     7    1
    11     6     5    1
    12     5     1    1
    13     1     2    1
    14     2     3    1
    15     2     4    2
