@<TRIPOS>MOLECULE
/home/cewinharhar/GITHUB/reincatalyze/data/processed/docking_pred/2023-May-24-1506_sub9_nm5_bs15_s42_ex16_mel10_mts10000_k50_ec02_g099_lra3e-4_lrc3e-3/01b08930ea9107c3adfd00eac21895e0e3e1f2d7_ligand_9.pdbqt
 14 15 0 0 0
SMALL
GASTEIGER

@<TRIPOS>ATOM
      1  C          5.7950    1.0680   -0.3130 C.3     1  UNL1        0.0800
      2  C          5.7140    1.2570    1.1630 C.2     1  UNL1        0.1300
      3  C          4.8760    0.3750    2.0180 C.3     1  UNL1        0.0870
      4  O          6.3380    2.1490    1.7150 O.2     1  UNL1       -0.3000
      5  C          7.2260    0.8460   -0.7610 C.3     1  UNL1        0.0430
      6  C          7.6820   -0.5260   -0.4780 C.2     1  UNL1       -0.0440
      7  C          7.8870   -0.9740    0.8320 C.2     1  UNL1        0.0080
      8  C          7.9110   -1.3970   -1.5180 C.2     1  UNL1        0.0540
      9  C          8.3150   -2.2740    1.0370 C.2     1  UNL1        0.0510
     10  C          8.3420   -2.7100   -1.3050 C.2     1  UNL1        0.1660
     11  C          8.5460   -3.1520   -0.0170 C.2     1  UNL1        0.1650
     12  O          8.6360   -3.7530   -2.1590 O.2     1  UNL1       -0.4540
     13  O          8.9640   -4.4700   -0.1070 O.2     1  UNL1       -0.4540
     14  C          8.9480   -4.9190   -1.4410 C.3     1  UNL1        0.4680
@<TRIPOS>BOND
     1    12    14    1
     2    12    10    1
     3     8    10    1
     4     8     6    2
     5    14    13    1
     6    10    11    2
     7     5     6    1
     8     5     1    1
     9     6     7    1
    10     1     2    1
    11    13    11    1
    12    11     9    1
    13     7     9    2
    14     2     4    2
    15     2     3    1
