@<TRIPOS>MOLECULE
/home/cewinharhar/GITHUB/reincatalyze/data/processed/docking_pred/2023-May-24-1506_sub9_nm5_bs15_s42_ex16_mel10_mts10000_k50_ec02_g099_lra3e-4_lrc3e-3/01b08930ea9107c3adfd00eac21895e0e3e1f2d7_ligand_9.pdbqt
 14 15 0 0 0
SMALL
GASTEIGER

@<TRIPOS>ATOM
      1  C          5.9110    1.5680    1.2380 C.3     1  UNL1        0.0800
      2  C          5.4260    0.4080    2.0360 C.2     1  UNL1        0.1300
      3  C          6.2870   -0.7770    2.2940 C.3     1  UNL1        0.0870
      4  O          4.2980    0.3960    2.5040 O.2     1  UNL1       -0.3000
      5  C          5.6840    1.3500   -0.2450 C.3     1  UNL1        0.0430
      6  C          6.8280    0.6700   -0.8790 C.2     1  UNL1       -0.0440
      7  C          8.1130    1.2240   -0.8570 C.2     1  UNL1        0.0080
      8  C          6.6400   -0.5400   -1.5070 C.2     1  UNL1        0.0540
      9  C          9.1490    0.5400   -1.4670 C.2     1  UNL1        0.0510
     10  C          7.6900   -1.2280   -2.1230 C.2     1  UNL1        0.1660
     11  C          8.9550   -0.6830   -2.1030 C.2     1  UNL1        0.1650
     12  O          7.7580   -2.4250   -2.8030 O.2     1  UNL1       -0.4540
     13  O          9.7820   -1.5670   -2.7770 O.2     1  UNL1       -0.4540
     14  C          9.0830   -2.7280   -3.1580 C.3     1  UNL1        0.4680
@<TRIPOS>BOND
     1    14    12    1
     2    14    13    1
     3    12    10    1
     4    13    11    1
     5    10    11    2
     6    10     8    1
     7    11     9    1
     8     8     6    2
     9     9     7    2
    10     6     7    1
    11     6     5    1
    12     5     1    1
    13     1     2    1
    14     2     3    1
    15     2     4    2
