@<TRIPOS>MOLECULE
/home/cewinharhar/GITHUB/reincatalyze/data/processed/docking_pred/2023-May-24-1506_sub9_nm5_bs15_s42_ex16_mel10_mts10000_k50_ec02_g099_lra3e-4_lrc3e-3/01b08930ea9107c3adfd00eac21895e0e3e1f2d7_ligand_9.pdbqt
 14 15 0 0 0
SMALL
GASTEIGER

@<TRIPOS>ATOM
      1  C          6.3820    1.2350    0.9230 C.3     1  UNL1        0.0800
      2  C          5.6570    0.3970    1.9180 C.2     1  UNL1        0.1300
      3  C          6.2630   -0.8350    2.4900 C.3     1  UNL1        0.0870
      4  O          4.5370    0.7000    2.2950 O.2     1  UNL1       -0.3000
      5  C          5.8830    0.9740   -0.4850 C.3     1  UNL1        0.0430
      6  C          6.8220    0.1350   -1.2510 C.2     1  UNL1       -0.0440
      7  C          7.5150    0.6360   -2.3590 C.2     1  UNL1        0.0080
      8  C          7.0320   -1.1720   -0.8750 C.2     1  UNL1        0.0540
      9  C          8.3840   -0.1970   -3.0390 C.2     1  UNL1        0.0510
     10  C          7.9130   -2.0100   -1.5650 C.2     1  UNL1        0.1660
     11  C          8.5940   -1.5190   -2.6560 C.2     1  UNL1        0.1650
     12  O          8.2880   -3.3250   -1.3930 O.2     1  UNL1       -0.4540
     13  O          9.3820   -2.5530   -3.1350 O.2     1  UNL1       -0.4540
     14  C          9.2870   -3.6890   -2.3100 C.3     1  UNL1        0.4680
@<TRIPOS>BOND
     1    13    11    1
     2    13    14    1
     3     9    11    2
     4     9     7    1
     5    11    10    1
     6     7     6    2
     7    14    12    1
     8    10    12    1
     9    10     8    2
    10     6     8    1
    11     6     5    1
    12     5     1    1
    13     1     2    1
    14     2     4    2
    15     2     3    1
