MODEL 1
REMARK VINA RESULT:      -7.2      0.000      0.000
REMARK SMILES CC(=O)CCc1ccc2c(c1)OCO2
REMARK SMILES IDX 4 1 2 2 1 3 3 4 5 5 6 6 7 7 11 8 8 9 10 10 9 11 12 12 14 13
REMARK SMILES IDX 13 14
REMARK H PARENT
REMARK Flexibility Score: inf
ROOT
ATOM      1  C   UNL     1       5.911   1.568   1.238  1.00  0.00     0.080 C 
ENDROOT
BRANCH   1   2
ATOM      2  C   UNL     1       5.426   0.408   2.036  1.00  0.00     0.130 C 
ATOM      3  C   UNL     1       6.287  -0.777   2.294  1.00  0.00     0.087 C 
ATOM      4  O   UNL     1       4.298   0.396   2.504  1.00  0.00    -0.300 OA
ENDBRANCH   1   2
BRANCH   1   5
ATOM      5  C   UNL     1       5.684   1.350  -0.245  1.00  0.00     0.043 C 
BRANCH   5   6
ATOM      6  C   UNL     1       6.828   0.670  -0.879  1.00  0.00    -0.044 A 
ATOM      7  C   UNL     1       8.113   1.224  -0.857  1.00  0.00     0.008 A 
ATOM      8  C   UNL     1       6.640  -0.540  -1.507  1.00  0.00     0.054 A 
ATOM      9  C   UNL     1       9.149   0.540  -1.467  1.00  0.00     0.051 A 
ATOM     10  C   UNL     1       7.690  -1.228  -2.123  1.00  0.00     0.166 A 
ATOM     11  C   UNL     1       8.955  -0.683  -2.103  1.00  0.00     0.165 A 
ATOM     12  O   UNL     1       7.758  -2.425  -2.803  1.00  0.00    -0.454 OA
ATOM     13  O   UNL     1       9.782  -1.567  -2.777  1.00  0.00    -0.454 OA
ATOM     14  C   UNL     1       9.083  -2.728  -3.158  1.00  0.00     0.468 C 
ENDBRANCH   5   6
ENDBRANCH   1   5
TORSDOF 3
ENDMDL
MODEL 2
REMARK VINA RESULT:      -7.1      1.076      1.103
REMARK SMILES CC(=O)CCc1ccc2c(c1)OCO2
REMARK SMILES IDX 4 1 2 2 1 3 3 4 5 5 6 6 7 7 11 8 8 9 10 10 9 11 12 12 14 13
REMARK SMILES IDX 13 14
REMARK H PARENT
REMARK Flexibility Score: inf
ROOT
ATOM      1  C   UNL     1       6.382   1.235   0.923  1.00  0.00     0.080 C 
ENDROOT
BRANCH   1   2
ATOM      2  C   UNL     1       5.657   0.397   1.918  1.00  0.00     0.130 C 
ATOM      3  C   UNL     1       6.263  -0.835   2.490  1.00  0.00     0.087 C 
ATOM      4  O   UNL     1       4.537   0.700   2.295  1.00  0.00    -0.300 OA
ENDBRANCH   1   2
BRANCH   1   5
ATOM      5  C   UNL     1       5.883   0.974  -0.485  1.00  0.00     0.043 C 
BRANCH   5   6
ATOM      6  C   UNL     1       6.822   0.135  -1.251  1.00  0.00    -0.044 A 
ATOM      7  C   UNL     1       7.515   0.636  -2.359  1.00  0.00     0.008 A 
ATOM      8  C   UNL     1       7.032  -1.172  -0.875  1.00  0.00     0.054 A 
ATOM      9  C   UNL     1       8.384  -0.197  -3.039  1.00  0.00     0.051 A 
ATOM     10  C   UNL     1       7.913  -2.010  -1.565  1.00  0.00     0.166 A 
ATOM     11  C   UNL     1       8.594  -1.519  -2.656  1.00  0.00     0.165 A 
ATOM     12  O   UNL     1       8.288  -3.325  -1.393  1.00  0.00    -0.454 OA
ATOM     13  O   UNL     1       9.382  -2.553  -3.135  1.00  0.00    -0.454 OA
ATOM     14  C   UNL     1       9.287  -3.689  -2.310  1.00  0.00     0.468 C 
ENDBRANCH   5   6
ENDBRANCH   1   5
TORSDOF 3
ENDMDL
MODEL 3
REMARK VINA RESULT:      -7.0      1.785      2.252
REMARK SMILES CC(=O)CCc1ccc2c(c1)OCO2
REMARK SMILES IDX 4 1 2 2 1 3 3 4 5 5 6 6 7 7 11 8 8 9 10 10 9 11 12 12 14 13
REMARK SMILES IDX 13 14
REMARK H PARENT
REMARK Flexibility Score: inf
ROOT
ATOM      1  C   UNL     1       5.993   1.222  -0.176  1.00  0.00     0.080 C 
ENDROOT
BRANCH   1   2
ATOM      2  C   UNL     1       5.921   1.183   1.311  1.00  0.00     0.130 C 
ATOM      3  C   UNL     1       5.315   0.033   2.034  1.00  0.00     0.087 C 
ATOM      4  O   UNL     1       6.361   2.102   1.984  1.00  0.00    -0.300 OA
ENDBRANCH   1   2
BRANCH   1   5
ATOM      5  C   UNL     1       7.428   1.152  -0.660  1.00  0.00     0.043 C 
BRANCH   5   6
ATOM      6  C   UNL     1       7.770  -0.192  -1.159  1.00  0.00    -0.044 A 
ATOM      7  C   UNL     1       7.894  -0.456  -2.528  1.00  0.00     0.008 A 
ATOM      8  C   UNL     1       7.978  -1.219  -0.267  1.00  0.00     0.054 A 
ATOM      9  C   UNL     1       8.219  -1.736  -2.938  1.00  0.00     0.051 A 
ATOM     10  C   UNL     1       8.307  -2.512  -0.686  1.00  0.00     0.166 A 
ATOM     11  C   UNL     1       8.428  -2.772  -2.033  1.00  0.00     0.165 A 
ATOM     12  O   UNL     1       8.558  -3.685  -0.007  1.00  0.00    -0.454 OA
ATOM     13  O   UNL     1       8.755  -4.114  -2.154  1.00  0.00    -0.454 OA
ATOM     14  C   UNL     1       8.937  -4.708  -0.891  1.00  0.00     0.468 C 
ENDBRANCH   5   6
ENDBRANCH   1   5
TORSDOF 3
ENDMDL
MODEL 4
REMARK VINA RESULT:      -6.6      1.985      2.566
REMARK SMILES CC(=O)CCc1ccc2c(c1)OCO2
REMARK SMILES IDX 4 1 2 2 1 3 3 4 5 5 6 6 7 7 11 8 8 9 10 10 9 11 12 12 14 13
REMARK SMILES IDX 13 14
REMARK H PARENT
REMARK Flexibility Score: inf
ROOT
ATOM      1  C   UNL     1       6.131  -0.394   2.327  1.00  0.00     0.080 C 
ENDROOT
BRANCH   1   2
ATOM      2  C   UNL     1       5.090   0.573   1.880  1.00  0.00     0.130 C 
ATOM      3  C   UNL     1       5.264   1.395   0.652  1.00  0.00     0.087 C 
ATOM      4  O   UNL     1       4.058   0.720   2.514  1.00  0.00    -0.300 OA
ENDBRANCH   1   2
BRANCH   1   5
ATOM      5  C   UNL     1       7.470  -0.101   1.679  1.00  0.00     0.043 C 
BRANCH   5   6
ATOM      6  C   UNL     1       7.758  -1.033   0.575  1.00  0.00    -0.044 A 
ATOM      7  C   UNL     1       7.609  -0.652  -0.764  1.00  0.00     0.008 A 
ATOM      8  C   UNL     1       8.188  -2.310   0.855  1.00  0.00     0.054 A 
ATOM      9  C   UNL     1       7.895  -1.570  -1.758  1.00  0.00     0.051 A 
ATOM     10  C   UNL     1       8.477  -3.234  -0.154  1.00  0.00     0.166 A 
ATOM     11  C   UNL     1       8.329  -2.861  -1.472  1.00  0.00     0.165 A 
ATOM     12  O   UNL     1       8.911  -4.542  -0.134  1.00  0.00    -0.454 OA
ATOM     13  O   UNL     1       8.680  -3.959  -2.241  1.00  0.00    -0.454 OA
ATOM     14  C   UNL     1       9.142  -5.017  -1.436  1.00  0.00     0.468 C 
ENDBRANCH   5   6
ENDBRANCH   1   5
TORSDOF 3
ENDMDL
MODEL 5
REMARK VINA RESULT:      -6.4      2.064      2.486
REMARK SMILES CC(=O)CCc1ccc2c(c1)OCO2
REMARK SMILES IDX 4 1 2 2 1 3 3 4 5 5 6 6 7 7 11 8 8 9 10 10 9 11 12 12 14 13
REMARK SMILES IDX 13 14
REMARK H PARENT
REMARK Flexibility Score: inf
ROOT
ATOM      1  C   UNL     1       5.795   1.068  -0.313  1.00  0.00     0.080 C 
ENDROOT
BRANCH   1   2
ATOM      2  C   UNL     1       5.714   1.257   1.163  1.00  0.00     0.130 C 
ATOM      3  C   UNL     1       4.876   0.375   2.018  1.00  0.00     0.087 C 
ATOM      4  O   UNL     1       6.338   2.149   1.715  1.00  0.00    -0.300 OA
ENDBRANCH   1   2
BRANCH   1   5
ATOM      5  C   UNL     1       7.226   0.846  -0.761  1.00  0.00     0.043 C 
BRANCH   5   6
ATOM      6  C   UNL     1       7.682  -0.526  -0.478  1.00  0.00    -0.044 A 
ATOM      7  C   UNL     1       7.887  -0.974   0.832  1.00  0.00     0.008 A 
ATOM      8  C   UNL     1       7.911  -1.397  -1.518  1.00  0.00     0.054 A 
ATOM      9  C   UNL     1       8.315  -2.274   1.037  1.00  0.00     0.051 A 
ATOM     10  C   UNL     1       8.342  -2.710  -1.305  1.00  0.00     0.166 A 
ATOM     11  C   UNL     1       8.546  -3.152  -0.017  1.00  0.00     0.165 A 
ATOM     12  O   UNL     1       8.636  -3.753  -2.159  1.00  0.00    -0.454 OA
ATOM     13  O   UNL     1       8.964  -4.470  -0.107  1.00  0.00    -0.454 OA
ATOM     14  C   UNL     1       8.948  -4.919  -1.441  1.00  0.00     0.468 C 
ENDBRANCH   5   6
ENDBRANCH   1   5
TORSDOF 3
ENDMDL
