MODEL 1
REMARK VINA RESULT:      -7.6      0.000      0.000
REMARK SMILES CC(=O)CCc1ccc2c(c1)OCO2
REMARK SMILES IDX 4 1 2 2 1 3 3 4 5 5 6 6 7 7 11 8 8 9 10 10 9 11 12 12 14 13
REMARK SMILES IDX 13 14
REMARK H PARENT
REMARK Flexibility Score: inf
ROOT
ATOM      1  C   UNL     1       5.545   1.921   1.265  1.00  0.00     0.080 C 
ENDROOT
BRANCH   1   2
ATOM      2  C   UNL     1       5.112   0.704   2.006  1.00  0.00     0.130 C 
ATOM      3  C   UNL     1       6.018  -0.462   2.189  1.00  0.00     0.087 C 
ATOM      4  O   UNL     1       3.993   0.628   2.486  1.00  0.00    -0.300 OA
ENDBRANCH   1   2
BRANCH   1   5
ATOM      5  C   UNL     1       5.416   1.729  -0.233  1.00  0.00     0.043 C 
BRANCH   5   6
ATOM      6  C   UNL     1       6.579   1.021  -0.796  1.00  0.00    -0.044 A 
ATOM      7  C   UNL     1       7.888   1.446  -0.544  1.00  0.00     0.008 A 
ATOM      8  C   UNL     1       6.385  -0.088  -1.588  1.00  0.00     0.054 A 
ATOM      9  C   UNL     1       8.941   0.741  -1.099  1.00  0.00     0.051 A 
ATOM     10  C   UNL     1       7.453  -0.798  -2.146  1.00  0.00     0.166 A 
ATOM     11  C   UNL     1       8.742  -0.379  -1.899  1.00  0.00     0.165 A 
ATOM     12  O   UNL     1       7.520  -1.912  -2.954  1.00  0.00    -0.454 OA
ATOM     13  O   UNL     1       9.582  -1.255  -2.567  1.00  0.00    -0.454 OA
ATOM     14  C   UNL     1       8.854  -2.296  -3.174  1.00  0.00     0.468 C 
ENDBRANCH   5   6
ENDBRANCH   1   5
TORSDOF 3
ENDMDL
MODEL 2
REMARK VINA RESULT:      -7.5      1.926      2.368
REMARK SMILES CC(=O)CCc1ccc2c(c1)OCO2
REMARK SMILES IDX 4 1 2 2 1 3 3 4 5 5 6 6 7 7 11 8 8 9 10 10 9 11 12 12 14 13
REMARK SMILES IDX 13 14
REMARK H PARENT
REMARK Flexibility Score: inf
ROOT
ATOM      1  C   UNL     1       5.698   1.254  -0.301  1.00  0.00     0.080 C 
ENDROOT
BRANCH   1   2
ATOM      2  C   UNL     1       5.126   1.241   1.074  1.00  0.00     0.130 C 
ATOM      3  C   UNL     1       5.399   0.128   2.022  1.00  0.00     0.087 C 
ATOM      4  O   UNL     1       4.412   2.150   1.464  1.00  0.00    -0.300 OA
ENDBRANCH   1   2
BRANCH   1   5
ATOM      5  C   UNL     1       7.204   1.083  -0.273  1.00  0.00     0.043 C 
BRANCH   5   6
ATOM      6  C   UNL     1       7.621  -0.196  -0.874  1.00  0.00    -0.044 A 
ATOM      7  C   UNL     1       7.778  -0.340  -2.257  1.00  0.00     0.008 A 
ATOM      8  C   UNL     1       7.867  -1.282  -0.065  1.00  0.00     0.054 A 
ATOM      9  C   UNL     1       8.172  -1.564  -2.764  1.00  0.00     0.051 A 
ATOM     10  C   UNL     1       8.266  -2.518  -0.582  1.00  0.00     0.166 A 
ATOM     11  C   UNL     1       8.419  -2.660  -1.943  1.00  0.00     0.165 A 
ATOM     12  O   UNL     1       8.566  -3.729   0.004  1.00  0.00    -0.454 OA
ATOM     13  O   UNL     1       8.815  -3.969  -2.167  1.00  0.00    -0.454 OA
ATOM     14  C   UNL     1       9.009  -4.657  -0.954  1.00  0.00     0.468 C 
ENDBRANCH   5   6
ENDBRANCH   1   5
TORSDOF 3
ENDMDL
MODEL 3
REMARK VINA RESULT:      -7.2      2.041      2.599
REMARK SMILES CC(=O)CCc1ccc2c(c1)OCO2
REMARK SMILES IDX 4 1 2 2 1 3 3 4 5 5 6 6 7 7 11 8 8 9 10 10 9 11 12 12 14 13
REMARK SMILES IDX 13 14
REMARK H PARENT
REMARK Flexibility Score: inf
ROOT
ATOM      1  C   UNL     1       5.464  -0.023   2.013  1.00  0.00     0.080 C 
ENDROOT
BRANCH   1   2
ATOM      2  C   UNL     1       4.588   1.155   1.759  1.00  0.00     0.130 C 
ATOM      3  C   UNL     1       4.898   2.142   0.690  1.00  0.00     0.087 C 
ATOM      4  O   UNL     1       3.585   1.346   2.426  1.00  0.00    -0.300 OA
ENDBRANCH   1   2
BRANCH   1   5
ATOM      5  C   UNL     1       6.886   0.241   1.561  1.00  0.00     0.043 C 
BRANCH   5   6
ATOM      6  C   UNL     1       7.305  -0.693   0.501  1.00  0.00    -0.044 A 
ATOM      7  C   UNL     1       7.184  -0.365  -0.854  1.00  0.00     0.008 A 
ATOM      8  C   UNL     1       7.831  -1.919   0.840  1.00  0.00     0.054 A 
ATOM      9  C   UNL     1       7.595  -1.281  -1.806  1.00  0.00     0.051 A 
ATOM     10  C   UNL     1       8.245  -2.842  -0.126  1.00  0.00     0.166 A 
ATOM     11  C   UNL     1       8.125  -2.520  -1.459  1.00  0.00     0.165 A 
ATOM     12  O   UNL     1       8.790  -4.105  -0.045  1.00  0.00    -0.454 OA
ATOM     13  O   UNL     1       8.606  -3.604  -2.178  1.00  0.00    -0.454 OA
ATOM     14  C   UNL     1       9.121  -4.594  -1.320  1.00  0.00     0.468 C 
ENDBRANCH   5   6
ENDBRANCH   1   5
TORSDOF 3
ENDMDL
MODEL 4
REMARK VINA RESULT:      -7.1      1.248      1.455
REMARK SMILES CC(=O)CCc1ccc2c(c1)OCO2
REMARK SMILES IDX 4 1 2 2 1 3 3 4 5 5 6 6 7 7 11 8 8 9 10 10 9 11 12 12 14 13
REMARK SMILES IDX 13 14
REMARK H PARENT
REMARK Flexibility Score: inf
ROOT
ATOM      1  C   UNL     1       6.377   1.191   0.932  1.00  0.00     0.080 C 
ENDROOT
BRANCH   1   2
ATOM      2  C   UNL     1       5.658   0.370   1.946  1.00  0.00     0.130 C 
ATOM      3  C   UNL     1       6.262  -0.858   2.527  1.00  0.00     0.087 C 
ATOM      4  O   UNL     1       4.543   0.685   2.330  1.00  0.00    -0.300 OA
ENDBRANCH   1   2
BRANCH   1   5
ATOM      5  C   UNL     1       5.864   0.913  -0.467  1.00  0.00     0.043 C 
BRANCH   5   6
ATOM      6  C   UNL     1       6.812   0.096  -1.244  1.00  0.00    -0.044 A 
ATOM      7  C   UNL     1       7.491   0.616  -2.352  1.00  0.00     0.008 A 
ATOM      8  C   UNL     1       7.046  -1.211  -0.880  1.00  0.00     0.054 A 
ATOM      9  C   UNL     1       8.370  -0.198  -3.043  1.00  0.00     0.051 A 
ATOM     10  C   UNL     1       7.936  -2.029  -1.582  1.00  0.00     0.166 A 
ATOM     11  C   UNL     1       8.603  -1.518  -2.673  1.00  0.00     0.165 A 
ATOM     12  O   UNL     1       8.333  -3.340  -1.421  1.00  0.00    -0.454 OA
ATOM     13  O   UNL     1       9.406  -2.536  -3.164  1.00  0.00    -0.454 OA
ATOM     14  C   UNL     1       9.334  -3.680  -2.347  1.00  0.00     0.468 C 
ENDBRANCH   5   6
ENDBRANCH   1   5
TORSDOF 3
ENDMDL
MODEL 5
REMARK VINA RESULT:      -7.0      1.979      2.532
REMARK SMILES CC(=O)CCc1ccc2c(c1)OCO2
REMARK SMILES IDX 4 1 2 2 1 3 3 4 5 5 6 6 7 7 11 8 8 9 10 10 9 11 12 12 14 13
REMARK SMILES IDX 13 14
REMARK H PARENT
REMARK Flexibility Score: inf
ROOT
ATOM      1  C   UNL     1       6.933   0.900   1.257  1.00  0.00     0.080 C 
ENDROOT
BRANCH   1   2
ATOM      2  C   UNL     1       5.463   1.096   1.403  1.00  0.00     0.130 C 
ATOM      3  C   UNL     1       4.725   2.098   0.589  1.00  0.00     0.087 C 
ATOM      4  O   UNL     1       4.819   0.435   2.202  1.00  0.00    -0.300 OA
ENDBRANCH   1   2
BRANCH   1   5
ATOM      5  C   UNL     1       7.369   1.059  -0.186  1.00  0.00     0.043 C 
BRANCH   5   6
ATOM      6  C   UNL     1       7.706  -0.238  -0.800  1.00  0.00    -0.044 A 
ATOM      7  C   UNL     1       7.758  -0.399  -2.190  1.00  0.00     0.008 A 
ATOM      8  C   UNL     1       7.980  -1.322   0.002  1.00  0.00     0.054 A 
ATOM      9  C   UNL     1       8.081  -1.639  -2.710  1.00  0.00     0.051 A 
ATOM     10  C   UNL     1       8.307  -2.574  -0.529  1.00  0.00     0.166 A 
ATOM     11  C   UNL     1       8.357  -2.733  -1.896  1.00  0.00     0.165 A 
ATOM     12  O   UNL     1       8.615  -3.787   0.048  1.00  0.00    -0.454 OA
ATOM     13  O   UNL     1       8.700  -4.055  -2.132  1.00  0.00    -0.454 OA
ATOM     14  C   UNL     1       8.962  -4.736  -0.928  1.00  0.00     0.468 C 
ENDBRANCH   5   6
ENDBRANCH   1   5
TORSDOF 3
ENDMDL
