@<TRIPOS>MOLECULE
/home/cewinharhar/GITHUB/reincatalyze/data/processed/docking_pred/2023-May-24-1506_sub9_nm5_bs15_s42_ex16_mel10_mts10000_k50_ec02_g099_lra3e-4_lrc3e-3/01f25cbd7413d58f388abe94d9cfceb48e05f66f_ligand_9.pdbqt
 14 15 0 0 0
SMALL
GASTEIGER

@<TRIPOS>ATOM
      1  C          5.4640   -0.0230    2.0130 C.3     1  UNL1        0.0800
      2  C          4.5880    1.1550    1.7590 C.2     1  UNL1        0.1300
      3  C          4.8980    2.1420    0.6900 C.3     1  UNL1        0.0870
      4  O          3.5850    1.3460    2.4260 O.2     1  UNL1       -0.3000
      5  C          6.8860    0.2410    1.5610 C.3     1  UNL1        0.0430
      6  C          7.3050   -0.6930    0.5010 C.2     1  UNL1       -0.0440
      7  C          7.1840   -0.3650   -0.8540 C.2     1  UNL1        0.0080
      8  C          7.8310   -1.9190    0.8400 C.2     1  UNL1        0.0540
      9  C          7.5950   -1.2810   -1.8060 C.2     1  UNL1        0.0510
     10  C          8.2450   -2.8420   -0.1260 C.2     1  UNL1        0.1660
     11  C          8.1250   -2.5200   -1.4590 C.2     1  UNL1        0.1650
     12  O          8.7900   -4.1050   -0.0450 O.2     1  UNL1       -0.4540
     13  O          8.6060   -3.6040   -2.1780 O.2     1  UNL1       -0.4540
     14  C          9.1210   -4.5940   -1.3200 C.3     1  UNL1        0.4680
@<TRIPOS>BOND
     1    13    11    1
     2    13    14    1
     3     9    11    2
     4     9     7    1
     5    11    10    1
     6    14    12    1
     7     7     6    2
     8    10    12    1
     9    10     8    2
    10     6     8    1
    11     6     5    1
    12     3     2    1
    13     5     1    1
    14     2     1    1
    15     2     4    2
