@<TRIPOS>MOLECULE
/home/cewinharhar/GITHUB/reincatalyze/data/processed/docking_pred/2023-May-24-1506_sub9_nm5_bs15_s42_ex16_mel10_mts10000_k50_ec02_g099_lra3e-4_lrc3e-3/01f25cbd7413d58f388abe94d9cfceb48e05f66f_ligand_9.pdbqt
 14 15 0 0 0
SMALL
GASTEIGER

@<TRIPOS>ATOM
      1  C          5.5450    1.9210    1.2650 C.3     1  UNL1        0.0800
      2  C          5.1120    0.7040    2.0060 C.2     1  UNL1        0.1300
      3  C          6.0180   -0.4620    2.1890 C.3     1  UNL1        0.0870
      4  O          3.9930    0.6280    2.4860 O.2     1  UNL1       -0.3000
      5  C          5.4160    1.7290   -0.2330 C.3     1  UNL1        0.0430
      6  C          6.5790    1.0210   -0.7960 C.2     1  UNL1       -0.0440
      7  C          7.8880    1.4460   -0.5440 C.2     1  UNL1        0.0080
      8  C          6.3850   -0.0880   -1.5880 C.2     1  UNL1        0.0540
      9  C          8.9410    0.7410   -1.0990 C.2     1  UNL1        0.0510
     10  C          7.4530   -0.7980   -2.1460 C.2     1  UNL1        0.1660
     11  C          8.7420   -0.3790   -1.8990 C.2     1  UNL1        0.1650
     12  O          7.5200   -1.9120   -2.9540 O.2     1  UNL1       -0.4540
     13  O          9.5820   -1.2550   -2.5670 O.2     1  UNL1       -0.4540
     14  C          8.8540   -2.2960   -3.1740 C.3     1  UNL1        0.4680
@<TRIPOS>BOND
     1    14    12    1
     2    14    13    1
     3    12    10    1
     4    13    11    1
     5    10    11    2
     6    10     8    1
     7    11     9    1
     8     8     6    2
     9     9     7    2
    10     6     7    1
    11     6     5    1
    12     5     1    1
    13     1     2    1
    14     2     3    1
    15     2     4    2
