@<TRIPOS>MOLECULE
/home/cewinharhar/GITHUB/reincatalyze/data/processed/docking_pred/2023-May-24-1506_sub9_nm5_bs15_s42_ex16_mel10_mts10000_k50_ec02_g099_lra3e-4_lrc3e-3/01f25cbd7413d58f388abe94d9cfceb48e05f66f_ligand_9.pdbqt
 14 15 0 0 0
SMALL
GASTEIGER

@<TRIPOS>ATOM
      1  C          5.6980    1.2540   -0.3010 C.3     1  UNL1        0.0800
      2  C          5.1260    1.2410    1.0740 C.2     1  UNL1        0.1300
      3  C          5.3990    0.1280    2.0220 C.3     1  UNL1        0.0870
      4  O          4.4120    2.1500    1.4640 O.2     1  UNL1       -0.3000
      5  C          7.2040    1.0830   -0.2730 C.3     1  UNL1        0.0430
      6  C          7.6210   -0.1960   -0.8740 C.2     1  UNL1       -0.0440
      7  C          7.7780   -0.3400   -2.2570 C.2     1  UNL1        0.0080
      8  C          7.8670   -1.2820   -0.0650 C.2     1  UNL1        0.0540
      9  C          8.1720   -1.5640   -2.7640 C.2     1  UNL1        0.0510
     10  C          8.2660   -2.5180   -0.5820 C.2     1  UNL1        0.1660
     11  C          8.4190   -2.6600   -1.9430 C.2     1  UNL1        0.1650
     12  O          8.5660   -3.7290    0.0040 O.2     1  UNL1       -0.4540
     13  O          8.8150   -3.9690   -2.1670 O.2     1  UNL1       -0.4540
     14  C          9.0090   -4.6570   -0.9540 C.3     1  UNL1        0.4680
@<TRIPOS>BOND
     1     9     7    1
     2     9    11    2
     3     7     6    2
     4    13    11    1
     5    13    14    1
     6    11    10    1
     7    14    12    1
     8     6     5    1
     9     6     8    1
    10    10     8    2
    11    10    12    1
    12     1     5    1
    13     1     2    1
    14     2     4    2
    15     2     3    1
