MODEL 1
REMARK VINA RESULT:      -7.6      0.000      0.000
REMARK SMILES CC(=O)CCc1ccc2c(c1)OCO2
REMARK SMILES IDX 4 1 2 2 1 3 3 4 5 5 6 6 7 7 11 8 8 9 10 10 9 11 12 12 14 13
REMARK SMILES IDX 13 14
REMARK H PARENT
REMARK Flexibility Score: inf
ROOT
ATOM      1  C   UNL     1       5.526   1.938   1.267  1.00  0.00     0.080 C 
ENDROOT
BRANCH   1   2
ATOM      2  C   UNL     1       5.097   0.721   2.012  1.00  0.00     0.130 C 
ATOM      3  C   UNL     1       6.003  -0.444   2.193  1.00  0.00     0.087 C 
ATOM      4  O   UNL     1       3.980   0.646   2.497  1.00  0.00    -0.300 OA
ENDBRANCH   1   2
BRANCH   1   5
ATOM      5  C   UNL     1       5.396   1.741  -0.230  1.00  0.00     0.043 C 
BRANCH   5   6
ATOM      6  C   UNL     1       6.564   1.040  -0.793  1.00  0.00    -0.044 A 
ATOM      7  C   UNL     1       7.871   1.477  -0.544  1.00  0.00     0.008 A 
ATOM      8  C   UNL     1       6.378  -0.072  -1.581  1.00  0.00     0.054 A 
ATOM      9  C   UNL     1       8.928   0.779  -1.099  1.00  0.00     0.051 A 
ATOM     10  C   UNL     1       7.451  -0.775  -2.139  1.00  0.00     0.166 A 
ATOM     11  C   UNL     1       8.736  -0.346  -1.895  1.00  0.00     0.165 A 
ATOM     12  O   UNL     1       7.526  -1.892  -2.944  1.00  0.00    -0.454 OA
ATOM     13  O   UNL     1       9.583  -1.217  -2.562  1.00  0.00    -0.454 OA
ATOM     14  C   UNL     1       8.861  -2.265  -3.165  1.00  0.00     0.468 C 
ENDBRANCH   5   6
ENDBRANCH   1   5
TORSDOF 3
ENDMDL
MODEL 2
REMARK VINA RESULT:      -7.5      1.923      2.381
REMARK SMILES CC(=O)CCc1ccc2c(c1)OCO2
REMARK SMILES IDX 4 1 2 2 1 3 3 4 5 5 6 6 7 7 11 8 8 9 10 10 9 11 12 12 14 13
REMARK SMILES IDX 13 14
REMARK H PARENT
REMARK Flexibility Score: inf
ROOT
ATOM      1  C   UNL     1       5.711   1.316  -0.280  1.00  0.00     0.080 C 
ENDROOT
BRANCH   1   2
ATOM      2  C   UNL     1       5.131   1.266   1.091  1.00  0.00     0.130 C 
ATOM      3  C   UNL     1       5.439   0.152   2.028  1.00  0.00     0.087 C 
ATOM      4  O   UNL     1       4.381   2.143   1.488  1.00  0.00    -0.300 OA
ENDBRANCH   1   2
BRANCH   1   5
ATOM      5  C   UNL     1       7.211   1.106  -0.252  1.00  0.00     0.043 C 
BRANCH   5   6
ATOM      6  C   UNL     1       7.594  -0.181  -0.859  1.00  0.00    -0.044 A 
ATOM      7  C   UNL     1       7.680  -0.340  -2.247  1.00  0.00     0.008 A 
ATOM      8  C   UNL     1       7.879  -1.259  -0.052  1.00  0.00     0.054 A 
ATOM      9  C   UNL     1       8.045  -1.571  -2.761  1.00  0.00     0.051 A 
ATOM     10  C   UNL     1       8.248  -2.501  -0.576  1.00  0.00     0.166 A 
ATOM     11  C   UNL     1       8.332  -2.659  -1.941  1.00  0.00     0.165 A 
ATOM     12  O   UNL     1       8.575  -3.707   0.007  1.00  0.00    -0.454 OA
ATOM     13  O   UNL     1       8.713  -3.971  -2.171  1.00  0.00    -0.454 OA
ATOM     14  C   UNL     1       8.966  -4.646  -0.962  1.00  0.00     0.468 C 
ENDBRANCH   5   6
ENDBRANCH   1   5
TORSDOF 3
ENDMDL
MODEL 3
REMARK VINA RESULT:      -7.1      2.084      2.601
REMARK SMILES CC(=O)CCc1ccc2c(c1)OCO2
REMARK SMILES IDX 4 1 2 2 1 3 3 4 5 5 6 6 7 7 11 8 8 9 10 10 9 11 12 12 14 13
REMARK SMILES IDX 13 14
REMARK H PARENT
REMARK Flexibility Score: inf
ROOT
ATOM      1  C   UNL     1       5.653   0.100   1.937  1.00  0.00     0.080 C 
ENDROOT
BRANCH   1   2
ATOM      2  C   UNL     1       4.728   1.218   1.603  1.00  0.00     0.130 C 
ATOM      3  C   UNL     1       5.001   2.147   0.474  1.00  0.00     0.087 C 
ATOM      4  O   UNL     1       3.711   1.405   2.252  1.00  0.00    -0.300 OA
ENDBRANCH   1   2
BRANCH   1   5
ATOM      5  C   UNL     1       7.049   0.363   1.406  1.00  0.00     0.043 C 
BRANCH   5   6
ATOM      6  C   UNL     1       7.439  -0.624   0.384  1.00  0.00    -0.044 A 
ATOM      7  C   UNL     1       7.367  -0.331  -0.983  1.00  0.00     0.008 A 
ATOM      8  C   UNL     1       7.889  -1.866   0.771  1.00  0.00     0.054 A 
ATOM      9  C   UNL     1       7.747  -1.297  -1.897  1.00  0.00     0.051 A 
ATOM     10  C   UNL     1       8.273  -2.838  -0.158  1.00  0.00     0.166 A 
ATOM     11  C   UNL     1       8.201  -2.551  -1.503  1.00  0.00     0.165 A 
ATOM     12  O   UNL     1       8.746  -4.127  -0.027  1.00  0.00    -0.454 OA
ATOM     13  O   UNL     1       8.637  -3.681  -2.177  1.00  0.00    -0.454 OA
ATOM     14  C   UNL     1       9.078  -4.671  -1.279  1.00  0.00     0.468 C 
ENDBRANCH   5   6
ENDBRANCH   1   5
TORSDOF 3
ENDMDL
MODEL 4
REMARK VINA RESULT:      -7.0      1.254      1.469
REMARK SMILES CC(=O)CCc1ccc2c(c1)OCO2
REMARK SMILES IDX 4 1 2 2 1 3 3 4 5 5 6 6 7 7 11 8 8 9 10 10 9 11 12 12 14 13
REMARK SMILES IDX 13 14
REMARK H PARENT
REMARK Flexibility Score: inf
ROOT
ATOM      1  C   UNL     1       6.393   1.217   0.936  1.00  0.00     0.080 C 
ENDROOT
BRANCH   1   2
ATOM      2  C   UNL     1       5.667   0.374   1.926  1.00  0.00     0.130 C 
ATOM      3  C   UNL     1       6.267  -0.867   2.484  1.00  0.00     0.087 C 
ATOM      4  O   UNL     1       4.549   0.680   2.309  1.00  0.00    -0.300 OA
ENDBRANCH   1   2
BRANCH   1   5
ATOM      5  C   UNL     1       5.888   0.972  -0.472  1.00  0.00     0.043 C 
BRANCH   5   6
ATOM      6  C   UNL     1       6.819   0.133  -1.248  1.00  0.00    -0.044 A 
ATOM      7  C   UNL     1       7.493   0.630  -2.369  1.00  0.00     0.008 A 
ATOM      8  C   UNL     1       7.041  -1.171  -0.868  1.00  0.00     0.054 A 
ATOM      9  C   UNL     1       8.356  -0.203  -3.058  1.00  0.00     0.051 A 
ATOM     10  C   UNL     1       7.915  -2.010  -1.567  1.00  0.00     0.166 A 
ATOM     11  C   UNL     1       8.577  -1.522  -2.671  1.00  0.00     0.165 A 
ATOM     12  O   UNL     1       8.298  -3.322  -1.392  1.00  0.00    -0.454 OA
ATOM     13  O   UNL     1       9.363  -2.555  -3.156  1.00  0.00    -0.454 OA
ATOM     14  C   UNL     1       9.286  -3.687  -2.322  1.00  0.00     0.468 C 
ENDBRANCH   5   6
ENDBRANCH   1   5
TORSDOF 3
ENDMDL
MODEL 5
REMARK VINA RESULT:      -6.7      1.262      1.762
REMARK SMILES CC(=O)CCc1ccc2c(c1)OCO2
REMARK SMILES IDX 4 1 2 2 1 3 3 4 5 5 6 6 7 7 11 8 8 9 10 10 9 11 12 12 14 13
REMARK SMILES IDX 13 14
REMARK H PARENT
REMARK Flexibility Score: inf
ROOT
ATOM      1  C   UNL     1       5.312  -0.082   1.984  1.00  0.00     0.080 C 
ENDROOT
BRANCH   1   2
ATOM      2  C   UNL     1       4.453   1.122   1.805  1.00  0.00     0.130 C 
ATOM      3  C   UNL     1       4.755   2.150   0.773  1.00  0.00     0.087 C 
ATOM      4  O   UNL     1       3.470   1.300   2.505  1.00  0.00    -0.300 OA
ENDBRANCH   1   2
BRANCH   1   5
ATOM      5  C   UNL     1       6.783   0.279   1.934  1.00  0.00     0.043 C 
BRANCH   5   6
ATOM      6  C   UNL     1       7.385  -0.060   0.632  1.00  0.00    -0.044 A 
ATOM      7  C   UNL     1       7.869   0.929  -0.232  1.00  0.00     0.008 A 
ATOM      8  C   UNL     1       7.481  -1.378   0.247  1.00  0.00     0.054 A 
ATOM      9  C   UNL     1       8.424   0.551  -1.441  1.00  0.00     0.051 A 
ATOM     10  C   UNL     1       8.044  -1.755  -0.976  1.00  0.00     0.166 A 
ATOM     11  C   UNL     1       8.519  -0.782  -1.827  1.00  0.00     0.165 A 
ATOM     12  O   UNL     1       8.250  -2.978  -1.578  1.00  0.00    -0.454 OA
ATOM     13  O   UNL     1       9.013  -1.435  -2.945  1.00  0.00    -0.454 OA
ATOM     14  C   UNL     1       8.945  -2.833  -2.790  1.00  0.00     0.468 C 
ENDBRANCH   5   6
ENDBRANCH   1   5
TORSDOF 3
ENDMDL
