@<TRIPOS>MOLECULE
/home/cewinharhar/GITHUB/reincatalyze/data/processed/docking_pred/2023-May-24-1506_sub9_nm5_bs15_s42_ex16_mel10_mts10000_k50_ec02_g099_lra3e-4_lrc3e-3/0310d41f91ab2de901a6698b161cc991790b6b4b_ligand_9.pdbqt
 14 15 0 0 0
SMALL
GASTEIGER

@<TRIPOS>ATOM
      1  C          5.5340    1.9400    1.2590 C.3     1  UNL1        0.0800
      2  C          5.1160    0.7200    2.0050 C.2     1  UNL1        0.1300
      3  C          6.0360   -0.4340    2.1920 C.3     1  UNL1        0.0870
      4  O          3.9980    0.6330    2.4870 O.2     1  UNL1       -0.3000
      5  C          5.4050    1.7410   -0.2380 C.3     1  UNL1        0.0430
      6  C          6.5710    1.0340   -0.7970 C.2     1  UNL1       -0.0440
      7  C          7.8790    1.4580   -0.5390 C.2     1  UNL1        0.0080
      8  C          6.3800   -0.0740   -1.5920 C.2     1  UNL1        0.0540
      9  C          8.9340    0.7540   -1.0900 C.2     1  UNL1        0.0510
     10  C          7.4490   -0.7830   -2.1460 C.2     1  UNL1        0.1660
     11  C          8.7370   -0.3650   -1.8940 C.2     1  UNL1        0.1650
     12  O          7.5200   -1.8960   -2.9560 O.2     1  UNL1       -0.4540
     13  O          9.5800   -1.2410   -2.5600 O.2     1  UNL1       -0.4540
     14  C          8.8540   -2.2800   -3.1720 C.3     1  UNL1        0.4680
@<TRIPOS>BOND
     1    14    12    1
     2    14    13    1
     3    12    10    1
     4    13    11    1
     5    10    11    2
     6    10     8    1
     7    11     9    1
     8     8     6    2
     9     9     7    2
    10     6     7    1
    11     6     5    1
    12     5     1    1
    13     1     2    1
    14     2     3    1
    15     2     4    2
