@<TRIPOS>MOLECULE
/home/cewinharhar/GITHUB/reincatalyze/data/processed/docking_pred/2023-May-24-1506_sub9_nm5_bs15_s42_ex16_mel10_mts10000_k50_ec02_g099_lra3e-4_lrc3e-3/034cecc51265c6b10d0b2cc1c9f67b1ec6b5e3be_ligand_9.pdbqt
 14 15 0 0 0
SMALL
GASTEIGER

@<TRIPOS>ATOM
      1  C          6.9480    0.9560    1.2560 C.3     1  UNL1        0.0800
      2  C          5.4790    1.1500    1.4080 C.2     1  UNL1        0.1300
      3  C          4.7350    2.1480    0.5930 C.3     1  UNL1        0.0870
      4  O          4.8400    0.4910    2.2120 O.2     1  UNL1       -0.3000
      5  C          7.3740    1.0900   -0.1930 C.3     1  UNL1        0.0430
      6  C          7.7090   -0.2170   -0.7870 C.2     1  UNL1       -0.0440
      7  C          7.7810   -0.3950   -2.1730 C.2     1  UNL1        0.0080
      8  C          7.9600   -1.2940    0.0320 C.2     1  UNL1        0.0540
      9  C          8.1000   -1.6440   -2.6730 C.2     1  UNL1        0.0510
     10  C          8.2840   -2.5550   -0.4790 C.2     1  UNL1        0.1660
     11  C          8.3540   -2.7310   -1.8430 C.2     1  UNL1        0.1650
     12  O          8.5710   -3.7640    0.1170 O.2     1  UNL1       -0.4540
     13  O          8.6880   -4.0590   -2.0590 O.2     1  UNL1       -0.4540
     14  C          8.9240   -4.7270   -0.8430 C.3     1  UNL1        0.4680
@<TRIPOS>BOND
     1     9     7    1
     2     9    11    2
     3     7     6    2
     4    13    11    1
     5    13    14    1
     6    11    10    1
     7    14    12    1
     8     6     5    1
     9     6     8    1
    10    10     8    2
    11    10    12    1
    12     5     1    1
    13     3     2    1
    14     1     2    1
    15     2     4    2
