@<TRIPOS>MOLECULE
/home/cewinharhar/GITHUB/reincatalyze/data/processed/docking_pred/2023-May-24-1506_sub9_nm5_bs15_s42_ex16_mel10_mts10000_k50_ec02_g099_lra3e-4_lrc3e-3/034cecc51265c6b10d0b2cc1c9f67b1ec6b5e3be_ligand_9.pdbqt
 14 15 0 0 0
SMALL
GASTEIGER

@<TRIPOS>ATOM
      1  C          5.4650   -0.0400    1.9720 C.3     1  UNL1        0.0800
      2  C          4.6200    1.1550    1.6990 C.2     1  UNL1        0.1300
      3  C          4.9690    2.1310    0.6320 C.3     1  UNL1        0.0870
      4  O          3.6100    1.3700    2.3490 O.2     1  UNL1       -0.3000
      5  C          6.9020    0.1920    1.5470 C.3     1  UNL1        0.0430
      6  C          7.3200   -0.7510    0.4950 C.2     1  UNL1       -0.0440
      7  C          7.1820   -0.4420   -0.8630 C.2     1  UNL1        0.0080
      8  C          7.8630   -1.9670    0.8450 C.2     1  UNL1        0.0540
      9  C          7.5930   -1.3670   -1.8070 C.2     1  UNL1        0.0510
     10  C          8.2770   -2.8970   -0.1130 C.2     1  UNL1        0.1660
     11  C          8.1410   -2.5950   -1.4500 C.2     1  UNL1        0.1650
     12  O          8.8380   -4.1540   -0.0210 O.2     1  UNL1       -0.4540
     13  O          8.6260   -3.6830   -2.1580 O.2     1  UNL1       -0.4540
     14  C          9.1610   -4.6550   -1.2930 C.3     1  UNL1        0.4680
@<TRIPOS>BOND
     1    13    11    1
     2    13    14    1
     3     9    11    2
     4     9     7    1
     5    11    10    1
     6    14    12    1
     7     7     6    2
     8    10    12    1
     9    10     8    2
    10     6     8    1
    11     6     5    1
    12     3     2    1
    13     5     1    1
    14     2     1    1
    15     2     4    2
