@<TRIPOS>MOLECULE
/home/cewinharhar/GITHUB/reincatalyze/data/processed/docking_pred/2023-May-24-1506_sub9_nm5_bs15_s42_ex16_mel10_mts10000_k50_ec02_g099_lra3e-4_lrc3e-3/035d1107efb5fe3e99d2a33353f0da4e413613a6_ligand_9.pdbqt
 14 15 0 0 0
SMALL
GASTEIGER

@<TRIPOS>ATOM
      1  C          8.7230   -4.0150   -0.3250 C.3     1  UNL1        0.0800
      2  C          9.2790   -4.8840   -1.3990 C.2     1  UNL1        0.1300
      3  C          8.9120   -6.3220   -1.5080 C.3     1  UNL1        0.0870
      4  O         10.0580   -4.4380   -2.2260 O.2     1  UNL1       -0.3000
      5  C          8.3510   -2.6470   -0.8620 C.3     1  UNL1        0.0430
      6  C          7.4950   -1.9040    0.0810 C.2     1  UNL1       -0.0440
      7  C          7.3890   -2.2790    1.4250 C.2     1  UNL1        0.0080
      8  C          6.7800   -0.8140   -0.3600 C.2     1  UNL1        0.0540
      9  C          6.5700   -1.5440    2.2640 C.2     1  UNL1        0.0510
     10  C          5.9550   -0.0740    0.4910 C.2     1  UNL1        0.1660
     11  C          5.8490   -0.4420    1.8140 C.2     1  UNL1        0.1650
     12  O          5.1540    1.0320    0.2970 O.2     1  UNL1       -0.4540
     13  O          4.9770    0.4550    2.4110 O.2     1  UNL1       -0.4540
     14  C          4.5840    1.4600    1.5070 C.3     1  UNL1        0.4680
@<TRIPOS>BOND
     1     4     2    2
     2     3     2    1
     3     2     1    1
     4     5     1    1
     5     5     6    1
     6     8     6    2
     7     8    10    1
     8     6     7    1
     9    12    10    1
    10    12    14    1
    11    10    11    2
    12     7     9    2
    13    14    13    1
    14    11     9    1
    15    11    13    1
