@<TRIPOS>MOLECULE
/home/cewinharhar/GITHUB/reincatalyze/data/processed/docking_pred/2023-May-24-1506_sub9_nm5_bs15_s42_ex16_mel10_mts10000_k50_ec02_g099_lra3e-4_lrc3e-3/035d1107efb5fe3e99d2a33353f0da4e413613a6_ligand_9.pdbqt
 14 15 0 0 0
SMALL
GASTEIGER

@<TRIPOS>ATOM
      1  C          5.3780   -0.2600    2.1150 C.3     1  UNL1        0.0800
      2  C          4.4540    0.8920    1.9170 C.2     1  UNL1        0.1300
      3  C          4.6610    1.8810    0.8260 C.3     1  UNL1        0.0870
      4  O          3.4940    1.0570    2.6520 O.2     1  UNL1       -0.3000
      5  C          6.7800    0.0720    1.6410 C.3     1  UNL1        0.0430
      6  C          7.2210   -0.8340    0.5650 C.2     1  UNL1       -0.0440
      7  C          7.0370   -0.5130   -0.7840 C.2     1  UNL1        0.0080
      8  C          7.8340   -2.0240    0.8840 C.2     1  UNL1        0.0540
      9  C          7.4720   -1.4010   -1.7510 C.2     1  UNL1        0.0510
     10  C          8.2730   -2.9190   -0.0960 C.2     1  UNL1        0.1660
     11  C          8.0910   -2.6050   -1.4250 C.2     1  UNL1        0.1650
     12  O          8.8990   -4.1460   -0.0370 O.2     1  UNL1       -0.4540
     13  O          8.6140   -3.6560   -2.1610 O.2     1  UNL1       -0.4540
     14  C          9.2180   -4.6120   -1.3230 C.3     1  UNL1        0.4680
@<TRIPOS>BOND
     1    13    11    1
     2    13    14    1
     3     9    11    2
     4     9     7    1
     5    11    10    1
     6    14    12    1
     7     7     6    2
     8    10    12    1
     9    10     8    2
    10     6     8    1
    11     6     5    1
    12     3     2    1
    13     5     1    1
    14     2     1    1
    15     2     4    2
