@<TRIPOS>MOLECULE
/home/cewinharhar/GITHUB/reincatalyze/data/processed/docking_pred/2023-May-24-1506_sub9_nm5_bs15_s42_ex16_mel10_mts10000_k50_ec02_g099_lra3e-4_lrc3e-3/035d1107efb5fe3e99d2a33353f0da4e413613a6_ligand_9.pdbqt
 14 15 0 0 0
SMALL
GASTEIGER

@<TRIPOS>ATOM
      1  C          5.6520    0.2810    2.5210 C.3     1  UNL1        0.0800
      2  C          4.5090    1.0800    1.9970 C.2     1  UNL1        0.1300
      3  C          4.6130    1.8530    0.7300 C.3     1  UNL1        0.0870
      4  O          3.4470    1.1220    2.5960 O.2     1  UNL1       -0.3000
      5  C          5.7900   -1.0340    1.7800 C.3     1  UNL1        0.0430
      6  C          6.7990   -0.9540    0.7090 C.2     1  UNL1       -0.0440
      7  C          8.0550   -0.3780    0.9260 C.2     1  UNL1        0.0080
      8  C          6.5090   -1.4570   -0.5390 C.2     1  UNL1        0.0540
      9  C          8.9620   -0.3310   -0.1170 C.2     1  UNL1        0.0510
     10  C          7.4290   -1.4080   -1.5910 C.2     1  UNL1        0.1660
     11  C          8.6660   -0.8400   -1.3780 C.2     1  UNL1        0.1650
     12  O          7.3810   -1.8320   -2.9020 O.2     1  UNL1       -0.4540
     13  O          9.3590   -0.9290   -2.5750 O.2     1  UNL1       -0.4540
     14  C          8.6160   -1.6320   -3.5420 C.3     1  UNL1        0.4680
@<TRIPOS>BOND
     1    14    12    1
     2    14    13    1
     3    12    10    1
     4    13    11    1
     5    10    11    2
     6    10     8    1
     7    11     9    1
     8     8     6    2
     9     9     7    2
    10     6     7    1
    11     6     5    1
    12     3     2    1
    13     5     1    1
    14     2     1    1
    15     2     4    2
