@<TRIPOS>MOLECULE
/home/cewinharhar/GITHUB/reincatalyze/data/processed/docking_pred/2023-May-24-1506_sub9_nm5_bs15_s42_ex16_mel10_mts10000_k50_ec02_g099_lra3e-4_lrc3e-3/035d1107efb5fe3e99d2a33353f0da4e413613a6_ligand_9.pdbqt
 14 15 0 0 0
SMALL
GASTEIGER

@<TRIPOS>ATOM
      1  C          7.9930   -1.7530   -2.3210 C.3     1  UNL1        0.0800
      2  C          8.7210   -0.4580   -2.4330 C.2     1  UNL1        0.1300
      3  C          8.2020    0.6600   -3.2670 C.3     1  UNL1        0.0870
      4  O          9.7720   -0.2760   -1.8400 O.2     1  UNL1       -0.3000
      5  C          8.1430   -2.3500   -0.9360 C.3     1  UNL1        0.0430
      6  C          7.3080   -1.6490    0.0550 C.2     1  UNL1       -0.0440
      7  C          7.2320   -2.0790    1.3850 C.2     1  UNL1        0.0080
      8  C          6.5830   -0.5430   -0.3250 C.2     1  UNL1        0.0540
      9  C          6.4320   -1.3810    2.2710 C.2     1  UNL1        0.0510
     10  C          5.7760    0.1600    0.5750 C.2     1  UNL1        0.1660
     11  C          5.7000   -0.2630    1.8840 C.2     1  UNL1        0.1650
     12  O          4.9700    1.2710    0.4450 O.2     1  UNL1       -0.4540
     13  O          4.8410    0.6070    2.5370 O.2     1  UNL1       -0.4540
     14  C          4.4270    1.6480    1.6840 C.3     1  UNL1        0.4680
@<TRIPOS>BOND
     1     3     2    1
     2     2     1    1
     3     2     4    2
     4     1     5    1
     5     5     6    1
     6     8     6    2
     7     8    10    1
     8     6     7    1
     9    12    10    1
    10    12    14    1
    11    10    11    2
    12     7     9    2
    13    14    13    1
    14    11     9    1
    15    11    13    1
