MODEL 1
REMARK VINA RESULT:      -6.3      0.000      0.000
REMARK SMILES CC(=O)CCc1ccc2c(c1)OCO2
REMARK SMILES IDX 4 1 2 2 1 3 3 4 5 5 6 6 7 7 11 8 8 9 10 10 9 11 12 12 14 13
REMARK SMILES IDX 13 14
REMARK H PARENT
REMARK Flexibility Score: inf
ROOT
ATOM      1  C   UNL     1       5.378  -0.260   2.115  1.00  0.00     0.080 C 
ENDROOT
BRANCH   1   2
ATOM      2  C   UNL     1       4.454   0.892   1.917  1.00  0.00     0.130 C 
ATOM      3  C   UNL     1       4.661   1.881   0.826  1.00  0.00     0.087 C 
ATOM      4  O   UNL     1       3.494   1.057   2.652  1.00  0.00    -0.300 OA
ENDBRANCH   1   2
BRANCH   1   5
ATOM      5  C   UNL     1       6.780   0.072   1.641  1.00  0.00     0.043 C 
BRANCH   5   6
ATOM      6  C   UNL     1       7.221  -0.834   0.565  1.00  0.00    -0.044 A 
ATOM      7  C   UNL     1       7.037  -0.513  -0.784  1.00  0.00     0.008 A 
ATOM      8  C   UNL     1       7.834  -2.024   0.884  1.00  0.00     0.054 A 
ATOM      9  C   UNL     1       7.472  -1.401  -1.751  1.00  0.00     0.051 A 
ATOM     10  C   UNL     1       8.273  -2.919  -0.096  1.00  0.00     0.166 A 
ATOM     11  C   UNL     1       8.091  -2.605  -1.425  1.00  0.00     0.165 A 
ATOM     12  O   UNL     1       8.899  -4.146  -0.037  1.00  0.00    -0.454 OA
ATOM     13  O   UNL     1       8.614  -3.656  -2.161  1.00  0.00    -0.454 OA
ATOM     14  C   UNL     1       9.218  -4.612  -1.323  1.00  0.00     0.468 C 
ENDBRANCH   5   6
ENDBRANCH   1   5
TORSDOF 3
ENDMDL
MODEL 2
REMARK VINA RESULT:      -5.8      1.161      2.086
REMARK SMILES CC(=O)CCc1ccc2c(c1)OCO2
REMARK SMILES IDX 4 1 2 2 1 3 3 4 5 5 6 6 7 7 11 8 8 9 10 10 9 11 12 12 14 13
REMARK SMILES IDX 13 14
REMARK H PARENT
REMARK Flexibility Score: inf
ROOT
ATOM      1  C   UNL     1       6.344   0.539   2.136  1.00  0.00     0.080 C 
ENDROOT
BRANCH   1   2
ATOM      2  C   UNL     1       4.945   0.960   1.847  1.00  0.00     0.130 C 
ATOM      3  C   UNL     1       4.621   1.870   0.716  1.00  0.00     0.087 C 
ATOM      4  O   UNL     1       4.017   0.568   2.536  1.00  0.00    -0.300 OA
ENDBRANCH   1   2
BRANCH   1   5
ATOM      5  C   UNL     1       6.458  -0.970   2.221  1.00  0.00     0.043 C 
BRANCH   5   6
ATOM      6  C   UNL     1       7.120  -1.536   1.032  1.00  0.00    -0.044 A 
ATOM      7  C   UNL     1       7.784  -2.767   1.080  1.00  0.00     0.008 A 
ATOM      8  C   UNL     1       7.089  -0.847  -0.159  1.00  0.00     0.054 A 
ATOM      9  C   UNL     1       8.387  -3.249  -0.068  1.00  0.00     0.051 A 
ATOM     10  C   UNL     1       7.699  -1.339  -1.317  1.00  0.00     0.166 A 
ATOM     11  C   UNL     1       8.354  -2.550  -1.271  1.00  0.00     0.165 A 
ATOM     12  O   UNL     1       7.807  -0.852  -2.602  1.00  0.00    -0.454 OA
ATOM     13  O   UNL     1       8.854  -2.784  -2.542  1.00  0.00    -0.454 OA
ATOM     14  C   UNL     1       8.453  -1.776  -3.439  1.00  0.00     0.468 C 
ENDBRANCH   5   6
ENDBRANCH   1   5
TORSDOF 3
ENDMDL
MODEL 3
REMARK VINA RESULT:      -5.7      1.838      5.437
REMARK SMILES CC(=O)CCc1ccc2c(c1)OCO2
REMARK SMILES IDX 4 1 2 2 1 3 3 4 5 5 6 6 7 7 11 8 8 9 10 10 9 11 12 12 14 13
REMARK SMILES IDX 13 14
REMARK H PARENT
REMARK Flexibility Score: inf
ROOT
ATOM      1  C   UNL     1       7.993  -1.753  -2.321  1.00  0.00     0.080 C 
ENDROOT
BRANCH   1   2
ATOM      2  C   UNL     1       8.721  -0.458  -2.433  1.00  0.00     0.130 C 
ATOM      3  C   UNL     1       8.202   0.660  -3.267  1.00  0.00     0.087 C 
ATOM      4  O   UNL     1       9.772  -0.276  -1.840  1.00  0.00    -0.300 OA
ENDBRANCH   1   2
BRANCH   1   5
ATOM      5  C   UNL     1       8.143  -2.350  -0.936  1.00  0.00     0.043 C 
BRANCH   5   6
ATOM      6  C   UNL     1       7.308  -1.649   0.055  1.00  0.00    -0.044 A 
ATOM      7  C   UNL     1       7.232  -2.079   1.385  1.00  0.00     0.008 A 
ATOM      8  C   UNL     1       6.583  -0.543  -0.325  1.00  0.00     0.054 A 
ATOM      9  C   UNL     1       6.432  -1.381   2.271  1.00  0.00     0.051 A 
ATOM     10  C   UNL     1       5.776   0.160   0.575  1.00  0.00     0.166 A 
ATOM     11  C   UNL     1       5.700  -0.263   1.884  1.00  0.00     0.165 A 
ATOM     12  O   UNL     1       4.970   1.271   0.445  1.00  0.00    -0.454 OA
ATOM     13  O   UNL     1       4.841   0.607   2.537  1.00  0.00    -0.454 OA
ATOM     14  C   UNL     1       4.427   1.648   1.684  1.00  0.00     0.468 C 
ENDBRANCH   5   6
ENDBRANCH   1   5
TORSDOF 3
ENDMDL
MODEL 4
REMARK VINA RESULT:      -5.6      1.855      2.139
REMARK SMILES CC(=O)CCc1ccc2c(c1)OCO2
REMARK SMILES IDX 4 1 2 2 1 3 3 4 5 5 6 6 7 7 11 8 8 9 10 10 9 11 12 12 14 13
REMARK SMILES IDX 13 14
REMARK H PARENT
REMARK Flexibility Score: inf
ROOT
ATOM      1  C   UNL     1       5.652   0.281   2.521  1.00  0.00     0.080 C 
ENDROOT
BRANCH   1   2
ATOM      2  C   UNL     1       4.509   1.080   1.997  1.00  0.00     0.130 C 
ATOM      3  C   UNL     1       4.613   1.853   0.730  1.00  0.00     0.087 C 
ATOM      4  O   UNL     1       3.447   1.122   2.596  1.00  0.00    -0.300 OA
ENDBRANCH   1   2
BRANCH   1   5
ATOM      5  C   UNL     1       5.790  -1.034   1.780  1.00  0.00     0.043 C 
BRANCH   5   6
ATOM      6  C   UNL     1       6.799  -0.954   0.709  1.00  0.00    -0.044 A 
ATOM      7  C   UNL     1       8.055  -0.378   0.926  1.00  0.00     0.008 A 
ATOM      8  C   UNL     1       6.509  -1.457  -0.539  1.00  0.00     0.054 A 
ATOM      9  C   UNL     1       8.962  -0.331  -0.117  1.00  0.00     0.051 A 
ATOM     10  C   UNL     1       7.429  -1.408  -1.591  1.00  0.00     0.166 A 
ATOM     11  C   UNL     1       8.666  -0.840  -1.378  1.00  0.00     0.165 A 
ATOM     12  O   UNL     1       7.381  -1.832  -2.902  1.00  0.00    -0.454 OA
ATOM     13  O   UNL     1       9.359  -0.929  -2.575  1.00  0.00    -0.454 OA
ATOM     14  C   UNL     1       8.616  -1.632  -3.542  1.00  0.00     0.468 C 
ENDBRANCH   5   6
ENDBRANCH   1   5
TORSDOF 3
ENDMDL
MODEL 5
REMARK VINA RESULT:      -5.6      1.368      6.129
REMARK SMILES CC(=O)CCc1ccc2c(c1)OCO2
REMARK SMILES IDX 4 1 2 2 1 3 3 4 5 5 6 6 7 7 11 8 8 9 10 10 9 11 12 12 14 13
REMARK SMILES IDX 13 14
REMARK H PARENT
REMARK Flexibility Score: inf
ROOT
ATOM      1  C   UNL     1       8.723  -4.015  -0.325  1.00  0.00     0.080 C 
ENDROOT
BRANCH   1   2
ATOM      2  C   UNL     1       9.279  -4.884  -1.399  1.00  0.00     0.130 C 
ATOM      3  C   UNL     1       8.912  -6.322  -1.508  1.00  0.00     0.087 C 
ATOM      4  O   UNL     1      10.058  -4.438  -2.226  1.00  0.00    -0.300 OA
ENDBRANCH   1   2
BRANCH   1   5
ATOM      5  C   UNL     1       8.351  -2.647  -0.862  1.00  0.00     0.043 C 
BRANCH   5   6
ATOM      6  C   UNL     1       7.495  -1.904   0.081  1.00  0.00    -0.044 A 
ATOM      7  C   UNL     1       7.389  -2.279   1.425  1.00  0.00     0.008 A 
ATOM      8  C   UNL     1       6.780  -0.814  -0.360  1.00  0.00     0.054 A 
ATOM      9  C   UNL     1       6.570  -1.544   2.264  1.00  0.00     0.051 A 
ATOM     10  C   UNL     1       5.955  -0.074   0.491  1.00  0.00     0.166 A 
ATOM     11  C   UNL     1       5.849  -0.442   1.814  1.00  0.00     0.165 A 
ATOM     12  O   UNL     1       5.154   1.032   0.297  1.00  0.00    -0.454 OA
ATOM     13  O   UNL     1       4.977   0.455   2.411  1.00  0.00    -0.454 OA
ATOM     14  C   UNL     1       4.584   1.460   1.507  1.00  0.00     0.468 C 
ENDBRANCH   5   6
ENDBRANCH   1   5
TORSDOF 3
ENDMDL
