@<TRIPOS>MOLECULE
/home/cewinharhar/GITHUB/reincatalyze/data/processed/docking_pred/2023-May-24-1506_sub9_nm5_bs15_s42_ex16_mel10_mts10000_k50_ec02_g099_lra3e-4_lrc3e-3/035d1107efb5fe3e99d2a33353f0da4e413613a6_ligand_9.pdbqt
 14 15 0 0 0
SMALL
GASTEIGER

@<TRIPOS>ATOM
      1  C          6.3440    0.5390    2.1360 C.3     1  UNL1        0.0800
      2  C          4.9450    0.9600    1.8470 C.2     1  UNL1        0.1300
      3  C          4.6210    1.8700    0.7160 C.3     1  UNL1        0.0870
      4  O          4.0170    0.5680    2.5360 O.2     1  UNL1       -0.3000
      5  C          6.4580   -0.9700    2.2210 C.3     1  UNL1        0.0430
      6  C          7.1200   -1.5360    1.0320 C.2     1  UNL1       -0.0440
      7  C          7.7840   -2.7670    1.0800 C.2     1  UNL1        0.0080
      8  C          7.0890   -0.8470   -0.1590 C.2     1  UNL1        0.0540
      9  C          8.3870   -3.2490   -0.0680 C.2     1  UNL1        0.0510
     10  C          7.6990   -1.3390   -1.3170 C.2     1  UNL1        0.1660
     11  C          8.3540   -2.5500   -1.2710 C.2     1  UNL1        0.1650
     12  O          7.8070   -0.8520   -2.6020 O.2     1  UNL1       -0.4540
     13  O          8.8540   -2.7840   -2.5420 O.2     1  UNL1       -0.4540
     14  C          8.4530   -1.7760   -3.4390 C.3     1  UNL1        0.4680
@<TRIPOS>BOND
     1    14    12    1
     2    14    13    1
     3    12    10    1
     4    13    11    1
     5    10    11    2
     6    10     8    1
     7    11     9    1
     8     8     6    2
     9     9     7    2
    10     3     2    1
    11     6     7    1
    12     6     5    1
    13     2     1    1
    14     2     4    2
    15     1     5    1
