MODEL 1
REMARK VINA RESULT:      -7.6      0.000      0.000
REMARK SMILES CC(=O)CCc1ccc2c(c1)OCO2
REMARK SMILES IDX 4 1 2 2 1 3 3 4 5 5 6 6 7 7 11 8 8 9 10 10 9 11 12 12 14 13
REMARK SMILES IDX 13 14
REMARK H PARENT
REMARK Flexibility Score: inf
ROOT
ATOM      1  C   UNL     1       5.517   1.915   1.265  1.00  0.00     0.080 C 
ENDROOT
BRANCH   1   2
ATOM      2  C   UNL     1       5.073   0.699   2.002  1.00  0.00     0.130 C 
ATOM      3  C   UNL     1       5.964  -0.479   2.173  1.00  0.00     0.087 C 
ATOM      4  O   UNL     1       3.956   0.635   2.490  1.00  0.00    -0.300 OA
ENDBRANCH   1   2
BRANCH   1   5
ATOM      5  C   UNL     1       5.391   1.727  -0.234  1.00  0.00     0.043 C 
BRANCH   5   6
ATOM      6  C   UNL     1       6.560   1.027  -0.796  1.00  0.00    -0.044 A 
ATOM      7  C   UNL     1       7.866   1.465  -0.549  1.00  0.00     0.008 A 
ATOM      8  C   UNL     1       6.374  -0.087  -1.582  1.00  0.00     0.054 A 
ATOM      9  C   UNL     1       8.924   0.767  -1.103  1.00  0.00     0.051 A 
ATOM     10  C   UNL     1       7.447  -0.790  -2.139  1.00  0.00     0.166 A 
ATOM     11  C   UNL     1       8.732  -0.359  -1.898  1.00  0.00     0.165 A 
ATOM     12  O   UNL     1       7.522  -1.908  -2.943  1.00  0.00    -0.454 OA
ATOM     13  O   UNL     1       9.579  -1.231  -2.564  1.00  0.00    -0.454 OA
ATOM     14  C   UNL     1       8.858  -2.280  -3.165  1.00  0.00     0.468 C 
ENDBRANCH   5   6
ENDBRANCH   1   5
TORSDOF 3
ENDMDL
MODEL 2
REMARK VINA RESULT:      -7.4      1.841      2.295
REMARK SMILES CC(=O)CCc1ccc2c(c1)OCO2
REMARK SMILES IDX 4 1 2 2 1 3 3 4 5 5 6 6 7 7 11 8 8 9 10 10 9 11 12 12 14 13
REMARK SMILES IDX 13 14
REMARK H PARENT
REMARK Flexibility Score: inf
ROOT
ATOM      1  C   UNL     1       5.688   1.426  -0.259  1.00  0.00     0.080 C 
ENDROOT
BRANCH   1   2
ATOM      2  C   UNL     1       5.060   1.267   1.083  1.00  0.00     0.130 C 
ATOM      3  C   UNL     1       5.393   0.120   1.969  1.00  0.00     0.087 C 
ATOM      4  O   UNL     1       4.249   2.080   1.495  1.00  0.00    -0.300 OA
ENDBRANCH   1   2
BRANCH   1   5
ATOM      5  C   UNL     1       7.182   1.177  -0.201  1.00  0.00     0.043 C 
BRANCH   5   6
ATOM      6  C   UNL     1       7.549  -0.095  -0.849  1.00  0.00    -0.044 A 
ATOM      7  C   UNL     1       7.565  -0.230  -2.242  1.00  0.00     0.008 A 
ATOM      8  C   UNL     1       7.890  -1.181  -0.076  1.00  0.00     0.054 A 
ATOM      9  C   UNL     1       7.919  -1.447  -2.794  1.00  0.00     0.051 A 
ATOM     10  C   UNL     1       8.248  -2.410  -0.639  1.00  0.00     0.166 A 
ATOM     11  C   UNL     1       8.262  -2.544  -2.010  1.00  0.00     0.165 A 
ATOM     12  O   UNL     1       8.620  -3.620  -0.094  1.00  0.00    -0.454 OA
ATOM     13  O   UNL     1       8.648  -3.847  -2.281  1.00  0.00    -0.454 OA
ATOM     14  C   UNL     1       8.973  -4.538  -1.098  1.00  0.00     0.468 C 
ENDBRANCH   5   6
ENDBRANCH   1   5
TORSDOF 3
ENDMDL
MODEL 3
REMARK VINA RESULT:      -7.2      2.052      2.606
REMARK SMILES CC(=O)CCc1ccc2c(c1)OCO2
REMARK SMILES IDX 4 1 2 2 1 3 3 4 5 5 6 6 7 7 11 8 8 9 10 10 9 11 12 12 14 13
REMARK SMILES IDX 13 14
REMARK H PARENT
REMARK Flexibility Score: inf
ROOT
ATOM      1  C   UNL     1       5.487   0.011   2.022  1.00  0.00     0.080 C 
ENDROOT
BRANCH   1   2
ATOM      2  C   UNL     1       4.589   1.163   1.731  1.00  0.00     0.130 C 
ATOM      3  C   UNL     1       4.875   2.117   0.626  1.00  0.00     0.087 C 
ATOM      4  O   UNL     1       3.585   1.358   2.397  1.00  0.00    -0.300 OA
ENDBRANCH   1   2
BRANCH   1   5
ATOM      5  C   UNL     1       6.899   0.279   1.540  1.00  0.00     0.043 C 
BRANCH   5   6
ATOM      6  C   UNL     1       7.308  -0.671   0.490  1.00  0.00    -0.044 A 
ATOM      7  C   UNL     1       7.171  -0.365  -0.869  1.00  0.00     0.008 A 
ATOM      8  C   UNL     1       7.840  -1.890   0.843  1.00  0.00     0.054 A 
ATOM      9  C   UNL     1       7.573  -1.295  -1.810  1.00  0.00     0.051 A 
ATOM     10  C   UNL     1       8.245  -2.827  -0.113  1.00  0.00     0.166 A 
ATOM     11  C   UNL     1       8.110  -2.527  -1.450  1.00  0.00     0.165 A 
ATOM     12  O   UNL     1       8.794  -4.088  -0.018  1.00  0.00    -0.454 OA
ATOM     13  O   UNL     1       8.584  -3.622  -2.156  1.00  0.00    -0.454 OA
ATOM     14  C   UNL     1       9.111  -4.597  -1.288  1.00  0.00     0.468 C 
ENDBRANCH   5   6
ENDBRANCH   1   5
TORSDOF 3
ENDMDL
MODEL 4
REMARK VINA RESULT:      -7.1      1.260      1.473
REMARK SMILES CC(=O)CCc1ccc2c(c1)OCO2
REMARK SMILES IDX 4 1 2 2 1 3 3 4 5 5 6 6 7 7 11 8 8 9 10 10 9 11 12 12 14 13
REMARK SMILES IDX 13 14
REMARK H PARENT
REMARK Flexibility Score: inf
ROOT
ATOM      1  C   UNL     1       6.381   1.174   0.962  1.00  0.00     0.080 C 
ENDROOT
BRANCH   1   2
ATOM      2  C   UNL     1       5.640   0.351   1.958  1.00  0.00     0.130 C 
ATOM      3  C   UNL     1       6.232  -0.876   2.553  1.00  0.00     0.087 C 
ATOM      4  O   UNL     1       4.515   0.663   2.316  1.00  0.00    -0.300 OA
ENDBRANCH   1   2
BRANCH   1   5
ATOM      5  C   UNL     1       5.875   0.924  -0.444  1.00  0.00     0.043 C 
BRANCH   5   6
ATOM      6  C   UNL     1       6.814   0.098  -1.224  1.00  0.00    -0.044 A 
ATOM      7  C   UNL     1       7.473   0.603  -2.351  1.00  0.00     0.008 A 
ATOM      8  C   UNL     1       7.058  -1.202  -0.843  1.00  0.00     0.054 A 
ATOM      9  C   UNL     1       8.344  -0.218  -3.043  1.00  0.00     0.051 A 
ATOM     10  C   UNL     1       7.940  -2.028  -1.546  1.00  0.00     0.166 A 
ATOM     11  C   UNL     1       8.588  -1.532  -2.656  1.00  0.00     0.165 A 
ATOM     12  O   UNL     1       8.344  -3.334  -1.372  1.00  0.00    -0.454 OA
ATOM     13  O   UNL     1       9.386  -2.555  -3.144  1.00  0.00    -0.454 OA
ATOM     14  C   UNL     1       9.331  -3.686  -2.308  1.00  0.00     0.468 C 
ENDBRANCH   5   6
ENDBRANCH   1   5
TORSDOF 3
ENDMDL
MODEL 5
REMARK VINA RESULT:      -6.8      1.982      2.513
REMARK SMILES CC(=O)CCc1ccc2c(c1)OCO2
REMARK SMILES IDX 4 1 2 2 1 3 3 4 5 5 6 6 7 7 11 8 8 9 10 10 9 11 12 12 14 13
REMARK SMILES IDX 13 14
REMARK H PARENT
REMARK Flexibility Score: inf
ROOT
ATOM      1  C   UNL     1       6.951   1.098   1.199  1.00  0.00     0.080 C 
ENDROOT
BRANCH   1   2
ATOM      2  C   UNL     1       5.481   1.183   1.418  1.00  0.00     0.130 C 
ATOM      3  C   UNL     1       4.634   2.148   0.667  1.00  0.00     0.087 C 
ATOM      4  O   UNL     1       4.925   0.458   2.227  1.00  0.00    -0.300 OA
ENDBRANCH   1   2
BRANCH   1   5
ATOM      5  C   UNL     1       7.294   1.182  -0.276  1.00  0.00     0.043 C 
BRANCH   5   6
ATOM      6  C   UNL     1       7.648  -0.137  -0.831  1.00  0.00    -0.044 A 
ATOM      7  C   UNL     1       7.782  -0.340  -2.209  1.00  0.00     0.008 A 
ATOM      8  C   UNL     1       7.855  -1.201   0.018  1.00  0.00     0.054 A 
ATOM      9  C   UNL     1       8.117  -1.599  -2.672  1.00  0.00     0.051 A 
ATOM     10  C   UNL     1       8.194  -2.472  -0.455  1.00  0.00     0.166 A 
ATOM     11  C   UNL     1       8.325  -2.673  -1.811  1.00  0.00     0.165 A 
ATOM     12  O   UNL     1       8.447  -3.672   0.174  1.00  0.00    -0.454 OA
ATOM     13  O   UNL     1       8.661  -4.006  -1.988  1.00  0.00    -0.454 OA
ATOM     14  C   UNL     1       8.837  -4.654  -0.751  1.00  0.00     0.468 C 
ENDBRANCH   5   6
ENDBRANCH   1   5
TORSDOF 3
ENDMDL
