@<TRIPOS>MOLECULE
/home/cewinharhar/GITHUB/reincatalyze/data/processed/docking_pred/2023-May-24-1506_sub9_nm5_bs15_s42_ex16_mel10_mts10000_k50_ec02_g099_lra3e-4_lrc3e-3/04093ca98f76925b46d8e425639cb467aa73d951_ligand_9.pdbqt
 14 15 0 0 0
SMALL
GASTEIGER

@<TRIPOS>ATOM
      1  C          6.9510    1.0980    1.1990 C.3     1  UNL1        0.0800
      2  C          5.4810    1.1830    1.4180 C.2     1  UNL1        0.1300
      3  C          4.6340    2.1480    0.6670 C.3     1  UNL1        0.0870
      4  O          4.9250    0.4580    2.2270 O.2     1  UNL1       -0.3000
      5  C          7.2940    1.1820   -0.2760 C.3     1  UNL1        0.0430
      6  C          7.6480   -0.1370   -0.8310 C.2     1  UNL1       -0.0440
      7  C          7.7820   -0.3400   -2.2090 C.2     1  UNL1        0.0080
      8  C          7.8550   -1.2010    0.0180 C.2     1  UNL1        0.0540
      9  C          8.1170   -1.5990   -2.6720 C.2     1  UNL1        0.0510
     10  C          8.1940   -2.4720   -0.4550 C.2     1  UNL1        0.1660
     11  C          8.3250   -2.6730   -1.8110 C.2     1  UNL1        0.1650
     12  O          8.4470   -3.6720    0.1740 O.2     1  UNL1       -0.4540
     13  O          8.6610   -4.0060   -1.9880 O.2     1  UNL1       -0.4540
     14  C          8.8370   -4.6540   -0.7510 C.3     1  UNL1        0.4680
@<TRIPOS>BOND
     1     9     7    1
     2     9    11    2
     3     7     6    2
     4    13    11    1
     5    13    14    1
     6    11    10    1
     7     6     5    1
     8     6     8    1
     9    14    12    1
    10    10     8    2
    11    10    12    1
    12     5     1    1
    13     3     2    1
    14     1     2    1
    15     2     4    2
