@<TRIPOS>MOLECULE
/home/cewinharhar/GITHUB/reincatalyze/data/processed/docking_pred/2023-May-24-1506_sub9_nm5_bs15_s42_ex16_mel10_mts10000_k50_ec02_g099_lra3e-4_lrc3e-3/0493ae4577fb245076a56c9e7bbbfc493763ce5a_ligand_9.pdbqt
 14 15 0 0 0
SMALL
GASTEIGER

@<TRIPOS>ATOM
      1  C          6.3540    1.2080    0.9380 C.3     1  UNL1        0.0800
      2  C          5.6550    0.3680    1.9500 C.2     1  UNL1        0.1300
      3  C          6.2860   -0.8530    2.5210 C.3     1  UNL1        0.0870
      4  O          4.5370    0.6590    2.3420 O.2     1  UNL1       -0.3000
      5  C          5.8420    0.9240   -0.4610 C.3     1  UNL1        0.0430
      6  C          6.7950    0.1110   -1.2360 C.2     1  UNL1       -0.0440
      7  C          7.4840    0.6380   -2.3350 C.2     1  UNL1        0.0080
      8  C          7.0230   -1.1990   -0.8800 C.2     1  UNL1        0.0540
      9  C          8.3670   -0.1730   -3.0250 C.2     1  UNL1        0.0510
     10  C          7.9170   -2.0140   -1.5800 C.2     1  UNL1        0.1660
     11  C          8.5950   -1.4970   -2.6620 C.2     1  UNL1        0.1650
     12  O          8.3110   -3.3260   -1.4260 O.2     1  UNL1       -0.4540
     13  O          9.3990   -2.5120   -3.1540 O.2     1  UNL1       -0.4540
     14  C          9.3180   -3.6620   -2.3460 C.3     1  UNL1        0.4680
@<TRIPOS>BOND
     1    13    11    1
     2    13    14    1
     3     9    11    2
     4     9     7    1
     5    11    10    1
     6    14    12    1
     7     7     6    2
     8    10    12    1
     9    10     8    2
    10     6     8    1
    11     6     5    1
    12     5     1    1
    13     1     2    1
    14     2     4    2
    15     2     3    1
