@<TRIPOS>MOLECULE
/home/cewinharhar/GITHUB/reincatalyze/data/processed/docking_pred/2023-May-24-1506_sub9_nm5_bs15_s42_ex16_mel10_mts10000_k50_ec02_g099_lra3e-4_lrc3e-3/0493ae4577fb245076a56c9e7bbbfc493763ce5a_ligand_9.pdbqt
 14 15 0 0 0
SMALL
GASTEIGER

@<TRIPOS>ATOM
      1  C          5.5790   -0.0030    1.9340 C.3     1  UNL1        0.0800
      2  C          4.6880    1.1490    1.6220 C.2     1  UNL1        0.1300
      3  C          4.9900    2.0900    0.5100 C.3     1  UNL1        0.0870
      4  O          3.6770    1.3550    2.2740 O.2     1  UNL1       -0.3000
      5  C          6.9920    0.2450    1.4440 C.3     1  UNL1        0.0430
      6  C          7.3920   -0.7300    0.4140 C.2     1  UNL1       -0.0440
      7  C          7.2820   -0.4400   -0.9510 C.2     1  UNL1        0.0080
      8  C          7.8890   -1.9560    0.7910 C.2     1  UNL1        0.0540
      9  C          7.6740   -1.3940   -1.8730 C.2     1  UNL1        0.0510
     10  C          8.2840   -2.9170   -0.1450 C.2     1  UNL1        0.1660
     11  C          8.1750   -2.6330   -1.4880 C.2     1  UNL1        0.1650
     12  O          8.8000   -4.1900   -0.0240 O.2     1  UNL1       -0.4540
     13  O          8.6330   -3.7490   -2.1710 O.2     1  UNL1       -0.4540
     14  C          9.1230   -4.7240   -1.2820 C.3     1  UNL1        0.4680
@<TRIPOS>BOND
     1    13    11    1
     2    13    14    1
     3     9    11    2
     4     9     7    1
     5    11    10    1
     6    14    12    1
     7     7     6    2
     8    10    12    1
     9    10     8    2
    10     6     8    1
    11     6     5    1
    12     3     2    1
    13     5     1    1
    14     2     1    1
    15     2     4    2
