MODEL 1
REMARK VINA RESULT:      -7.6      0.000      0.000
REMARK SMILES CC(=O)CCc1ccc2c(c1)OCO2
REMARK SMILES IDX 4 1 2 2 1 3 3 4 5 5 6 6 7 7 11 8 8 9 10 10 9 11 12 12 14 13
REMARK SMILES IDX 13 14
REMARK H PARENT
REMARK Flexibility Score: inf
ROOT
ATOM      1  C   UNL     1       5.546   1.907   1.279  1.00  0.00     0.080 C 
ENDROOT
BRANCH   1   2
ATOM      2  C   UNL     1       5.113   0.688   2.016  1.00  0.00     0.130 C 
ATOM      3  C   UNL     1       6.018  -0.479   2.194  1.00  0.00     0.087 C 
ATOM      4  O   UNL     1       3.994   0.611   2.497  1.00  0.00    -0.300 OA
ENDBRANCH   1   2
BRANCH   1   5
ATOM      5  C   UNL     1       5.413   1.721  -0.220  1.00  0.00     0.043 C 
BRANCH   5   6
ATOM      6  C   UNL     1       6.578   1.019  -0.788  1.00  0.00    -0.044 A 
ATOM      7  C   UNL     1       7.886   1.450  -0.541  1.00  0.00     0.008 A 
ATOM      8  C   UNL     1       6.386  -0.090  -1.581  1.00  0.00     0.054 A 
ATOM      9  C   UNL     1       8.940   0.751  -1.101  1.00  0.00     0.051 A 
ATOM     10  C   UNL     1       7.455  -0.793  -2.144  1.00  0.00     0.166 A 
ATOM     11  C   UNL     1       8.742  -0.369  -1.902  1.00  0.00     0.165 A 
ATOM     12  O   UNL     1       7.524  -1.906  -2.955  1.00  0.00    -0.454 OA
ATOM     13  O   UNL     1       9.585  -1.240  -2.575  1.00  0.00    -0.454 OA
ATOM     14  C   UNL     1       8.858  -2.283  -3.181  1.00  0.00     0.468 C 
ENDBRANCH   5   6
ENDBRANCH   1   5
TORSDOF 3
ENDMDL
MODEL 2
REMARK VINA RESULT:      -7.4      1.896      2.375
REMARK SMILES CC(=O)CCc1ccc2c(c1)OCO2
REMARK SMILES IDX 4 1 2 2 1 3 3 4 5 5 6 6 7 7 11 8 8 9 10 10 9 11 12 12 14 13
REMARK SMILES IDX 13 14
REMARK H PARENT
REMARK Flexibility Score: inf
ROOT
ATOM      1  C   UNL     1       5.744   1.375  -0.327  1.00  0.00     0.080 C 
ENDROOT
BRANCH   1   2
ATOM      2  C   UNL     1       5.128   1.285   1.026  1.00  0.00     0.130 C 
ATOM      3  C   UNL     1       5.413   0.147   1.940  1.00  0.00     0.087 C 
ATOM      4  O   UNL     1       4.365   2.150   1.426  1.00  0.00    -0.300 OA
ENDBRANCH   1   2
BRANCH   1   5
ATOM      5  C   UNL     1       7.237   1.116  -0.270  1.00  0.00     0.043 C 
BRANCH   5   6
ATOM      6  C   UNL     1       7.592  -0.173  -0.890  1.00  0.00    -0.044 A 
ATOM      7  C   UNL     1       7.616  -0.337  -2.280  1.00  0.00     0.008 A 
ATOM      8  C   UNL     1       7.912  -1.248  -0.092  1.00  0.00     0.054 A 
ATOM      9  C   UNL     1       7.958  -1.570  -2.804  1.00  0.00     0.051 A 
ATOM     10  C   UNL     1       8.257  -2.493  -0.627  1.00  0.00     0.166 A 
ATOM     11  C   UNL     1       8.280  -2.655  -1.995  1.00  0.00     0.165 A 
ATOM     12  O   UNL     1       8.609  -3.697  -0.055  1.00  0.00    -0.454 OA
ATOM     13  O   UNL     1       8.650  -3.968  -2.237  1.00  0.00    -0.454 OA
ATOM     14  C   UNL     1       8.956  -4.639  -1.037  1.00  0.00     0.468 C 
ENDBRANCH   5   6
ENDBRANCH   1   5
TORSDOF 3
ENDMDL
MODEL 3
REMARK VINA RESULT:      -7.1      2.107      2.645
REMARK SMILES CC(=O)CCc1ccc2c(c1)OCO2
REMARK SMILES IDX 4 1 2 2 1 3 3 4 5 5 6 6 7 7 11 8 8 9 10 10 9 11 12 12 14 13
REMARK SMILES IDX 13 14
REMARK H PARENT
REMARK Flexibility Score: inf
ROOT
ATOM      1  C   UNL     1       5.579  -0.003   1.934  1.00  0.00     0.080 C 
ENDROOT
BRANCH   1   2
ATOM      2  C   UNL     1       4.688   1.149   1.622  1.00  0.00     0.130 C 
ATOM      3  C   UNL     1       4.990   2.090   0.510  1.00  0.00     0.087 C 
ATOM      4  O   UNL     1       3.677   1.355   2.274  1.00  0.00    -0.300 OA
ENDBRANCH   1   2
BRANCH   1   5
ATOM      5  C   UNL     1       6.992   0.245   1.444  1.00  0.00     0.043 C 
BRANCH   5   6
ATOM      6  C   UNL     1       7.392  -0.730   0.414  1.00  0.00    -0.044 A 
ATOM      7  C   UNL     1       7.282  -0.440  -0.951  1.00  0.00     0.008 A 
ATOM      8  C   UNL     1       7.889  -1.956   0.791  1.00  0.00     0.054 A 
ATOM      9  C   UNL     1       7.674  -1.394  -1.873  1.00  0.00     0.051 A 
ATOM     10  C   UNL     1       8.284  -2.917  -0.145  1.00  0.00     0.166 A 
ATOM     11  C   UNL     1       8.175  -2.633  -1.488  1.00  0.00     0.165 A 
ATOM     12  O   UNL     1       8.800  -4.190  -0.024  1.00  0.00    -0.454 OA
ATOM     13  O   UNL     1       8.633  -3.749  -2.171  1.00  0.00    -0.454 OA
ATOM     14  C   UNL     1       9.123  -4.724  -1.282  1.00  0.00     0.468 C 
ENDBRANCH   5   6
ENDBRANCH   1   5
TORSDOF 3
ENDMDL
MODEL 4
REMARK VINA RESULT:      -7.1      1.240      1.438
REMARK SMILES CC(=O)CCc1ccc2c(c1)OCO2
REMARK SMILES IDX 4 1 2 2 1 3 3 4 5 5 6 6 7 7 11 8 8 9 10 10 9 11 12 12 14 13
REMARK SMILES IDX 13 14
REMARK H PARENT
REMARK Flexibility Score: inf
ROOT
ATOM      1  C   UNL     1       6.354   1.208   0.938  1.00  0.00     0.080 C 
ENDROOT
BRANCH   1   2
ATOM      2  C   UNL     1       5.655   0.368   1.950  1.00  0.00     0.130 C 
ATOM      3  C   UNL     1       6.286  -0.853   2.521  1.00  0.00     0.087 C 
ATOM      4  O   UNL     1       4.537   0.659   2.342  1.00  0.00    -0.300 OA
ENDBRANCH   1   2
BRANCH   1   5
ATOM      5  C   UNL     1       5.842   0.924  -0.461  1.00  0.00     0.043 C 
BRANCH   5   6
ATOM      6  C   UNL     1       6.795   0.111  -1.236  1.00  0.00    -0.044 A 
ATOM      7  C   UNL     1       7.484   0.638  -2.335  1.00  0.00     0.008 A 
ATOM      8  C   UNL     1       7.023  -1.199  -0.880  1.00  0.00     0.054 A 
ATOM      9  C   UNL     1       8.367  -0.173  -3.025  1.00  0.00     0.051 A 
ATOM     10  C   UNL     1       7.917  -2.014  -1.580  1.00  0.00     0.166 A 
ATOM     11  C   UNL     1       8.595  -1.497  -2.662  1.00  0.00     0.165 A 
ATOM     12  O   UNL     1       8.311  -3.326  -1.426  1.00  0.00    -0.454 OA
ATOM     13  O   UNL     1       9.399  -2.512  -3.154  1.00  0.00    -0.454 OA
ATOM     14  C   UNL     1       9.318  -3.662  -2.346  1.00  0.00     0.468 C 
ENDBRANCH   5   6
ENDBRANCH   1   5
TORSDOF 3
ENDMDL
MODEL 5
REMARK VINA RESULT:      -6.8      1.971      2.606
REMARK SMILES CC(=O)CCc1ccc2c(c1)OCO2
REMARK SMILES IDX 4 1 2 2 1 3 3 4 5 5 6 6 7 7 11 8 8 9 10 10 9 11 12 12 14 13
REMARK SMILES IDX 13 14
REMARK H PARENT
REMARK Flexibility Score: inf
ROOT
ATOM      1  C   UNL     1       6.529   0.440   1.059  1.00  0.00     0.080 C 
ENDROOT
BRANCH   1   2
ATOM      2  C   UNL     1       5.217   1.074   1.369  1.00  0.00     0.130 C 
ATOM      3  C   UNL     1       4.645   2.145   0.509  1.00  0.00     0.087 C 
ATOM      4  O   UNL     1       4.571   0.732   2.346  1.00  0.00    -0.300 OA
ENDBRANCH   1   2
BRANCH   1   5
ATOM      5  C   UNL     1       6.907   0.642  -0.395  1.00  0.00     0.043 C 
BRANCH   5   6
ATOM      6  C   UNL     1       7.484  -0.580  -0.984  1.00  0.00    -0.044 A 
ATOM      7  C   UNL     1       7.785  -0.664  -2.349  1.00  0.00     0.008 A 
ATOM      8  C   UNL     1       7.739  -1.669  -0.183  1.00  0.00     0.054 A 
ATOM      9  C   UNL     1       8.326  -1.836  -2.845  1.00  0.00     0.051 A 
ATOM     10  C   UNL     1       8.286  -2.852  -0.690  1.00  0.00     0.166 A 
ATOM     11  C   UNL     1       8.582  -2.936  -2.032  1.00  0.00     0.165 A 
ATOM     12  O   UNL     1       8.626  -4.055  -0.108  1.00  0.00    -0.454 OA
ATOM     13  O   UNL     1       9.104  -4.202  -2.249  1.00  0.00    -0.454 OA
ATOM     14  C   UNL     1       9.234  -4.912  -1.040  1.00  0.00     0.468 C 
ENDBRANCH   5   6
ENDBRANCH   1   5
TORSDOF 3
ENDMDL
