@<TRIPOS>MOLECULE
/home/cewinharhar/GITHUB/reincatalyze/data/processed/docking_pred/2023-May-24-1506_sub9_nm5_bs15_s42_ex16_mel10_mts10000_k50_ec02_g099_lra3e-4_lrc3e-3/0493ae4577fb245076a56c9e7bbbfc493763ce5a_ligand_9.pdbqt
 14 15 0 0 0
SMALL
GASTEIGER

@<TRIPOS>ATOM
      1  C          5.7440    1.3750   -0.3270 C.3     1  UNL1        0.0800
      2  C          5.1280    1.2850    1.0260 C.2     1  UNL1        0.1300
      3  C          5.4130    0.1470    1.9400 C.3     1  UNL1        0.0870
      4  O          4.3650    2.1500    1.4260 O.2     1  UNL1       -0.3000
      5  C          7.2370    1.1160   -0.2700 C.3     1  UNL1        0.0430
      6  C          7.5920   -0.1730   -0.8900 C.2     1  UNL1       -0.0440
      7  C          7.6160   -0.3370   -2.2800 C.2     1  UNL1        0.0080
      8  C          7.9120   -1.2480   -0.0920 C.2     1  UNL1        0.0540
      9  C          7.9580   -1.5700   -2.8040 C.2     1  UNL1        0.0510
     10  C          8.2570   -2.4930   -0.6270 C.2     1  UNL1        0.1660
     11  C          8.2800   -2.6550   -1.9950 C.2     1  UNL1        0.1650
     12  O          8.6090   -3.6970   -0.0550 O.2     1  UNL1       -0.4540
     13  O          8.6500   -3.9680   -2.2370 O.2     1  UNL1       -0.4540
     14  C          8.9560   -4.6390   -1.0370 C.3     1  UNL1        0.4680
@<TRIPOS>BOND
     1     9     7    1
     2     9    11    2
     3     7     6    2
     4    13    11    1
     5    13    14    1
     6    11    10    1
     7    14    12    1
     8     6     5    1
     9     6     8    1
    10    10     8    2
    11    10    12    1
    12     1     5    1
    13     1     2    1
    14     2     4    2
    15     2     3    1
