@<TRIPOS>MOLECULE
/home/cewinharhar/GITHUB/reincatalyze/data/processed/docking_pred/2023-May-24-1506_sub9_nm5_bs15_s42_ex16_mel10_mts10000_k50_ec02_g099_lra3e-4_lrc3e-3/0493ae4577fb245076a56c9e7bbbfc493763ce5a_ligand_9.pdbqt
 14 15 0 0 0
SMALL
GASTEIGER

@<TRIPOS>ATOM
      1  C          6.5290    0.4400    1.0590 C.3     1  UNL1        0.0800
      2  C          5.2170    1.0740    1.3690 C.2     1  UNL1        0.1300
      3  C          4.6450    2.1450    0.5090 C.3     1  UNL1        0.0870
      4  O          4.5710    0.7320    2.3460 O.2     1  UNL1       -0.3000
      5  C          6.9070    0.6420   -0.3950 C.3     1  UNL1        0.0430
      6  C          7.4840   -0.5800   -0.9840 C.2     1  UNL1       -0.0440
      7  C          7.7850   -0.6640   -2.3490 C.2     1  UNL1        0.0080
      8  C          7.7390   -1.6690   -0.1830 C.2     1  UNL1        0.0540
      9  C          8.3260   -1.8360   -2.8450 C.2     1  UNL1        0.0510
     10  C          8.2860   -2.8520   -0.6900 C.2     1  UNL1        0.1660
     11  C          8.5820   -2.9360   -2.0320 C.2     1  UNL1        0.1650
     12  O          8.6260   -4.0550   -0.1080 O.2     1  UNL1       -0.4540
     13  O          9.1040   -4.2020   -2.2490 O.2     1  UNL1       -0.4540
     14  C          9.2340   -4.9120   -1.0400 C.3     1  UNL1        0.4680
@<TRIPOS>BOND
     1     9     7    1
     2     9    11    2
     3     7     6    2
     4    13    11    1
     5    13    14    1
     6    11    10    1
     7    14    12    1
     8     6     5    1
     9     6     8    1
    10    10     8    2
    11    10    12    1
    12     5     1    1
    13     3     2    1
    14     1     2    1
    15     2     4    2
