@<TRIPOS>MOLECULE
/home/cewinharhar/GITHUB/reincatalyze/data/processed/docking_pred/2023-May-24-1506_sub9_nm5_bs15_s42_ex16_mel10_mts10000_k50_ec02_g099_lra3e-4_lrc3e-3/051d9442833557c4466992e4bdada3c2de553c76_ligand_9.pdbqt
 14 15 0 0 0
SMALL
GASTEIGER

@<TRIPOS>ATOM
      1  C          6.3970    1.2140    0.9160 C.3     1  UNL1        0.0800
      2  C          5.6730    0.4010    1.9330 C.2     1  UNL1        0.1300
      3  C          6.2770   -0.8210    2.5300 C.3     1  UNL1        0.0870
      4  O          4.5550    0.7160    2.3070 O.2     1  UNL1       -0.3000
      5  C          5.8870    0.9280   -0.4820 C.3     1  UNL1        0.0430
      6  C          6.8320    0.0970   -1.2490 C.2     1  UNL1       -0.0440
      7  C          7.5150    0.6010   -2.3620 C.2     1  UNL1        0.0080
      8  C          7.0570   -1.2070   -0.8710 C.2     1  UNL1        0.0540
      9  C          8.3910   -0.2250   -3.0430 C.2     1  UNL1        0.0510
     10  C          7.9440   -2.0380   -1.5620 C.2     1  UNL1        0.1660
     11  C          8.6160   -1.5430   -2.6570 C.2     1  UNL1        0.1650
     12  O          8.3330   -3.3490   -1.3870 O.2     1  UNL1       -0.4540
     13  O          9.4130   -2.5700   -3.1360 O.2     1  UNL1       -0.4540
     14  C          9.3330   -3.7050   -2.3070 C.3     1  UNL1        0.4680
@<TRIPOS>BOND
     1    13    11    1
     2    13    14    1
     3     9    11    2
     4     9     7    1
     5    11    10    1
     6     7     6    2
     7    14    12    1
     8    10    12    1
     9    10     8    2
    10     6     8    1
    11     6     5    1
    12     5     1    1
    13     1     2    1
    14     2     4    2
    15     2     3    1
