@<TRIPOS>MOLECULE
/home/cewinharhar/GITHUB/reincatalyze/data/processed/docking_pred/2023-May-24-1506_sub9_nm5_bs15_s42_ex16_mel10_mts10000_k50_ec02_g099_lra3e-4_lrc3e-3/051d9442833557c4466992e4bdada3c2de553c76_ligand_9.pdbqt
 14 15 0 0 0
SMALL
GASTEIGER

@<TRIPOS>ATOM
      1  C          5.4520   -0.0210    2.0300 C.3     1  UNL1        0.0800
      2  C          4.5690    1.1500    1.7730 C.2     1  UNL1        0.1300
      3  C          4.8760    2.1400    0.7060 C.3     1  UNL1        0.0870
      4  O          3.5600    1.3330    2.4350 O.2     1  UNL1       -0.3000
      5  C          6.8720    0.2490    1.5730 C.3     1  UNL1        0.0430
      6  C          7.2930   -0.6870    0.5160 C.2     1  UNL1       -0.0440
      7  C          7.1700   -0.3640   -0.8410 C.2     1  UNL1        0.0080
      8  C          7.8230   -1.9100    0.8580 C.2     1  UNL1        0.0540
      9  C          7.5830   -1.2820   -1.7890 C.2     1  UNL1        0.0510
     10  C          8.2390   -2.8340   -0.1050 C.2     1  UNL1        0.1660
     11  C          8.1180   -2.5180   -1.4390 C.2     1  UNL1        0.1650
     12  O          8.7890   -4.0960   -0.0200 O.2     1  UNL1       -0.4540
     13  O          8.6020   -3.6020   -2.1540 O.2     1  UNL1       -0.4540
     14  C          9.1210   -4.5880   -1.2940 C.3     1  UNL1        0.4680
@<TRIPOS>BOND
     1    13    11    1
     2    13    14    1
     3     9    11    2
     4     9     7    1
     5    11    10    1
     6    14    12    1
     7     7     6    2
     8    10    12    1
     9    10     8    2
    10     6     8    1
    11     6     5    1
    12     3     2    1
    13     5     1    1
    14     2     1    1
    15     2     4    2
