@<TRIPOS>MOLECULE
/home/cewinharhar/GITHUB/reincatalyze/data/processed/docking_pred/2023-May-24-1506_sub9_nm5_bs15_s42_ex16_mel10_mts10000_k50_ec02_g099_lra3e-4_lrc3e-3/051d9442833557c4466992e4bdada3c2de553c76_ligand_9.pdbqt
 14 15 0 0 0
SMALL
GASTEIGER

@<TRIPOS>ATOM
      1  C          5.5400    1.9120    1.2730 C.3     1  UNL1        0.0800
      2  C          5.1180    0.6880    2.0100 C.2     1  UNL1        0.1300
      3  C          6.0270   -0.4780    2.1730 C.3     1  UNL1        0.0870
      4  O          4.0050    0.6070    2.5040 O.2     1  UNL1       -0.3000
      5  C          5.4120    1.7240   -0.2250 C.3     1  UNL1        0.0430
      6  C          6.5770    1.0200   -0.7890 C.2     1  UNL1       -0.0440
      7  C          7.8860    1.4450   -0.5320 C.2     1  UNL1        0.0080
      8  C          6.3860   -0.0850   -1.5870 C.2     1  UNL1        0.0540
      9  C          8.9410    0.7440   -1.0880 C.2     1  UNL1        0.0510
     10  C          7.4560   -0.7910   -2.1460 C.2     1  UNL1        0.1660
     11  C          8.7440   -0.3720   -1.8950 C.2     1  UNL1        0.1650
     12  O          7.5270   -1.9010   -2.9610 O.2     1  UNL1       -0.4540
     13  O          9.5870   -1.2440   -2.5660 O.2     1  UNL1       -0.4540
     14  C          8.8610   -2.2820   -3.1800 C.3     1  UNL1        0.4680
@<TRIPOS>BOND
     1    14    12    1
     2    14    13    1
     3    12    10    1
     4    13    11    1
     5    10    11    2
     6    10     8    1
     7    11     9    1
     8     8     6    2
     9     9     7    2
    10     6     7    1
    11     6     5    1
    12     5     1    1
    13     1     2    1
    14     2     3    1
    15     2     4    2
