@<TRIPOS>MOLECULE
/home/cewinharhar/GITHUB/reincatalyze/data/processed/docking_pred/2023-May-24-1506_sub9_nm5_bs15_s42_ex16_mel10_mts10000_k50_ec02_g099_lra3e-4_lrc3e-3/051d9442833557c4466992e4bdada3c2de553c76_ligand_9.pdbqt
 14 15 0 0 0
SMALL
GASTEIGER

@<TRIPOS>ATOM
      1  C          5.3200   -0.0790    1.9930 C.3     1  UNL1        0.0800
      2  C          4.4540    1.1190    1.8070 C.2     1  UNL1        0.1300
      3  C          4.7580    2.1500    0.7780 C.3     1  UNL1        0.0870
      4  O          3.4640    1.2900    2.4990 O.2     1  UNL1       -0.3000
      5  C          6.7890    0.2900    1.9390 C.3     1  UNL1        0.0430
      6  C          7.3920   -0.0510    0.6380 C.2     1  UNL1       -0.0440
      7  C          7.8870    0.9360   -0.2220 C.2     1  UNL1        0.0080
      8  C          7.4770   -1.3690    0.2500 C.2     1  UNL1        0.0540
      9  C          8.4420    0.5560   -1.4300 C.2     1  UNL1        0.0510
     10  C          8.0400   -1.7480   -0.9720 C.2     1  UNL1        0.1660
     11  C          8.5260   -0.7770   -1.8190 C.2     1  UNL1        0.1650
     12  O          8.2360   -2.9710   -1.5770 O.2     1  UNL1       -0.4540
     13  O          9.0180   -1.4310   -2.9380 O.2     1  UNL1       -0.4540
     14  C          8.9360   -2.8280   -2.7860 C.3     1  UNL1        0.4680
@<TRIPOS>BOND
     1    13    14    1
     2    13    11    1
     3    14    12    1
     4    11     9    2
     5    11    10    1
     6    12    10    1
     7     9     7    1
     8    10     8    2
     9     7     6    2
    10     8     6    1
    11     6     5    1
    12     3     2    1
    13     2     1    1
    14     2     4    2
    15     5     1    1
