MODEL 1
REMARK VINA RESULT:      -7.7      0.000      0.000
REMARK SMILES CC(=O)CCc1ccc2c(c1)OCO2
REMARK SMILES IDX 4 1 2 2 1 3 3 4 5 5 6 6 7 7 11 8 8 9 10 10 9 11 12 12 14 13
REMARK SMILES IDX 13 14
REMARK H PARENT
REMARK Flexibility Score: inf
ROOT
ATOM      1  C   UNL     1       5.540   1.912   1.273  1.00  0.00     0.080 C 
ENDROOT
BRANCH   1   2
ATOM      2  C   UNL     1       5.118   0.688   2.010  1.00  0.00     0.130 C 
ATOM      3  C   UNL     1       6.027  -0.478   2.173  1.00  0.00     0.087 C 
ATOM      4  O   UNL     1       4.005   0.607   2.504  1.00  0.00    -0.300 OA
ENDBRANCH   1   2
BRANCH   1   5
ATOM      5  C   UNL     1       5.412   1.724  -0.225  1.00  0.00     0.043 C 
BRANCH   5   6
ATOM      6  C   UNL     1       6.577   1.020  -0.789  1.00  0.00    -0.044 A 
ATOM      7  C   UNL     1       7.886   1.445  -0.532  1.00  0.00     0.008 A 
ATOM      8  C   UNL     1       6.386  -0.085  -1.587  1.00  0.00     0.054 A 
ATOM      9  C   UNL     1       8.941   0.744  -1.088  1.00  0.00     0.051 A 
ATOM     10  C   UNL     1       7.456  -0.791  -2.146  1.00  0.00     0.166 A 
ATOM     11  C   UNL     1       8.744  -0.372  -1.895  1.00  0.00     0.165 A 
ATOM     12  O   UNL     1       7.527  -1.901  -2.961  1.00  0.00    -0.454 OA
ATOM     13  O   UNL     1       9.587  -1.244  -2.566  1.00  0.00    -0.454 OA
ATOM     14  C   UNL     1       8.861  -2.282  -3.180  1.00  0.00     0.468 C 
ENDBRANCH   5   6
ENDBRANCH   1   5
TORSDOF 3
ENDMDL
MODEL 2
REMARK VINA RESULT:      -7.4      1.869      2.301
REMARK SMILES CC(=O)CCc1ccc2c(c1)OCO2
REMARK SMILES IDX 4 1 2 2 1 3 3 4 5 5 6 6 7 7 11 8 8 9 10 10 9 11 12 12 14 13
REMARK SMILES IDX 13 14
REMARK H PARENT
REMARK Flexibility Score: inf
ROOT
ATOM      1  C   UNL     1       5.745   1.456  -0.273  1.00  0.00     0.080 C 
ENDROOT
BRANCH   1   2
ATOM      2  C   UNL     1       5.178   1.308   1.096  1.00  0.00     0.130 C 
ATOM      3  C   UNL     1       5.503   0.137   1.953  1.00  0.00     0.087 C 
ATOM      4  O   UNL     1       4.424   2.150   1.557  1.00  0.00    -0.300 OA
ENDBRANCH   1   2
BRANCH   1   5
ATOM      5  C   UNL     1       7.246   1.245  -0.273  1.00  0.00     0.043 C 
BRANCH   5   6
ATOM      6  C   UNL     1       7.616  -0.045  -0.880  1.00  0.00    -0.044 A 
ATOM      7  C   UNL     1       7.713  -0.202  -2.268  1.00  0.00     0.008 A 
ATOM      8  C   UNL     1       7.878  -1.129  -0.073  1.00  0.00     0.054 A 
ATOM      9  C   UNL     1       8.066  -1.437  -2.781  1.00  0.00     0.051 A 
ATOM     10  C   UNL     1       8.234  -2.376  -0.596  1.00  0.00     0.166 A 
ATOM     11  C   UNL     1       8.329  -2.531  -1.961  1.00  0.00     0.165 A 
ATOM     12  O   UNL     1       8.538  -3.587  -0.013  1.00  0.00    -0.454 OA
ATOM     13  O   UNL     1       8.693  -3.848  -2.191  1.00  0.00    -0.454 OA
ATOM     14  C   UNL     1       8.925  -4.529  -0.981  1.00  0.00     0.468 C 
ENDBRANCH   5   6
ENDBRANCH   1   5
TORSDOF 3
ENDMDL
MODEL 3
REMARK VINA RESULT:      -7.2      2.046      2.607
REMARK SMILES CC(=O)CCc1ccc2c(c1)OCO2
REMARK SMILES IDX 4 1 2 2 1 3 3 4 5 5 6 6 7 7 11 8 8 9 10 10 9 11 12 12 14 13
REMARK SMILES IDX 13 14
REMARK H PARENT
REMARK Flexibility Score: inf
ROOT
ATOM      1  C   UNL     1       5.452  -0.021   2.030  1.00  0.00     0.080 C 
ENDROOT
BRANCH   1   2
ATOM      2  C   UNL     1       4.569   1.150   1.773  1.00  0.00     0.130 C 
ATOM      3  C   UNL     1       4.876   2.140   0.706  1.00  0.00     0.087 C 
ATOM      4  O   UNL     1       3.560   1.333   2.435  1.00  0.00    -0.300 OA
ENDBRANCH   1   2
BRANCH   1   5
ATOM      5  C   UNL     1       6.872   0.249   1.573  1.00  0.00     0.043 C 
BRANCH   5   6
ATOM      6  C   UNL     1       7.293  -0.687   0.516  1.00  0.00    -0.044 A 
ATOM      7  C   UNL     1       7.170  -0.364  -0.841  1.00  0.00     0.008 A 
ATOM      8  C   UNL     1       7.823  -1.910   0.858  1.00  0.00     0.054 A 
ATOM      9  C   UNL     1       7.583  -1.282  -1.789  1.00  0.00     0.051 A 
ATOM     10  C   UNL     1       8.239  -2.834  -0.105  1.00  0.00     0.166 A 
ATOM     11  C   UNL     1       8.118  -2.518  -1.439  1.00  0.00     0.165 A 
ATOM     12  O   UNL     1       8.789  -4.096  -0.020  1.00  0.00    -0.454 OA
ATOM     13  O   UNL     1       8.602  -3.602  -2.154  1.00  0.00    -0.454 OA
ATOM     14  C   UNL     1       9.121  -4.588  -1.294  1.00  0.00     0.468 C 
ENDBRANCH   5   6
ENDBRANCH   1   5
TORSDOF 3
ENDMDL
MODEL 4
REMARK VINA RESULT:      -7.1      1.257      1.473
REMARK SMILES CC(=O)CCc1ccc2c(c1)OCO2
REMARK SMILES IDX 4 1 2 2 1 3 3 4 5 5 6 6 7 7 11 8 8 9 10 10 9 11 12 12 14 13
REMARK SMILES IDX 13 14
REMARK H PARENT
REMARK Flexibility Score: inf
ROOT
ATOM      1  C   UNL     1       6.397   1.214   0.916  1.00  0.00     0.080 C 
ENDROOT
BRANCH   1   2
ATOM      2  C   UNL     1       5.673   0.401   1.933  1.00  0.00     0.130 C 
ATOM      3  C   UNL     1       6.277  -0.821   2.530  1.00  0.00     0.087 C 
ATOM      4  O   UNL     1       4.555   0.716   2.307  1.00  0.00    -0.300 OA
ENDBRANCH   1   2
BRANCH   1   5
ATOM      5  C   UNL     1       5.887   0.928  -0.482  1.00  0.00     0.043 C 
BRANCH   5   6
ATOM      6  C   UNL     1       6.832   0.097  -1.249  1.00  0.00    -0.044 A 
ATOM      7  C   UNL     1       7.515   0.601  -2.362  1.00  0.00     0.008 A 
ATOM      8  C   UNL     1       7.057  -1.207  -0.871  1.00  0.00     0.054 A 
ATOM      9  C   UNL     1       8.391  -0.225  -3.043  1.00  0.00     0.051 A 
ATOM     10  C   UNL     1       7.944  -2.038  -1.562  1.00  0.00     0.166 A 
ATOM     11  C   UNL     1       8.616  -1.543  -2.657  1.00  0.00     0.165 A 
ATOM     12  O   UNL     1       8.333  -3.349  -1.387  1.00  0.00    -0.454 OA
ATOM     13  O   UNL     1       9.413  -2.570  -3.136  1.00  0.00    -0.454 OA
ATOM     14  C   UNL     1       9.333  -3.705  -2.307  1.00  0.00     0.468 C 
ENDBRANCH   5   6
ENDBRANCH   1   5
TORSDOF 3
ENDMDL
MODEL 5
REMARK VINA RESULT:      -6.8      1.261      1.757
REMARK SMILES CC(=O)CCc1ccc2c(c1)OCO2
REMARK SMILES IDX 4 1 2 2 1 3 3 4 5 5 6 6 7 7 11 8 8 9 10 10 9 11 12 12 14 13
REMARK SMILES IDX 13 14
REMARK H PARENT
REMARK Flexibility Score: inf
ROOT
ATOM      1  C   UNL     1       5.320  -0.079   1.993  1.00  0.00     0.080 C 
ENDROOT
BRANCH   1   2
ATOM      2  C   UNL     1       4.454   1.119   1.807  1.00  0.00     0.130 C 
ATOM      3  C   UNL     1       4.758   2.150   0.778  1.00  0.00     0.087 C 
ATOM      4  O   UNL     1       3.464   1.290   2.499  1.00  0.00    -0.300 OA
ENDBRANCH   1   2
BRANCH   1   5
ATOM      5  C   UNL     1       6.789   0.290   1.939  1.00  0.00     0.043 C 
BRANCH   5   6
ATOM      6  C   UNL     1       7.392  -0.051   0.638  1.00  0.00    -0.044 A 
ATOM      7  C   UNL     1       7.887   0.936  -0.222  1.00  0.00     0.008 A 
ATOM      8  C   UNL     1       7.477  -1.369   0.250  1.00  0.00     0.054 A 
ATOM      9  C   UNL     1       8.442   0.556  -1.430  1.00  0.00     0.051 A 
ATOM     10  C   UNL     1       8.040  -1.748  -0.972  1.00  0.00     0.166 A 
ATOM     11  C   UNL     1       8.526  -0.777  -1.819  1.00  0.00     0.165 A 
ATOM     12  O   UNL     1       8.236  -2.971  -1.577  1.00  0.00    -0.454 OA
ATOM     13  O   UNL     1       9.018  -1.431  -2.938  1.00  0.00    -0.454 OA
ATOM     14  C   UNL     1       8.936  -2.828  -2.786  1.00  0.00     0.468 C 
ENDBRANCH   5   6
ENDBRANCH   1   5
TORSDOF 3
ENDMDL
