@<TRIPOS>MOLECULE
/home/cewinharhar/GITHUB/reincatalyze/data/processed/docking_pred/2023-May-24-1506_sub9_nm5_bs15_s42_ex16_mel10_mts10000_k50_ec02_g099_lra3e-4_lrc3e-3/088b63c47bd4d7a6949fea46fb2e227d24226938_ligand_9.pdbqt
 14 15 0 0 0
SMALL
GASTEIGER

@<TRIPOS>ATOM
      1  C          5.7280    1.3180   -0.2970 C.3     1  UNL1        0.0800
      2  C          5.1370    1.2360    1.0680 C.2     1  UNL1        0.1300
      3  C          5.3420    0.0470    1.9380 C.3     1  UNL1        0.0870
      4  O          4.4610    2.1490    1.5150 O.2     1  UNL1       -0.3000
      5  C          7.2280    1.1050   -0.2600 C.3     1  UNL1        0.0430
      6  C          7.6120   -0.1840   -0.8630 C.2     1  UNL1       -0.0440
      7  C          7.7220   -0.3420   -2.2490 C.2     1  UNL1        0.0080
      8  C          7.8730   -1.2650   -0.0520 C.2     1  UNL1        0.0540
      9  C          8.0870   -1.5750   -2.7570 C.2     1  UNL1        0.0510
     10  C          8.2420   -2.5100   -0.5700 C.2     1  UNL1        0.1660
     11  C          8.3490   -2.6660   -1.9340 C.2     1  UNL1        0.1650
     12  O          8.5480   -3.7190    0.0170 O.2     1  UNL1       -0.4540
     13  O          8.7240   -3.9820   -2.1590 O.2     1  UNL1       -0.4540
     14  C          8.9490   -4.6600   -0.9460 C.3     1  UNL1        0.4680
@<TRIPOS>BOND
     1     9     7    1
     2     9    11    2
     3     7     6    2
     4    13    11    1
     5    13    14    1
     6    11    10    1
     7    14    12    1
     8     6     5    1
     9     6     8    1
    10    10     8    2
    11    10    12    1
    12     1     5    1
    13     1     2    1
    14     2     4    2
    15     2     3    1
