MODEL 1
REMARK VINA RESULT:      -7.6      0.000      0.000
REMARK SMILES CC(=O)CCc1ccc2c(c1)OCO2
REMARK SMILES IDX 4 1 2 2 1 3 3 4 5 5 6 6 7 7 11 8 8 9 10 10 9 11 12 12 14 13
REMARK SMILES IDX 13 14
REMARK H PARENT
REMARK Flexibility Score: inf
ROOT
ATOM      1  C   UNL     1       5.527   1.910   1.266  1.00  0.00     0.080 C 
ENDROOT
BRANCH   1   2
ATOM      2  C   UNL     1       5.081   0.693   2.000  1.00  0.00     0.130 C 
ATOM      3  C   UNL     1       5.966  -0.492   2.159  1.00  0.00     0.087 C 
ATOM      4  O   UNL     1       3.967   0.633   2.495  1.00  0.00    -0.300 OA
ENDBRANCH   1   2
BRANCH   1   5
ATOM      5  C   UNL     1       5.403   1.724  -0.234  1.00  0.00     0.043 C 
BRANCH   5   6
ATOM      6  C   UNL     1       6.570   1.022  -0.796  1.00  0.00    -0.044 A 
ATOM      7  C   UNL     1       7.877   1.453  -0.542  1.00  0.00     0.008 A 
ATOM      8  C   UNL     1       6.382  -0.087  -1.589  1.00  0.00     0.054 A 
ATOM      9  C   UNL     1       8.934   0.753  -1.097  1.00  0.00     0.051 A 
ATOM     10  C   UNL     1       7.454  -0.791  -2.146  1.00  0.00     0.166 A 
ATOM     11  C   UNL     1       8.740  -0.367  -1.898  1.00  0.00     0.165 A 
ATOM     12  O   UNL     1       7.527  -1.905  -2.956  1.00  0.00    -0.454 OA
ATOM     13  O   UNL     1       9.585  -1.239  -2.566  1.00  0.00    -0.454 OA
ATOM     14  C   UNL     1       8.862  -2.282  -3.175  1.00  0.00     0.468 C 
ENDBRANCH   5   6
ENDBRANCH   1   5
TORSDOF 3
ENDMDL
MODEL 2
REMARK VINA RESULT:      -7.4      1.929      2.379
REMARK SMILES CC(=O)CCc1ccc2c(c1)OCO2
REMARK SMILES IDX 4 1 2 2 1 3 3 4 5 5 6 6 7 7 11 8 8 9 10 10 9 11 12 12 14 13
REMARK SMILES IDX 13 14
REMARK H PARENT
REMARK Flexibility Score: inf
ROOT
ATOM      1  C   UNL     1       5.728   1.318  -0.297  1.00  0.00     0.080 C 
ENDROOT
BRANCH   1   2
ATOM      2  C   UNL     1       5.137   1.236   1.068  1.00  0.00     0.130 C 
ATOM      3  C   UNL     1       5.342   0.047   1.938  1.00  0.00     0.087 C 
ATOM      4  O   UNL     1       4.461   2.149   1.515  1.00  0.00    -0.300 OA
ENDBRANCH   1   2
BRANCH   1   5
ATOM      5  C   UNL     1       7.228   1.105  -0.260  1.00  0.00     0.043 C 
BRANCH   5   6
ATOM      6  C   UNL     1       7.612  -0.184  -0.863  1.00  0.00    -0.044 A 
ATOM      7  C   UNL     1       7.722  -0.342  -2.249  1.00  0.00     0.008 A 
ATOM      8  C   UNL     1       7.873  -1.265  -0.052  1.00  0.00     0.054 A 
ATOM      9  C   UNL     1       8.087  -1.575  -2.757  1.00  0.00     0.051 A 
ATOM     10  C   UNL     1       8.242  -2.510  -0.570  1.00  0.00     0.166 A 
ATOM     11  C   UNL     1       8.349  -2.666  -1.934  1.00  0.00     0.165 A 
ATOM     12  O   UNL     1       8.548  -3.719   0.017  1.00  0.00    -0.454 OA
ATOM     13  O   UNL     1       8.724  -3.982  -2.159  1.00  0.00    -0.454 OA
ATOM     14  C   UNL     1       8.949  -4.660  -0.946  1.00  0.00     0.468 C 
ENDBRANCH   5   6
ENDBRANCH   1   5
TORSDOF 3
ENDMDL
MODEL 3
REMARK VINA RESULT:      -7.2      2.064      2.646
REMARK SMILES CC(=O)CCc1ccc2c(c1)OCO2
REMARK SMILES IDX 4 1 2 2 1 3 3 4 5 5 6 6 7 7 11 8 8 9 10 10 9 11 12 12 14 13
REMARK SMILES IDX 13 14
REMARK H PARENT
REMARK Flexibility Score: inf
ROOT
ATOM      1  C   UNL     1       5.397  -0.080   1.990  1.00  0.00     0.080 C 
ENDROOT
BRANCH   1   2
ATOM      2  C   UNL     1       4.579   1.140   1.742  1.00  0.00     0.130 C 
ATOM      3  C   UNL     1       4.924   2.104   0.663  1.00  0.00     0.087 C 
ATOM      4  O   UNL     1       3.596   1.384   2.422  1.00  0.00    -0.300 OA
ENDBRANCH   1   2
BRANCH   1   5
ATOM      5  C   UNL     1       6.847   0.142   1.607  1.00  0.00     0.043 C 
BRANCH   5   6
ATOM      6  C   UNL     1       7.276  -0.778   0.538  1.00  0.00    -0.044 A 
ATOM      7  C   UNL     1       7.132  -0.448  -0.814  1.00  0.00     0.008 A 
ATOM      8  C   UNL     1       7.837  -1.991   0.867  1.00  0.00     0.054 A 
ATOM      9  C   UNL     1       7.554  -1.350  -1.774  1.00  0.00     0.051 A 
ATOM     10  C   UNL     1       8.262  -2.900  -0.107  1.00  0.00     0.166 A 
ATOM     11  C   UNL     1       8.119  -2.577  -1.438  1.00  0.00     0.165 A 
ATOM     12  O   UNL     1       8.840  -4.150  -0.038  1.00  0.00    -0.454 OA
ATOM     13  O   UNL     1       8.618  -3.646  -2.166  1.00  0.00    -0.454 OA
ATOM     14  C   UNL     1       9.168  -4.626  -1.318  1.00  0.00     0.468 C 
ENDBRANCH   5   6
ENDBRANCH   1   5
TORSDOF 3
ENDMDL
MODEL 4
REMARK VINA RESULT:      -7.0      1.247      1.447
REMARK SMILES CC(=O)CCc1ccc2c(c1)OCO2
REMARK SMILES IDX 4 1 2 2 1 3 3 4 5 5 6 6 7 7 11 8 8 9 10 10 9 11 12 12 14 13
REMARK SMILES IDX 13 14
REMARK H PARENT
REMARK Flexibility Score: inf
ROOT
ATOM      1  C   UNL     1       6.373   1.230   0.931  1.00  0.00     0.080 C 
ENDROOT
BRANCH   1   2
ATOM      2  C   UNL     1       5.654   0.387   1.926  1.00  0.00     0.130 C 
ATOM      3  C   UNL     1       6.266  -0.843   2.496  1.00  0.00     0.087 C 
ATOM      4  O   UNL     1       4.532   0.683   2.304  1.00  0.00    -0.300 OA
ENDBRANCH   1   2
BRANCH   1   5
ATOM      5  C   UNL     1       5.873   0.969  -0.476  1.00  0.00     0.043 C 
BRANCH   5   6
ATOM      6  C   UNL     1       6.815   0.135  -1.244  1.00  0.00    -0.044 A 
ATOM      7  C   UNL     1       7.507   0.640  -2.351  1.00  0.00     0.008 A 
ATOM      8  C   UNL     1       7.028  -1.173  -0.872  1.00  0.00     0.054 A 
ATOM      9  C   UNL     1       8.378  -0.189  -3.033  1.00  0.00     0.051 A 
ATOM     10  C   UNL     1       7.911  -2.007  -1.565  1.00  0.00     0.166 A 
ATOM     11  C   UNL     1       8.591  -1.511  -2.654  1.00  0.00     0.165 A 
ATOM     12  O   UNL     1       8.289  -3.322  -1.396  1.00  0.00    -0.454 OA
ATOM     13  O   UNL     1       9.382  -2.542  -3.136  1.00  0.00    -0.454 OA
ATOM     14  C   UNL     1       9.290  -3.681  -2.314  1.00  0.00     0.468 C 
ENDBRANCH   5   6
ENDBRANCH   1   5
TORSDOF 3
ENDMDL
MODEL 5
REMARK VINA RESULT:      -6.9      2.023      2.593
REMARK SMILES CC(=O)CCc1ccc2c(c1)OCO2
REMARK SMILES IDX 4 1 2 2 1 3 3 4 5 5 6 6 7 7 11 8 8 9 10 10 9 11 12 12 14 13
REMARK SMILES IDX 13 14
REMARK H PARENT
REMARK Flexibility Score: inf
ROOT
ATOM      1  C   UNL     1       6.723   0.528   1.366  1.00  0.00     0.080 C 
ENDROOT
BRANCH   1   2
ATOM      2  C   UNL     1       5.356   1.115   1.448  1.00  0.00     0.130 C 
ATOM      3  C   UNL     1       4.891   2.150   0.486  1.00  0.00     0.087 C 
ATOM      4  O   UNL     1       4.573   0.760   2.314  1.00  0.00    -0.300 OA
ENDBRANCH   1   2
BRANCH   1   5
ATOM      5  C   UNL     1       7.362   0.808   0.020  1.00  0.00     0.043 C 
BRANCH   5   6
ATOM      6  C   UNL     1       7.759  -0.435  -0.665  1.00  0.00    -0.044 A 
ATOM      7  C   UNL     1       7.927  -0.485  -2.054  1.00  0.00     0.008 A 
ATOM      8  C   UNL     1       7.976  -1.579   0.069  1.00  0.00     0.054 A 
ATOM      9  C   UNL     1       8.302  -1.680  -2.641  1.00  0.00     0.051 A 
ATOM     10  C   UNL     1       8.355  -2.784  -0.530  1.00  0.00     0.166 A 
ATOM     11  C   UNL     1       8.519  -2.835  -1.896  1.00  0.00     0.165 A 
ATOM     12  O   UNL     1       8.625  -4.039  -0.027  1.00  0.00    -0.454 OA
ATOM     13  O   UNL     1       8.892  -4.133  -2.207  1.00  0.00    -0.454 OA
ATOM     14  C   UNL     1       9.059  -4.907  -1.043  1.00  0.00     0.468 C 
ENDBRANCH   5   6
ENDBRANCH   1   5
TORSDOF 3
ENDMDL
