@<TRIPOS>MOLECULE
/home/cewinharhar/GITHUB/reincatalyze/data/processed/docking_pred/2023-May-24-1506_sub9_nm5_bs15_s42_ex16_mel10_mts10000_k50_ec02_g099_lra3e-4_lrc3e-3/088b63c47bd4d7a6949fea46fb2e227d24226938_ligand_9.pdbqt
 14 15 0 0 0
SMALL
GASTEIGER

@<TRIPOS>ATOM
      1  C          6.7230    0.5280    1.3660 C.3     1  UNL1        0.0800
      2  C          5.3560    1.1150    1.4480 C.2     1  UNL1        0.1300
      3  C          4.8910    2.1500    0.4860 C.3     1  UNL1        0.0870
      4  O          4.5730    0.7600    2.3140 O.2     1  UNL1       -0.3000
      5  C          7.3620    0.8080    0.0200 C.3     1  UNL1        0.0430
      6  C          7.7590   -0.4350   -0.6650 C.2     1  UNL1       -0.0440
      7  C          7.9270   -0.4850   -2.0540 C.2     1  UNL1        0.0080
      8  C          7.9760   -1.5790    0.0690 C.2     1  UNL1        0.0540
      9  C          8.3020   -1.6800   -2.6410 C.2     1  UNL1        0.0510
     10  C          8.3550   -2.7840   -0.5300 C.2     1  UNL1        0.1660
     11  C          8.5190   -2.8350   -1.8960 C.2     1  UNL1        0.1650
     12  O          8.6250   -4.0390   -0.0270 O.2     1  UNL1       -0.4540
     13  O          8.8920   -4.1330   -2.2070 O.2     1  UNL1       -0.4540
     14  C          9.0590   -4.9070   -1.0430 C.3     1  UNL1        0.4680
@<TRIPOS>BOND
     1     9     7    1
     2     9    11    2
     3    13    11    1
     4    13    14    1
     5     7     6    2
     6    11    10    1
     7    14    12    1
     8     6     5    1
     9     6     8    1
    10    10    12    1
    11    10     8    2
    12     5     1    1
    13     3     2    1
    14     1     2    1
    15     2     4    2
