@<TRIPOS>MOLECULE
/home/cewinharhar/GITHUB/reincatalyze/data/processed/docking_pred/2023-May-24-1506_sub9_nm5_bs15_s42_ex16_mel10_mts10000_k50_ec02_g099_lra3e-4_lrc3e-3/088b63c47bd4d7a6949fea46fb2e227d24226938_ligand_9.pdbqt
 14 15 0 0 0
SMALL
GASTEIGER

@<TRIPOS>ATOM
      1  C          5.5270    1.9100    1.2660 C.3     1  UNL1        0.0800
      2  C          5.0810    0.6930    2.0000 C.2     1  UNL1        0.1300
      3  C          5.9660   -0.4920    2.1590 C.3     1  UNL1        0.0870
      4  O          3.9670    0.6330    2.4950 O.2     1  UNL1       -0.3000
      5  C          5.4030    1.7240   -0.2340 C.3     1  UNL1        0.0430
      6  C          6.5700    1.0220   -0.7960 C.2     1  UNL1       -0.0440
      7  C          7.8770    1.4530   -0.5420 C.2     1  UNL1        0.0080
      8  C          6.3820   -0.0870   -1.5890 C.2     1  UNL1        0.0540
      9  C          8.9340    0.7530   -1.0970 C.2     1  UNL1        0.0510
     10  C          7.4540   -0.7910   -2.1460 C.2     1  UNL1        0.1660
     11  C          8.7400   -0.3670   -1.8980 C.2     1  UNL1        0.1650
     12  O          7.5270   -1.9050   -2.9560 O.2     1  UNL1       -0.4540
     13  O          9.5850   -1.2390   -2.5660 O.2     1  UNL1       -0.4540
     14  C          8.8620   -2.2820   -3.1750 C.3     1  UNL1        0.4680
@<TRIPOS>BOND
     1    14    12    1
     2    14    13    1
     3    12    10    1
     4    13    11    1
     5    10    11    2
     6    10     8    1
     7    11     9    1
     8     8     6    2
     9     9     7    2
    10     6     7    1
    11     6     5    1
    12     5     1    1
    13     1     2    1
    14     2     3    1
    15     2     4    2
