@<TRIPOS>MOLECULE
/home/cewinharhar/GITHUB/reincatalyze/data/processed/docking_pred/2023-May-24-1506_sub9_nm5_bs15_s42_ex16_mel10_mts10000_k50_ec02_g099_lra3e-4_lrc3e-3/088b63c47bd4d7a6949fea46fb2e227d24226938_ligand_9.pdbqt
 14 15 0 0 0
SMALL
GASTEIGER

@<TRIPOS>ATOM
      1  C          6.3730    1.2300    0.9310 C.3     1  UNL1        0.0800
      2  C          5.6540    0.3870    1.9260 C.2     1  UNL1        0.1300
      3  C          6.2660   -0.8430    2.4960 C.3     1  UNL1        0.0870
      4  O          4.5320    0.6830    2.3040 O.2     1  UNL1       -0.3000
      5  C          5.8730    0.9690   -0.4760 C.3     1  UNL1        0.0430
      6  C          6.8150    0.1350   -1.2440 C.2     1  UNL1       -0.0440
      7  C          7.5070    0.6400   -2.3510 C.2     1  UNL1        0.0080
      8  C          7.0280   -1.1730   -0.8720 C.2     1  UNL1        0.0540
      9  C          8.3780   -0.1890   -3.0330 C.2     1  UNL1        0.0510
     10  C          7.9110   -2.0070   -1.5650 C.2     1  UNL1        0.1660
     11  C          8.5910   -1.5110   -2.6540 C.2     1  UNL1        0.1650
     12  O          8.2890   -3.3220   -1.3960 O.2     1  UNL1       -0.4540
     13  O          9.3820   -2.5420   -3.1360 O.2     1  UNL1       -0.4540
     14  C          9.2900   -3.6810   -2.3140 C.3     1  UNL1        0.4680
@<TRIPOS>BOND
     1    13    11    1
     2    13    14    1
     3     9    11    2
     4     9     7    1
     5    11    10    1
     6     7     6    2
     7    14    12    1
     8    10    12    1
     9    10     8    2
    10     6     8    1
    11     6     5    1
    12     5     1    1
    13     1     2    1
    14     2     4    2
    15     2     3    1
