@<TRIPOS>MOLECULE
/home/cewinharhar/GITHUB/reincatalyze/data/processed/docking_pred/2023-May-24-1506_sub9_nm5_bs15_s42_ex16_mel10_mts10000_k50_ec02_g099_lra3e-4_lrc3e-3/088b63c47bd4d7a6949fea46fb2e227d24226938_ligand_9.pdbqt
 14 15 0 0 0
SMALL
GASTEIGER

@<TRIPOS>ATOM
      1  C          5.3970   -0.0800    1.9900 C.3     1  UNL1        0.0800
      2  C          4.5790    1.1400    1.7420 C.2     1  UNL1        0.1300
      3  C          4.9240    2.1040    0.6630 C.3     1  UNL1        0.0870
      4  O          3.5960    1.3840    2.4220 O.2     1  UNL1       -0.3000
      5  C          6.8470    0.1420    1.6070 C.3     1  UNL1        0.0430
      6  C          7.2760   -0.7780    0.5380 C.2     1  UNL1       -0.0440
      7  C          7.1320   -0.4480   -0.8140 C.2     1  UNL1        0.0080
      8  C          7.8370   -1.9910    0.8670 C.2     1  UNL1        0.0540
      9  C          7.5540   -1.3500   -1.7740 C.2     1  UNL1        0.0510
     10  C          8.2620   -2.9000   -0.1070 C.2     1  UNL1        0.1660
     11  C          8.1190   -2.5770   -1.4380 C.2     1  UNL1        0.1650
     12  O          8.8400   -4.1500   -0.0380 O.2     1  UNL1       -0.4540
     13  O          8.6180   -3.6460   -2.1660 O.2     1  UNL1       -0.4540
     14  C          9.1680   -4.6260   -1.3180 C.3     1  UNL1        0.4680
@<TRIPOS>BOND
     1    13    11    1
     2    13    14    1
     3     9    11    2
     4     9     7    1
     5    11    10    1
     6    14    12    1
     7     7     6    2
     8    10    12    1
     9    10     8    2
    10     6     8    1
    11     6     5    1
    12     3     2    1
    13     5     1    1
    14     2     1    1
    15     2     4    2
