@<TRIPOS>MOLECULE
/home/cewinharhar/GITHUB/reincatalyze/data/processed/docking_pred/2023-May-24-1506_sub9_nm5_bs15_s42_ex16_mel10_mts10000_k50_ec02_g099_lra3e-4_lrc3e-3/08d2e2d4a7c660d60546aaed77652d308bf13ce5_ligand_9.pdbqt
 14 15 0 0 0
SMALL
GASTEIGER

@<TRIPOS>ATOM
      1  C          5.5670    1.8540    1.3030 C.3     1  UNL1        0.0800
      2  C          5.1060    0.6360    2.0250 C.2     1  UNL1        0.1300
      3  C          5.9870   -0.5500    2.1970 C.3     1  UNL1        0.0870
      4  O          3.9840    0.5760    2.5010 O.2     1  UNL1       -0.3000
      5  C          5.4280    1.6900   -0.1980 C.3     1  UNL1        0.0430
      6  C          6.5900    0.9950   -0.7810 C.2     1  UNL1       -0.0440
      7  C          7.8970    1.4530   -0.5760 C.2     1  UNL1        0.0080
      8  C          6.3970   -0.1330   -1.5450 C.2     1  UNL1        0.0540
      9  C          8.9480    0.7590   -1.1480 C.2     1  UNL1        0.0510
     10  C          7.4630   -0.8310   -2.1200 C.2     1  UNL1        0.1660
     11  C          8.7490   -0.3810   -1.9200 C.2     1  UNL1        0.1650
     12  O          7.5310   -1.9600   -2.9090 O.2     1  UNL1       -0.4540
     13  O          9.5890   -1.2530   -2.5960 O.2     1  UNL1       -0.4540
     14  C          8.8650   -2.3200   -3.1610 C.3     1  UNL1        0.4680
@<TRIPOS>BOND
     1    14    12    1
     2    14    13    1
     3    12    10    1
     4    13    11    1
     5    10    11    2
     6    10     8    1
     7    11     9    1
     8     8     6    2
     9     9     7    2
    10     6     7    1
    11     6     5    1
    12     5     1    1
    13     1     2    1
    14     2     3    1
    15     2     4    2
