@<TRIPOS>MOLECULE
/home/cewinharhar/GITHUB/reincatalyze/data/processed/docking_pred/2023-May-24-1506_sub9_nm5_bs15_s42_ex16_mel10_mts10000_k50_ec02_g099_lra3e-4_lrc3e-3/08d2e2d4a7c660d60546aaed77652d308bf13ce5_ligand_9.pdbqt
 14 15 0 0 0
SMALL
GASTEIGER

@<TRIPOS>ATOM
      1  C          6.8960    0.9440    1.2740 C.3     1  UNL1        0.0800
      2  C          5.4300    1.1490    1.4400 C.2     1  UNL1        0.1300
      3  C          4.6850    2.1500    0.6300 C.3     1  UNL1        0.0870
      4  O          4.7940    0.4960    2.2510 O.2     1  UNL1       -0.3000
      5  C          7.3160    1.1120   -0.1730 C.3     1  UNL1        0.0430
      6  C          7.6630   -0.1790   -0.7940 C.2     1  UNL1       -0.0440
      7  C          7.7230   -0.3310   -2.1840 C.2     1  UNL1        0.0080
      8  C          7.9390   -1.2670    0.0030 C.2     1  UNL1        0.0540
      9  C          8.0550   -1.5660   -2.7100 C.2     1  UNL1        0.0510
     10  C          8.2750   -2.5130   -0.5340 C.2     1  UNL1        0.1660
     11  C          8.3330   -2.6640   -1.9020 C.2     1  UNL1        0.1650
     12  O          8.5870   -3.7290    0.0360 O.2     1  UNL1       -0.4540
     13  O          8.6850   -3.9820   -2.1450 O.2     1  UNL1       -0.4540
     14  C          8.9440   -4.6690   -0.9440 C.3     1  UNL1        0.4680
@<TRIPOS>BOND
     1     9     7    1
     2     9    11    2
     3     7     6    2
     4    13    11    1
     5    13    14    1
     6    11    10    1
     7    14    12    1
     8     6     5    1
     9     6     8    1
    10    10     8    2
    11    10    12    1
    12     5     1    1
    13     3     2    1
    14     1     2    1
    15     2     4    2
