@<TRIPOS>MOLECULE
/home/cewinharhar/GITHUB/reincatalyze/data/processed/docking_pred/2023-May-24-1506_sub9_nm5_bs15_s42_ex16_mel10_mts10000_k50_ec02_g099_lra3e-4_lrc3e-3/08d2e2d4a7c660d60546aaed77652d308bf13ce5_ligand_9.pdbqt
 14 15 0 0 0
SMALL
GASTEIGER

@<TRIPOS>ATOM
      1  C          6.3630    1.2260    0.9420 C.3     1  UNL1        0.0800
      2  C          5.6430    0.3800    1.9340 C.2     1  UNL1        0.1300
      3  C          6.2590   -0.8450    2.5100 C.3     1  UNL1        0.0870
      4  O          4.5170    0.6700    2.3050 O.2     1  UNL1       -0.3000
      5  C          5.8650    0.9680   -0.4660 C.3     1  UNL1        0.0430
      6  C          6.8080    0.1380   -1.2370 C.2     1  UNL1       -0.0440
      7  C          7.4980    0.6470   -2.3430 C.2     1  UNL1        0.0080
      8  C          7.0250   -1.1700   -0.8670 C.2     1  UNL1        0.0540
      9  C          8.3710   -0.1780   -3.0270 C.2     1  UNL1        0.0510
     10  C          7.9100   -2.0000   -1.5620 C.2     1  UNL1        0.1660
     11  C          8.5880   -1.5000   -2.6510 C.2     1  UNL1        0.1650
     12  O          8.2920   -3.3140   -1.3950 O.2     1  UNL1       -0.4540
     13  O          9.3820   -2.5280   -3.1350 O.2     1  UNL1       -0.4540
     14  C          9.2930   -3.6690   -2.3140 C.3     1  UNL1        0.4680
@<TRIPOS>BOND
     1    13    11    1
     2    13    14    1
     3     9    11    2
     4     9     7    1
     5    11    10    1
     6     7     6    2
     7    14    12    1
     8    10    12    1
     9    10     8    2
    10     6     8    1
    11     6     5    1
    12     5     1    1
    13     1     2    1
    14     2     4    2
    15     2     3    1
