MODEL 1
REMARK VINA RESULT:      -7.6      0.000      0.000
REMARK SMILES CC(=O)CCc1ccc2c(c1)OCO2
REMARK SMILES IDX 4 1 2 2 1 3 3 4 5 5 6 6 7 7 11 8 8 9 10 10 9 11 12 12 14 13
REMARK SMILES IDX 13 14
REMARK H PARENT
REMARK Flexibility Score: inf
ROOT
ATOM      1  C   UNL     1       5.567   1.854   1.303  1.00  0.00     0.080 C 
ENDROOT
BRANCH   1   2
ATOM      2  C   UNL     1       5.106   0.636   2.025  1.00  0.00     0.130 C 
ATOM      3  C   UNL     1       5.987  -0.550   2.197  1.00  0.00     0.087 C 
ATOM      4  O   UNL     1       3.984   0.576   2.501  1.00  0.00    -0.300 OA
ENDBRANCH   1   2
BRANCH   1   5
ATOM      5  C   UNL     1       5.428   1.690  -0.198  1.00  0.00     0.043 C 
BRANCH   5   6
ATOM      6  C   UNL     1       6.590   0.995  -0.781  1.00  0.00    -0.044 A 
ATOM      7  C   UNL     1       7.897   1.453  -0.576  1.00  0.00     0.008 A 
ATOM      8  C   UNL     1       6.397  -0.133  -1.545  1.00  0.00     0.054 A 
ATOM      9  C   UNL     1       8.948   0.759  -1.148  1.00  0.00     0.051 A 
ATOM     10  C   UNL     1       7.463  -0.831  -2.120  1.00  0.00     0.166 A 
ATOM     11  C   UNL     1       8.749  -0.381  -1.920  1.00  0.00     0.165 A 
ATOM     12  O   UNL     1       7.531  -1.960  -2.909  1.00  0.00    -0.454 OA
ATOM     13  O   UNL     1       9.589  -1.253  -2.596  1.00  0.00    -0.454 OA
ATOM     14  C   UNL     1       8.865  -2.320  -3.161  1.00  0.00     0.468 C 
ENDBRANCH   5   6
ENDBRANCH   1   5
TORSDOF 3
ENDMDL
MODEL 2
REMARK VINA RESULT:      -7.4      1.888      2.366
REMARK SMILES CC(=O)CCc1ccc2c(c1)OCO2
REMARK SMILES IDX 4 1 2 2 1 3 3 4 5 5 6 6 7 7 11 8 8 9 10 10 9 11 12 12 14 13
REMARK SMILES IDX 13 14
REMARK H PARENT
REMARK Flexibility Score: inf
ROOT
ATOM      1  C   UNL     1       5.765   1.250  -0.313  1.00  0.00     0.080 C 
ENDROOT
BRANCH   1   2
ATOM      2  C   UNL     1       5.227   1.213   1.076  1.00  0.00     0.130 C 
ATOM      3  C   UNL     1       5.461   0.050   1.973  1.00  0.00     0.087 C 
ATOM      4  O   UNL     1       4.574   2.143   1.520  1.00  0.00    -0.300 OA
ENDBRANCH   1   2
BRANCH   1   5
ATOM      5  C   UNL     1       7.270   1.074  -0.325  1.00  0.00     0.043 C 
BRANCH   5   6
ATOM      6  C   UNL     1       7.665  -0.212  -0.929  1.00  0.00    -0.044 A 
ATOM      7  C   UNL     1       7.790  -0.363  -2.314  1.00  0.00     0.008 A 
ATOM      8  C   UNL     1       7.922  -1.295  -0.119  1.00  0.00     0.054 A 
ATOM      9  C   UNL     1       8.165  -1.593  -2.824  1.00  0.00     0.051 A 
ATOM     10  C   UNL     1       8.302  -2.536  -0.639  1.00  0.00     0.166 A 
ATOM     11  C   UNL     1       8.424  -2.686  -2.003  1.00  0.00     0.165 A 
ATOM     12  O   UNL     1       8.607  -3.746  -0.054  1.00  0.00    -0.454 OA
ATOM     13  O   UNL     1       8.806  -3.999  -2.228  1.00  0.00    -0.454 OA
ATOM     14  C   UNL     1       9.022  -4.681  -1.016  1.00  0.00     0.468 C 
ENDBRANCH   5   6
ENDBRANCH   1   5
TORSDOF 3
ENDMDL
MODEL 3
REMARK VINA RESULT:      -7.2      2.042      2.614
REMARK SMILES CC(=O)CCc1ccc2c(c1)OCO2
REMARK SMILES IDX 4 1 2 2 1 3 3 4 5 5 6 6 7 7 11 8 8 9 10 10 9 11 12 12 14 13
REMARK SMILES IDX 13 14
REMARK H PARENT
REMARK Flexibility Score: inf
ROOT
ATOM      1  C   UNL     1       5.407  -0.065   2.007  1.00  0.00     0.080 C 
ENDROOT
BRANCH   1   2
ATOM      2  C   UNL     1       4.570   1.145   1.771  1.00  0.00     0.130 C 
ATOM      3  C   UNL     1       4.912   2.136   0.716  1.00  0.00     0.087 C 
ATOM      4  O   UNL     1       3.573   1.358   2.441  1.00  0.00    -0.300 OA
ENDBRANCH   1   2
BRANCH   1   5
ATOM      5  C   UNL     1       6.849   0.176   1.605  1.00  0.00     0.043 C 
BRANCH   5   6
ATOM      6  C   UNL     1       7.282  -0.748   0.542  1.00  0.00    -0.044 A 
ATOM      7  C   UNL     1       7.159  -0.416  -0.812  1.00  0.00     0.008 A 
ATOM      8  C   UNL     1       7.824  -1.968   0.877  1.00  0.00     0.054 A 
ATOM      9  C   UNL     1       7.583  -1.323  -1.766  1.00  0.00     0.051 A 
ATOM     10  C   UNL     1       8.252  -2.881  -0.091  1.00  0.00     0.166 A 
ATOM     11  C   UNL     1       8.130  -2.556  -1.424  1.00  0.00     0.165 A 
ATOM     12  O   UNL     1       8.814  -4.137  -0.014  1.00  0.00    -0.454 OA
ATOM     13  O   UNL     1       8.626  -3.630  -2.145  1.00  0.00    -0.454 OA
ATOM     14  C   UNL     1       9.154  -4.617  -1.290  1.00  0.00     0.468 C 
ENDBRANCH   5   6
ENDBRANCH   1   5
TORSDOF 3
ENDMDL
MODEL 4
REMARK VINA RESULT:      -7.1      1.221      1.403
REMARK SMILES CC(=O)CCc1ccc2c(c1)OCO2
REMARK SMILES IDX 4 1 2 2 1 3 3 4 5 5 6 6 7 7 11 8 8 9 10 10 9 11 12 12 14 13
REMARK SMILES IDX 13 14
REMARK H PARENT
REMARK Flexibility Score: inf
ROOT
ATOM      1  C   UNL     1       6.363   1.226   0.942  1.00  0.00     0.080 C 
ENDROOT
BRANCH   1   2
ATOM      2  C   UNL     1       5.643   0.380   1.934  1.00  0.00     0.130 C 
ATOM      3  C   UNL     1       6.259  -0.845   2.510  1.00  0.00     0.087 C 
ATOM      4  O   UNL     1       4.517   0.670   2.305  1.00  0.00    -0.300 OA
ENDBRANCH   1   2
BRANCH   1   5
ATOM      5  C   UNL     1       5.865   0.968  -0.466  1.00  0.00     0.043 C 
BRANCH   5   6
ATOM      6  C   UNL     1       6.808   0.138  -1.237  1.00  0.00    -0.044 A 
ATOM      7  C   UNL     1       7.498   0.647  -2.343  1.00  0.00     0.008 A 
ATOM      8  C   UNL     1       7.025  -1.170  -0.867  1.00  0.00     0.054 A 
ATOM      9  C   UNL     1       8.371  -0.178  -3.027  1.00  0.00     0.051 A 
ATOM     10  C   UNL     1       7.910  -2.000  -1.562  1.00  0.00     0.166 A 
ATOM     11  C   UNL     1       8.588  -1.500  -2.651  1.00  0.00     0.165 A 
ATOM     12  O   UNL     1       8.292  -3.314  -1.395  1.00  0.00    -0.454 OA
ATOM     13  O   UNL     1       9.382  -2.528  -3.135  1.00  0.00    -0.454 OA
ATOM     14  C   UNL     1       9.293  -3.669  -2.314  1.00  0.00     0.468 C 
ENDBRANCH   5   6
ENDBRANCH   1   5
TORSDOF 3
ENDMDL
MODEL 5
REMARK VINA RESULT:      -7.1      1.923      2.473
REMARK SMILES CC(=O)CCc1ccc2c(c1)OCO2
REMARK SMILES IDX 4 1 2 2 1 3 3 4 5 5 6 6 7 7 11 8 8 9 10 10 9 11 12 12 14 13
REMARK SMILES IDX 13 14
REMARK H PARENT
REMARK Flexibility Score: inf
ROOT
ATOM      1  C   UNL     1       6.896   0.944   1.274  1.00  0.00     0.080 C 
ENDROOT
BRANCH   1   2
ATOM      2  C   UNL     1       5.430   1.149   1.440  1.00  0.00     0.130 C 
ATOM      3  C   UNL     1       4.685   2.150   0.630  1.00  0.00     0.087 C 
ATOM      4  O   UNL     1       4.794   0.496   2.251  1.00  0.00    -0.300 OA
ENDBRANCH   1   2
BRANCH   1   5
ATOM      5  C   UNL     1       7.316   1.112  -0.173  1.00  0.00     0.043 C 
BRANCH   5   6
ATOM      6  C   UNL     1       7.663  -0.179  -0.794  1.00  0.00    -0.044 A 
ATOM      7  C   UNL     1       7.723  -0.331  -2.184  1.00  0.00     0.008 A 
ATOM      8  C   UNL     1       7.939  -1.267   0.003  1.00  0.00     0.054 A 
ATOM      9  C   UNL     1       8.055  -1.566  -2.710  1.00  0.00     0.051 A 
ATOM     10  C   UNL     1       8.275  -2.513  -0.534  1.00  0.00     0.166 A 
ATOM     11  C   UNL     1       8.333  -2.664  -1.902  1.00  0.00     0.165 A 
ATOM     12  O   UNL     1       8.587  -3.729   0.036  1.00  0.00    -0.454 OA
ATOM     13  O   UNL     1       8.685  -3.982  -2.145  1.00  0.00    -0.454 OA
ATOM     14  C   UNL     1       8.944  -4.669  -0.944  1.00  0.00     0.468 C 
ENDBRANCH   5   6
ENDBRANCH   1   5
TORSDOF 3
ENDMDL
