@<TRIPOS>MOLECULE
/home/cewinharhar/GITHUB/reincatalyze/data/processed/docking_pred/2023-May-24-1506_sub9_nm5_bs15_s42_ex16_mel10_mts10000_k50_ec02_g099_lra3e-4_lrc3e-3/08d2e2d4a7c660d60546aaed77652d308bf13ce5_ligand_9.pdbqt
 14 15 0 0 0
SMALL
GASTEIGER

@<TRIPOS>ATOM
      1  C          5.7650    1.2500   -0.3130 C.3     1  UNL1        0.0800
      2  C          5.2270    1.2130    1.0760 C.2     1  UNL1        0.1300
      3  C          5.4610    0.0500    1.9730 C.3     1  UNL1        0.0870
      4  O          4.5740    2.1430    1.5200 O.2     1  UNL1       -0.3000
      5  C          7.2700    1.0740   -0.3250 C.3     1  UNL1        0.0430
      6  C          7.6650   -0.2120   -0.9290 C.2     1  UNL1       -0.0440
      7  C          7.7900   -0.3630   -2.3140 C.2     1  UNL1        0.0080
      8  C          7.9220   -1.2950   -0.1190 C.2     1  UNL1        0.0540
      9  C          8.1650   -1.5930   -2.8240 C.2     1  UNL1        0.0510
     10  C          8.3020   -2.5360   -0.6390 C.2     1  UNL1        0.1660
     11  C          8.4240   -2.6860   -2.0030 C.2     1  UNL1        0.1650
     12  O          8.6070   -3.7460   -0.0540 O.2     1  UNL1       -0.4540
     13  O          8.8060   -3.9990   -2.2280 O.2     1  UNL1       -0.4540
     14  C          9.0220   -4.6810   -1.0160 C.3     1  UNL1        0.4680
@<TRIPOS>BOND
     1     9     7    1
     2     9    11    2
     3     7     6    2
     4    13    11    1
     5    13    14    1
     6    11    10    1
     7    14    12    1
     8     6     5    1
     9     6     8    1
    10    10     8    2
    11    10    12    1
    12     5     1    1
    13     1     2    1
    14     2     4    2
    15     2     3    1
