@<TRIPOS>MOLECULE
/home/cewinharhar/GITHUB/reincatalyze/data/processed/docking_pred/2023-May-24-1506_sub9_nm5_bs15_s42_ex16_mel10_mts10000_k50_ec02_g099_lra3e-4_lrc3e-3/08e84468c81f1cd513554bb3b422d21af10d92b8_ligand_9.pdbqt
 14 15 0 0 0
SMALL
GASTEIGER

@<TRIPOS>ATOM
      1  C          5.4790   -0.0370    1.9900 C.3     1  UNL1        0.0800
      2  C          4.6250    1.1560    1.7360 C.2     1  UNL1        0.1300
      3  C          4.9490    2.1350    0.6640 C.3     1  UNL1        0.0870
      4  O          3.6260    1.3660    2.4060 O.2     1  UNL1       -0.3000
      5  C          6.9100    0.2070    1.5520 C.3     1  UNL1        0.0430
      6  C          7.3250   -0.7310    0.4940 C.2     1  UNL1       -0.0440
      7  C          7.1910   -0.4120   -0.8620 C.2     1  UNL1        0.0080
      8  C          7.8590   -1.9520    0.8360 C.2     1  UNL1        0.0540
      9  C          7.5990   -1.3320   -1.8110 C.2     1  UNL1        0.0510
     10  C          8.2700   -2.8790   -0.1270 C.2     1  UNL1        0.1660
     11  C          8.1380   -2.5660   -1.4620 C.2     1  UNL1        0.1650
     12  O          8.8220   -4.1390   -0.0440 O.2     1  UNL1       -0.4540
     13  O          8.6180   -3.6510   -2.1780 O.2     1  UNL1       -0.4540
     14  C          9.1460   -4.6340   -1.3180 C.3     1  UNL1        0.4680
@<TRIPOS>BOND
     1    13    11    1
     2    13    14    1
     3     9    11    2
     4     9     7    1
     5    11    10    1
     6    14    12    1
     7     7     6    2
     8    10    12    1
     9    10     8    2
    10     6     8    1
    11     6     5    1
    12     3     2    1
    13     5     1    1
    14     2     1    1
    15     2     4    2
