@<TRIPOS>MOLECULE
/home/cewinharhar/GITHUB/reincatalyze/data/processed/docking_pred/2023-May-24-1506_sub9_nm5_bs15_s42_ex16_mel10_mts10000_k50_ec02_g099_lra3e-4_lrc3e-3/08e84468c81f1cd513554bb3b422d21af10d92b8_ligand_9.pdbqt
 14 15 0 0 0
SMALL
GASTEIGER

@<TRIPOS>ATOM
      1  C          5.7880    1.3700   -0.1950 C.3     1  UNL1        0.0800
      2  C          5.1150    1.2390    1.1280 C.2     1  UNL1        0.1300
      3  C          5.3730    0.0810    2.0240 C.3     1  UNL1        0.0870
      4  O          4.3270    2.0860    1.5160 O.2     1  UNL1       -0.3000
      5  C          7.2690    1.0640   -0.0920 C.3     1  UNL1        0.0430
      6  C          7.6110   -0.2070   -0.7550 C.2     1  UNL1       -0.0440
      7  C          7.6270   -0.3260   -2.1490 C.2     1  UNL1        0.0080
      8  C          7.9270   -1.3100    0.0060 C.2     1  UNL1        0.0540
      9  C          7.9570   -1.5430   -2.7160 C.2     1  UNL1        0.0510
     10  C          8.2610   -2.5390   -0.5720 C.2     1  UNL1        0.1660
     11  C          8.2750   -2.6560   -1.9440 C.2     1  UNL1        0.1650
     12  O          8.6070   -3.7630   -0.0410 O.2     1  UNL1       -0.4540
     13  O          8.6350   -3.9640   -2.2300 O.2     1  UNL1       -0.4540
     14  C          8.9420   -4.6760   -1.0550 C.3     1  UNL1        0.4680
@<TRIPOS>BOND
     1     9     7    1
     2     9    11    2
     3    13    11    1
     4    13    14    1
     5     7     6    2
     6    11    10    1
     7    14    12    1
     8     6     5    1
     9     6     8    1
    10    10    12    1
    11    10     8    2
    12     1     5    1
    13     1     2    1
    14     2     4    2
    15     2     3    1
