MODEL 1
REMARK VINA RESULT:      -7.7      0.000      0.000
REMARK SMILES CC(=O)CCc1ccc2c(c1)OCO2
REMARK SMILES IDX 4 1 2 2 1 3 3 4 5 5 6 6 7 7 11 8 8 9 10 10 9 11 12 12 14 13
REMARK SMILES IDX 13 14
REMARK H PARENT
REMARK Flexibility Score: inf
ROOT
ATOM      1  C   UNL     1       5.517   1.924   1.266  1.00  0.00     0.080 C 
ENDROOT
BRANCH   1   2
ATOM      2  C   UNL     1       5.074   0.707   2.001  1.00  0.00     0.130 C 
ATOM      3  C   UNL     1       5.963  -0.475   2.163  1.00  0.00     0.087 C 
ATOM      4  O   UNL     1       3.960   0.644   2.495  1.00  0.00    -0.300 OA
ENDBRANCH   1   2
BRANCH   1   5
ATOM      5  C   UNL     1       5.393   1.736  -0.234  1.00  0.00     0.043 C 
BRANCH   5   6
ATOM      6  C   UNL     1       6.561   1.034  -0.795  1.00  0.00    -0.044 A 
ATOM      7  C   UNL     1       7.868   1.468  -0.545  1.00  0.00     0.008 A 
ATOM      8  C   UNL     1       6.374  -0.079  -1.583  1.00  0.00     0.054 A 
ATOM      9  C   UNL     1       8.925   0.769  -1.098  1.00  0.00     0.051 A 
ATOM     10  C   UNL     1       7.446  -0.783  -2.140  1.00  0.00     0.166 A 
ATOM     11  C   UNL     1       8.732  -0.355  -1.895  1.00  0.00     0.165 A 
ATOM     12  O   UNL     1       7.520  -1.900  -2.945  1.00  0.00    -0.454 OA
ATOM     13  O   UNL     1       9.578  -1.228  -2.561  1.00  0.00    -0.454 OA
ATOM     14  C   UNL     1       8.855  -2.275  -3.164  1.00  0.00     0.468 C 
ENDBRANCH   5   6
ENDBRANCH   1   5
TORSDOF 3
ENDMDL
MODEL 2
REMARK VINA RESULT:      -7.4      1.920      2.372
REMARK SMILES CC(=O)CCc1ccc2c(c1)OCO2
REMARK SMILES IDX 4 1 2 2 1 3 3 4 5 5 6 6 7 7 11 8 8 9 10 10 9 11 12 12 14 13
REMARK SMILES IDX 13 14
REMARK H PARENT
REMARK Flexibility Score: inf
ROOT
ATOM      1  C   UNL     1       5.788   1.370  -0.195  1.00  0.00     0.080 C 
ENDROOT
BRANCH   1   2
ATOM      2  C   UNL     1       5.115   1.239   1.128  1.00  0.00     0.130 C 
ATOM      3  C   UNL     1       5.373   0.081   2.024  1.00  0.00     0.087 C 
ATOM      4  O   UNL     1       4.327   2.086   1.516  1.00  0.00    -0.300 OA
ENDBRANCH   1   2
BRANCH   1   5
ATOM      5  C   UNL     1       7.269   1.064  -0.092  1.00  0.00     0.043 C 
BRANCH   5   6
ATOM      6  C   UNL     1       7.611  -0.207  -0.755  1.00  0.00    -0.044 A 
ATOM      7  C   UNL     1       7.627  -0.326  -2.149  1.00  0.00     0.008 A 
ATOM      8  C   UNL     1       7.927  -1.310   0.006  1.00  0.00     0.054 A 
ATOM      9  C   UNL     1       7.957  -1.543  -2.716  1.00  0.00     0.051 A 
ATOM     10  C   UNL     1       8.261  -2.539  -0.572  1.00  0.00     0.166 A 
ATOM     11  C   UNL     1       8.275  -2.656  -1.944  1.00  0.00     0.165 A 
ATOM     12  O   UNL     1       8.607  -3.763  -0.041  1.00  0.00    -0.454 OA
ATOM     13  O   UNL     1       8.635  -3.964  -2.230  1.00  0.00    -0.454 OA
ATOM     14  C   UNL     1       8.942  -4.676  -1.055  1.00  0.00     0.468 C 
ENDBRANCH   5   6
ENDBRANCH   1   5
TORSDOF 3
ENDMDL
MODEL 3
REMARK VINA RESULT:      -7.2      2.065      2.629
REMARK SMILES CC(=O)CCc1ccc2c(c1)OCO2
REMARK SMILES IDX 4 1 2 2 1 3 3 4 5 5 6 6 7 7 11 8 8 9 10 10 9 11 12 12 14 13
REMARK SMILES IDX 13 14
REMARK H PARENT
REMARK Flexibility Score: inf
ROOT
ATOM      1  C   UNL     1       5.479  -0.037   1.990  1.00  0.00     0.080 C 
ENDROOT
BRANCH   1   2
ATOM      2  C   UNL     1       4.625   1.156   1.736  1.00  0.00     0.130 C 
ATOM      3  C   UNL     1       4.949   2.135   0.664  1.00  0.00     0.087 C 
ATOM      4  O   UNL     1       3.626   1.366   2.406  1.00  0.00    -0.300 OA
ENDBRANCH   1   2
BRANCH   1   5
ATOM      5  C   UNL     1       6.910   0.207   1.552  1.00  0.00     0.043 C 
BRANCH   5   6
ATOM      6  C   UNL     1       7.325  -0.731   0.494  1.00  0.00    -0.044 A 
ATOM      7  C   UNL     1       7.191  -0.412  -0.862  1.00  0.00     0.008 A 
ATOM      8  C   UNL     1       7.859  -1.952   0.836  1.00  0.00     0.054 A 
ATOM      9  C   UNL     1       7.599  -1.332  -1.811  1.00  0.00     0.051 A 
ATOM     10  C   UNL     1       8.270  -2.879  -0.127  1.00  0.00     0.166 A 
ATOM     11  C   UNL     1       8.138  -2.566  -1.462  1.00  0.00     0.165 A 
ATOM     12  O   UNL     1       8.822  -4.139  -0.044  1.00  0.00    -0.454 OA
ATOM     13  O   UNL     1       8.618  -3.651  -2.178  1.00  0.00    -0.454 OA
ATOM     14  C   UNL     1       9.146  -4.634  -1.318  1.00  0.00     0.468 C 
ENDBRANCH   5   6
ENDBRANCH   1   5
TORSDOF 3
ENDMDL
MODEL 4
REMARK VINA RESULT:      -7.1      1.268      1.490
REMARK SMILES CC(=O)CCc1ccc2c(c1)OCO2
REMARK SMILES IDX 4 1 2 2 1 3 3 4 5 5 6 6 7 7 11 8 8 9 10 10 9 11 12 12 14 13
REMARK SMILES IDX 13 14
REMARK H PARENT
REMARK Flexibility Score: inf
ROOT
ATOM      1  C   UNL     1       6.420   1.201   0.934  1.00  0.00     0.080 C 
ENDROOT
BRANCH   1   2
ATOM      2  C   UNL     1       5.714   0.373   1.951  1.00  0.00     0.130 C 
ATOM      3  C   UNL     1       6.345  -0.833   2.550  1.00  0.00     0.087 C 
ATOM      4  O   UNL     1       4.589   0.664   2.325  1.00  0.00    -0.300 OA
ENDBRANCH   1   2
BRANCH   1   5
ATOM      5  C   UNL     1       5.899   0.921  -0.462  1.00  0.00     0.043 C 
BRANCH   5   6
ATOM      6  C   UNL     1       6.836   0.090  -1.238  1.00  0.00    -0.044 A 
ATOM      7  C   UNL     1       7.511   0.595  -2.355  1.00  0.00     0.008 A 
ATOM      8  C   UNL     1       7.063  -1.215  -0.864  1.00  0.00     0.054 A 
ATOM      9  C   UNL     1       8.380  -0.231  -3.045  1.00  0.00     0.051 A 
ATOM     10  C   UNL     1       7.942  -2.046  -1.564  1.00  0.00     0.166 A 
ATOM     11  C   UNL     1       8.606  -1.550  -2.664  1.00  0.00     0.165 A 
ATOM     12  O   UNL     1       8.331  -3.358  -1.395  1.00  0.00    -0.454 OA
ATOM     13  O   UNL     1       9.398  -2.578  -3.152  1.00  0.00    -0.454 OA
ATOM     14  C   UNL     1       9.323  -3.713  -2.323  1.00  0.00     0.468 C 
ENDBRANCH   5   6
ENDBRANCH   1   5
TORSDOF 3
ENDMDL
MODEL 5
REMARK VINA RESULT:      -6.8      1.194      5.169
REMARK SMILES CC(=O)CCc1ccc2c(c1)OCO2
REMARK SMILES IDX 4 1 2 2 1 3 3 4 5 5 6 6 7 7 11 8 8 9 10 10 9 11 12 12 14 13
REMARK SMILES IDX 13 14
REMARK H PARENT
REMARK Flexibility Score: inf
ROOT
ATOM      1  C   UNL     1       8.317   0.163  -2.721  1.00  0.00     0.080 C 
ENDROOT
BRANCH   1   2
ATOM      2  C   UNL     1       8.065  -1.303  -2.797  1.00  0.00     0.130 C 
ATOM      3  C   UNL     1       9.170  -2.275  -3.014  1.00  0.00     0.087 C 
ATOM      4  O   UNL     1       6.936  -1.752  -2.683  1.00  0.00    -0.300 OA
ENDBRANCH   1   2
BRANCH   1   5
ATOM      5  C   UNL     1       8.855   0.559  -1.360  1.00  0.00     0.043 C 
BRANCH   5   6
ATOM      6  C   UNL     1       7.832   0.426  -0.308  1.00  0.00    -0.044 A 
ATOM      7  C   UNL     1       7.948  -0.525   0.712  1.00  0.00     0.008 A 
ATOM      8  C   UNL     1       6.732   1.254  -0.318  1.00  0.00     0.054 A 
ATOM      9  C   UNL     1       6.957  -0.603   1.673  1.00  0.00     0.051 A 
ATOM     10  C   UNL     1       5.733   1.172   0.656  1.00  0.00     0.166 A 
ATOM     11  C   UNL     1       5.846   0.235   1.660  1.00  0.00     0.165 A 
ATOM     12  O   UNL     1       4.561   1.869   0.862  1.00  0.00    -0.454 OA
ATOM     13  O   UNL     1       4.730   0.379   2.470  1.00  0.00    -0.454 OA
ATOM     14  C   UNL     1       3.935   1.463   2.052  1.00  0.00     0.468 C 
ENDBRANCH   5   6
ENDBRANCH   1   5
TORSDOF 3
ENDMDL
