@<TRIPOS>MOLECULE
/home/cewinharhar/GITHUB/reincatalyze/data/processed/docking_pred/2023-May-24-1506_sub9_nm5_bs15_s42_ex16_mel10_mts10000_k50_ec02_g099_lra3e-4_lrc3e-3/08e84468c81f1cd513554bb3b422d21af10d92b8_ligand_9.pdbqt
 14 15 0 0 0
SMALL
GASTEIGER

@<TRIPOS>ATOM
      1  C          6.4200    1.2010    0.9340 C.3     1  UNL1        0.0800
      2  C          5.7140    0.3730    1.9510 C.2     1  UNL1        0.1300
      3  C          6.3450   -0.8330    2.5500 C.3     1  UNL1        0.0870
      4  O          4.5890    0.6640    2.3250 O.2     1  UNL1       -0.3000
      5  C          5.8990    0.9210   -0.4620 C.3     1  UNL1        0.0430
      6  C          6.8360    0.0900   -1.2380 C.2     1  UNL1       -0.0440
      7  C          7.5110    0.5950   -2.3550 C.2     1  UNL1        0.0080
      8  C          7.0630   -1.2150   -0.8640 C.2     1  UNL1        0.0540
      9  C          8.3800   -0.2310   -3.0450 C.2     1  UNL1        0.0510
     10  C          7.9420   -2.0460   -1.5640 C.2     1  UNL1        0.1660
     11  C          8.6060   -1.5500   -2.6640 C.2     1  UNL1        0.1650
     12  O          8.3310   -3.3580   -1.3950 O.2     1  UNL1       -0.4540
     13  O          9.3980   -2.5780   -3.1520 O.2     1  UNL1       -0.4540
     14  C          9.3230   -3.7130   -2.3230 C.3     1  UNL1        0.4680
@<TRIPOS>BOND
     1    13    11    1
     2    13    14    1
     3     9    11    2
     4     9     7    1
     5    11    10    1
     6     7     6    2
     7    14    12    1
     8    10    12    1
     9    10     8    2
    10     6     8    1
    11     6     5    1
    12     5     1    1
    13     1     2    1
    14     2     4    2
    15     2     3    1
