@<TRIPOS>MOLECULE
/home/cewinharhar/GITHUB/reincatalyze/data/processed/docking_pred/2023-May-24-1506_sub9_nm5_bs15_s42_ex16_mel10_mts10000_k50_ec02_g099_lra3e-4_lrc3e-3/08e84468c81f1cd513554bb3b422d21af10d92b8_ligand_9.pdbqt
 14 15 0 0 0
SMALL
GASTEIGER

@<TRIPOS>ATOM
      1  C          5.5170    1.9240    1.2660 C.3     1  UNL1        0.0800
      2  C          5.0740    0.7070    2.0010 C.2     1  UNL1        0.1300
      3  C          5.9630   -0.4750    2.1630 C.3     1  UNL1        0.0870
      4  O          3.9600    0.6440    2.4950 O.2     1  UNL1       -0.3000
      5  C          5.3930    1.7360   -0.2340 C.3     1  UNL1        0.0430
      6  C          6.5610    1.0340   -0.7950 C.2     1  UNL1       -0.0440
      7  C          7.8680    1.4680   -0.5450 C.2     1  UNL1        0.0080
      8  C          6.3740   -0.0790   -1.5830 C.2     1  UNL1        0.0540
      9  C          8.9250    0.7690   -1.0980 C.2     1  UNL1        0.0510
     10  C          7.4460   -0.7830   -2.1400 C.2     1  UNL1        0.1660
     11  C          8.7320   -0.3550   -1.8950 C.2     1  UNL1        0.1650
     12  O          7.5200   -1.9000   -2.9450 O.2     1  UNL1       -0.4540
     13  O          9.5780   -1.2280   -2.5610 O.2     1  UNL1       -0.4540
     14  C          8.8550   -2.2750   -3.1640 C.3     1  UNL1        0.4680
@<TRIPOS>BOND
     1    14    12    1
     2    14    13    1
     3    12    10    1
     4    13    11    1
     5    10    11    2
     6    10     8    1
     7    11     9    1
     8     8     6    2
     9     9     7    2
    10     6     7    1
    11     6     5    1
    12     5     1    1
    13     1     2    1
    14     2     3    1
    15     2     4    2
