@<TRIPOS>MOLECULE
/home/cewinharhar/GITHUB/reincatalyze/data/processed/docking_pred/2023-May-24-1506_sub9_nm5_bs15_s42_ex16_mel10_mts10000_k50_ec02_g099_lra3e-4_lrc3e-3/090474ec6ad34f6c7e6271970b3dfdf762d08d64_ligand_9.pdbqt
 14 15 0 0 0
SMALL
GASTEIGER

@<TRIPOS>ATOM
      1  C          5.8540    0.3700    1.8030 C.3     1  UNL1        0.0800
      2  C          4.9800    1.4410    1.2480 C.2     1  UNL1        0.1300
      3  C          5.2350    2.0430   -0.0880 C.3     1  UNL1        0.0870
      4  O          4.0220    1.8580    1.8800 O.2     1  UNL1       -0.3000
      5  C          7.0290    0.0890    0.8870 C.3     1  UNL1        0.0430
      6  C          8.3000    0.5540    1.4700 C.2     1  UNL1       -0.0440
      7  C          8.3840    1.7580    2.1790 C.2     1  UNL1        0.0080
      8  C          9.4370   -0.2060    1.3220 C.2     1  UNL1        0.0540
      9  C          9.6040    2.1440    2.7050 C.2     1  UNL1        0.0510
     10  C         10.6680    0.1870    1.8560 C.2     1  UNL1        0.1660
     11  C         10.7520    1.3730    2.5530 C.2     1  UNL1        0.1650
     12  O         11.9230   -0.3830    1.8450 O.2     1  UNL1       -0.4540
     13  O         12.0700    1.5060    2.9600 O.2     1  UNL1       -0.4540
     14  C         12.8270    0.3710    2.6110 C.3     1  UNL1        0.4680
@<TRIPOS>BOND
     1     3     2    1
     2     5     6    1
     3     5     1    1
     4     2     1    1
     5     2     4    2
     6     8     6    2
     7     8    10    1
     8     6     7    1
     9    12    10    1
    10    12    14    1
    11    10    11    2
    12     7     9    2
    13    11     9    1
    14    11    13    1
    15    14    13    1
