@<TRIPOS>MOLECULE
/home/cewinharhar/GITHUB/reincatalyze/data/processed/docking_pred/2023-May-24-1506_sub9_nm5_bs15_s42_ex16_mel10_mts10000_k50_ec02_g099_lra3e-4_lrc3e-3/090474ec6ad34f6c7e6271970b3dfdf762d08d64_ligand_9.pdbqt
 14 15 0 0 0
SMALL
GASTEIGER

@<TRIPOS>ATOM
      1  C          6.4650   -0.1030   -0.7470 C.3     1  UNL1        0.0800
      2  C          7.1920   -0.6400   -1.9310 C.2     1  UNL1        0.1300
      3  C          8.2770    0.1310   -2.5950 C.3     1  UNL1        0.0870
      4  O          6.9160   -1.7350   -2.3920 O.2     1  UNL1       -0.3000
      5  C          6.9030   -0.7940    0.5290 C.3     1  UNL1        0.0430
      6  C          8.0210   -0.0860    1.1770 C.2     1  UNL1       -0.0440
      7  C          7.8300    1.1270    1.8480 C.2     1  UNL1        0.0080
      8  C          9.2880   -0.6230    1.1300 C.2     1  UNL1        0.0540
      9  C          8.9170    1.7460    2.4390 C.2     1  UNL1        0.0510
     10  C         10.3830    0.0070    1.7290 C.2     1  UNL1        0.1660
     11  C         10.1960    1.2010    2.3890 C.2     1  UNL1        0.1650
     12  O         11.7200   -0.3180    1.8200 O.2     1  UNL1       -0.4540
     13  O         11.4340    1.5880    2.8770 O.2     1  UNL1       -0.4540
     14  C         12.4120    0.6090    2.6170 C.3     1  UNL1        0.4680
@<TRIPOS>BOND
     1     3     2    1
     2     4     2    2
     3     2     1    1
     4     1     5    1
     5     5     6    1
     6     8     6    2
     7     8    10    1
     8     6     7    1
     9    10    12    1
    10    10    11    2
    11    12    14    1
    12     7     9    2
    13    11     9    1
    14    11    13    1
    15    14    13    1
