@<TRIPOS>MOLECULE
/home/cewinharhar/GITHUB/reincatalyze/data/processed/docking_pred/2023-May-24-1506_sub9_nm5_bs15_s42_ex16_mel10_mts10000_k50_ec02_g099_lra3e-4_lrc3e-3/090474ec6ad34f6c7e6271970b3dfdf762d08d64_ligand_9.pdbqt
 14 15 0 0 0
SMALL
GASTEIGER

@<TRIPOS>ATOM
      1  C          9.6860    1.3450    2.6630 C.3     1  UNL1        0.0800
      2  C         11.1300    0.9820    2.6910 C.2     1  UNL1        0.1300
      3  C         12.1030    1.7150    3.5440 C.3     1  UNL1        0.0870
      4  O         11.5590    0.0660    2.0080 O.2     1  UNL1       -0.3000
      5  C          9.3210    2.0540    1.3740 C.3     1  UNL1        0.0430
      6  C          8.5540    1.1800    0.4680 C.2     1  UNL1       -0.0440
      7  C          7.1590    1.0890    0.5450 C.2     1  UNL1        0.0080
      8  C          9.2140    0.4340   -0.4820 C.2     1  UNL1        0.0540
      9  C          6.4920    0.2530   -0.3320 C.2     1  UNL1        0.0510
     10  C          8.5340   -0.4090   -1.3660 C.2     1  UNL1        0.1660
     11  C          7.1620   -0.5010   -1.2910 C.2     1  UNL1        0.1650
     12  O          8.9560   -1.2410   -2.3820 O.2     1  UNL1       -0.4540
     13  O          6.7650   -1.3950   -2.2720 O.2     1  UNL1       -0.4540
     14  C          7.8620   -1.8190   -3.0470 C.3     1  UNL1        0.4680
@<TRIPOS>BOND
     1    14    12    1
     2    14    13    1
     3    12    10    1
     4    13    11    1
     5    10    11    2
     6    10     8    1
     7    11     9    1
     8     8     6    2
     9     9     7    2
    10     6     7    1
    11     6     5    1
    12     5     1    1
    13     4     2    2
    14     1     2    1
    15     2     3    1
