MODEL 1
REMARK VINA RESULT:      -7.0      0.000      0.000
REMARK SMILES CC(=O)CCc1ccc2c(c1)OCO2
REMARK SMILES IDX 4 1 2 2 1 3 3 4 5 5 6 6 7 7 11 8 8 9 10 10 9 11 12 12 14 13
REMARK SMILES IDX 13 14
REMARK H PARENT
REMARK Flexibility Score: inf
ROOT
ATOM      1  C   UNL     1       9.686   1.345   2.663  1.00  0.00     0.080 C 
ENDROOT
BRANCH   1   2
ATOM      2  C   UNL     1      11.130   0.982   2.691  1.00  0.00     0.130 C 
ATOM      3  C   UNL     1      12.103   1.715   3.544  1.00  0.00     0.087 C 
ATOM      4  O   UNL     1      11.559   0.066   2.008  1.00  0.00    -0.300 OA
ENDBRANCH   1   2
BRANCH   1   5
ATOM      5  C   UNL     1       9.321   2.054   1.374  1.00  0.00     0.043 C 
BRANCH   5   6
ATOM      6  C   UNL     1       8.554   1.180   0.468  1.00  0.00    -0.044 A 
ATOM      7  C   UNL     1       7.159   1.089   0.545  1.00  0.00     0.008 A 
ATOM      8  C   UNL     1       9.214   0.434  -0.482  1.00  0.00     0.054 A 
ATOM      9  C   UNL     1       6.492   0.253  -0.332  1.00  0.00     0.051 A 
ATOM     10  C   UNL     1       8.534  -0.409  -1.366  1.00  0.00     0.166 A 
ATOM     11  C   UNL     1       7.162  -0.501  -1.291  1.00  0.00     0.165 A 
ATOM     12  O   UNL     1       8.956  -1.241  -2.382  1.00  0.00    -0.454 OA
ATOM     13  O   UNL     1       6.765  -1.395  -2.272  1.00  0.00    -0.454 OA
ATOM     14  C   UNL     1       7.862  -1.819  -3.047  1.00  0.00     0.468 C 
ENDBRANCH   5   6
ENDBRANCH   1   5
TORSDOF 3
ENDMDL
MODEL 2
REMARK VINA RESULT:      -7.0      2.733      3.970
REMARK SMILES CC(=O)CCc1ccc2c(c1)OCO2
REMARK SMILES IDX 4 1 2 2 1 3 3 4 5 5 6 6 7 7 11 8 8 9 10 10 9 11 12 12 14 13
REMARK SMILES IDX 13 14
REMARK H PARENT
REMARK Flexibility Score: inf
ROOT
ATOM      1  C   UNL     1       5.508   1.926   1.291  1.00  0.00     0.080 C 
ENDROOT
BRANCH   1   2
ATOM      2  C   UNL     1       5.021   0.712   2.003  1.00  0.00     0.130 C 
ATOM      3  C   UNL     1       5.860  -0.510   2.125  1.00  0.00     0.087 C 
ATOM      4  O   UNL     1       3.911   0.685   2.509  1.00  0.00    -0.300 OA
ENDBRANCH   1   2
BRANCH   1   5
ATOM      5  C   UNL     1       5.401   1.763  -0.213  1.00  0.00     0.043 C 
BRANCH   5   6
ATOM      6  C   UNL     1       6.567   1.055  -0.770  1.00  0.00    -0.044 A 
ATOM      7  C   UNL     1       7.876   1.462  -0.488  1.00  0.00     0.008 A 
ATOM      8  C   UNL     1       6.376  -0.036  -1.587  1.00  0.00     0.054 A 
ATOM      9  C   UNL     1       8.931   0.758  -1.038  1.00  0.00     0.051 A 
ATOM     10  C   UNL     1       7.446  -0.745  -2.141  1.00  0.00     0.166 A 
ATOM     11  C   UNL     1       8.735  -0.344  -1.865  1.00  0.00     0.165 A 
ATOM     12  O   UNL     1       7.517  -1.844  -2.970  1.00  0.00    -0.454 OA
ATOM     13  O   UNL     1       9.578  -1.215  -2.536  1.00  0.00    -0.454 OA
ATOM     14  C   UNL     1       8.850  -2.236  -3.176  1.00  0.00     0.468 C 
ENDBRANCH   5   6
ENDBRANCH   1   5
TORSDOF 3
ENDMDL
MODEL 3
REMARK VINA RESULT:      -6.9      2.793      5.463
REMARK SMILES CC(=O)CCc1ccc2c(c1)OCO2
REMARK SMILES IDX 4 1 2 2 1 3 3 4 5 5 6 6 7 7 11 8 8 9 10 10 9 11 12 12 14 13
REMARK SMILES IDX 13 14
REMARK H PARENT
REMARK Flexibility Score: inf
ROOT
ATOM      1  C   UNL     1       5.854   0.370   1.803  1.00  0.00     0.080 C 
ENDROOT
BRANCH   1   2
ATOM      2  C   UNL     1       4.980   1.441   1.248  1.00  0.00     0.130 C 
ATOM      3  C   UNL     1       5.235   2.043  -0.088  1.00  0.00     0.087 C 
ATOM      4  O   UNL     1       4.022   1.858   1.880  1.00  0.00    -0.300 OA
ENDBRANCH   1   2
BRANCH   1   5
ATOM      5  C   UNL     1       7.029   0.089   0.887  1.00  0.00     0.043 C 
BRANCH   5   6
ATOM      6  C   UNL     1       8.300   0.554   1.470  1.00  0.00    -0.044 A 
ATOM      7  C   UNL     1       8.384   1.758   2.179  1.00  0.00     0.008 A 
ATOM      8  C   UNL     1       9.437  -0.206   1.322  1.00  0.00     0.054 A 
ATOM      9  C   UNL     1       9.604   2.144   2.705  1.00  0.00     0.051 A 
ATOM     10  C   UNL     1      10.668   0.187   1.856  1.00  0.00     0.166 A 
ATOM     11  C   UNL     1      10.752   1.373   2.553  1.00  0.00     0.165 A 
ATOM     12  O   UNL     1      11.923  -0.383   1.845  1.00  0.00    -0.454 OA
ATOM     13  O   UNL     1      12.070   1.506   2.960  1.00  0.00    -0.454 OA
ATOM     14  C   UNL     1      12.827   0.371   2.611  1.00  0.00     0.468 C 
ENDBRANCH   5   6
ENDBRANCH   1   5
TORSDOF 3
ENDMDL
MODEL 4
REMARK VINA RESULT:      -6.8      2.644      5.263
REMARK SMILES CC(=O)CCc1ccc2c(c1)OCO2
REMARK SMILES IDX 4 1 2 2 1 3 3 4 5 5 6 6 7 7 11 8 8 9 10 10 9 11 12 12 14 13
REMARK SMILES IDX 13 14
REMARK H PARENT
REMARK Flexibility Score: inf
ROOT
ATOM      1  C   UNL     1       5.776   0.928   0.259  1.00  0.00     0.080 C 
ENDROOT
BRANCH   1   2
ATOM      2  C   UNL     1       5.490   0.142   1.492  1.00  0.00     0.130 C 
ATOM      3  C   UNL     1       6.078  -1.207   1.712  1.00  0.00     0.087 C 
ATOM      4  O   UNL     1       4.759   0.586   2.363  1.00  0.00    -0.300 OA
ENDBRANCH   1   2
BRANCH   1   5
ATOM      5  C   UNL     1       6.618   2.150   0.569  1.00  0.00     0.043 C 
BRANCH   5   6
ATOM      6  C   UNL     1       8.032   1.798   0.787  1.00  0.00    -0.044 A 
ATOM      7  C   UNL     1       8.831   1.295  -0.246  1.00  0.00     0.008 A 
ATOM      8  C   UNL     1       8.593   1.967   2.033  1.00  0.00     0.054 A 
ATOM      9  C   UNL     1      10.152   0.983   0.018  1.00  0.00     0.051 A 
ATOM     10  C   UNL     1       9.929   1.651   2.295  1.00  0.00     0.166 A 
ATOM     11  C   UNL     1      10.715   1.155   1.278  1.00  0.00     0.165 A 
ATOM     12  O   UNL     1      10.708   1.727   3.430  1.00  0.00    -0.454 OA
ATOM     13  O   UNL     1      11.974   0.935   1.816  1.00  0.00    -0.454 OA
ATOM     14  C   UNL     1      12.038   1.369   3.154  1.00  0.00     0.468 C 
ENDBRANCH   5   6
ENDBRANCH   1   5
TORSDOF 3
ENDMDL
MODEL 5
REMARK VINA RESULT:      -6.7      1.300      5.225
REMARK SMILES CC(=O)CCc1ccc2c(c1)OCO2
REMARK SMILES IDX 4 1 2 2 1 3 3 4 5 5 6 6 7 7 11 8 8 9 10 10 9 11 12 12 14 13
REMARK SMILES IDX 13 14
REMARK H PARENT
REMARK Flexibility Score: inf
ROOT
ATOM      1  C   UNL     1       6.465  -0.103  -0.747  1.00  0.00     0.080 C 
ENDROOT
BRANCH   1   2
ATOM      2  C   UNL     1       7.192  -0.640  -1.931  1.00  0.00     0.130 C 
ATOM      3  C   UNL     1       8.277   0.131  -2.595  1.00  0.00     0.087 C 
ATOM      4  O   UNL     1       6.916  -1.735  -2.392  1.00  0.00    -0.300 OA
ENDBRANCH   1   2
BRANCH   1   5
ATOM      5  C   UNL     1       6.903  -0.794   0.529  1.00  0.00     0.043 C 
BRANCH   5   6
ATOM      6  C   UNL     1       8.021  -0.086   1.177  1.00  0.00    -0.044 A 
ATOM      7  C   UNL     1       7.830   1.127   1.848  1.00  0.00     0.008 A 
ATOM      8  C   UNL     1       9.288  -0.623   1.130  1.00  0.00     0.054 A 
ATOM      9  C   UNL     1       8.917   1.746   2.439  1.00  0.00     0.051 A 
ATOM     10  C   UNL     1      10.383   0.007   1.729  1.00  0.00     0.166 A 
ATOM     11  C   UNL     1      10.196   1.201   2.389  1.00  0.00     0.165 A 
ATOM     12  O   UNL     1      11.720  -0.318   1.820  1.00  0.00    -0.454 OA
ATOM     13  O   UNL     1      11.434   1.588   2.877  1.00  0.00    -0.454 OA
ATOM     14  C   UNL     1      12.412   0.609   2.617  1.00  0.00     0.468 C 
ENDBRANCH   5   6
ENDBRANCH   1   5
TORSDOF 3
ENDMDL
