@<TRIPOS>MOLECULE
/home/cewinharhar/GITHUB/reincatalyze/data/processed/docking_pred/2023-May-24-1506_sub9_nm5_bs15_s42_ex16_mel10_mts10000_k50_ec02_g099_lra3e-4_lrc3e-3/090474ec6ad34f6c7e6271970b3dfdf762d08d64_ligand_9.pdbqt
 14 15 0 0 0
SMALL
GASTEIGER

@<TRIPOS>ATOM
      1  C          5.7760    0.9280    0.2590 C.3     1  UNL1        0.0800
      2  C          5.4900    0.1420    1.4920 C.2     1  UNL1        0.1300
      3  C          6.0780   -1.2070    1.7120 C.3     1  UNL1        0.0870
      4  O          4.7590    0.5860    2.3630 O.2     1  UNL1       -0.3000
      5  C          6.6180    2.1500    0.5690 C.3     1  UNL1        0.0430
      6  C          8.0320    1.7980    0.7870 C.2     1  UNL1       -0.0440
      7  C          8.8310    1.2950   -0.2460 C.2     1  UNL1        0.0080
      8  C          8.5930    1.9670    2.0330 C.2     1  UNL1        0.0540
      9  C         10.1520    0.9830    0.0180 C.2     1  UNL1        0.0510
     10  C          9.9290    1.6510    2.2950 C.2     1  UNL1        0.1660
     11  C         10.7150    1.1550    1.2780 C.2     1  UNL1        0.1650
     12  O         10.7080    1.7270    3.4300 O.2     1  UNL1       -0.4540
     13  O         11.9740    0.9350    1.8160 O.2     1  UNL1       -0.4540
     14  C         12.0380    1.3690    3.1540 C.3     1  UNL1        0.4680
@<TRIPOS>BOND
     1     7     9    1
     2     7     6    2
     3     9    11    2
     4     1     5    1
     5     1     2    1
     6     5     6    1
     7     6     8    1
     8    11    13    1
     9    11    10    1
    10     2     3    1
    11     2     4    2
    12    13    14    1
    13     8    10    2
    14    10    12    1
    15    14    12    1
