@<TRIPOS>MOLECULE
/home/cewinharhar/GITHUB/reincatalyze/data/processed/docking_pred/2023-May-24-1506_sub9_nm5_bs15_s42_ex16_mel10_mts10000_k50_ec02_g099_lra3e-4_lrc3e-3/090474ec6ad34f6c7e6271970b3dfdf762d08d64_ligand_9.pdbqt
 14 15 0 0 0
SMALL
GASTEIGER

@<TRIPOS>ATOM
      1  C          5.5080    1.9260    1.2910 C.3     1  UNL1        0.0800
      2  C          5.0210    0.7120    2.0030 C.2     1  UNL1        0.1300
      3  C          5.8600   -0.5100    2.1250 C.3     1  UNL1        0.0870
      4  O          3.9110    0.6850    2.5090 O.2     1  UNL1       -0.3000
      5  C          5.4010    1.7630   -0.2130 C.3     1  UNL1        0.0430
      6  C          6.5670    1.0550   -0.7700 C.2     1  UNL1       -0.0440
      7  C          7.8760    1.4620   -0.4880 C.2     1  UNL1        0.0080
      8  C          6.3760   -0.0360   -1.5870 C.2     1  UNL1        0.0540
      9  C          8.9310    0.7580   -1.0380 C.2     1  UNL1        0.0510
     10  C          7.4460   -0.7450   -2.1410 C.2     1  UNL1        0.1660
     11  C          8.7350   -0.3440   -1.8650 C.2     1  UNL1        0.1650
     12  O          7.5170   -1.8440   -2.9700 O.2     1  UNL1       -0.4540
     13  O          9.5780   -1.2150   -2.5360 O.2     1  UNL1       -0.4540
     14  C          8.8500   -2.2360   -3.1760 C.3     1  UNL1        0.4680
@<TRIPOS>BOND
     1    14    12    1
     2    14    13    1
     3    12    10    1
     4    13    11    1
     5    10    11    2
     6    10     8    1
     7    11     9    1
     8     8     6    2
     9     9     7    2
    10     6     7    1
    11     6     5    1
    12     5     1    1
    13     1     2    1
    14     2     3    1
    15     2     4    2
