@<TRIPOS>MOLECULE
/home/cewinharhar/GITHUB/reincatalyze/data/processed/docking_pred/2023-May-24-1506_sub9_nm5_bs15_s42_ex16_mel10_mts10000_k50_ec02_g099_lra3e-4_lrc3e-3/09c0e00cbaa22f287e1ef7d21129eabb08ea3244_ligand_9.pdbqt
 14 15 0 0 0
SMALL
GASTEIGER

@<TRIPOS>ATOM
      1  C          5.8910    1.2690   -0.3120 C.3     1  UNL1        0.0800
      2  C          5.2960    1.1250    1.0460 C.2     1  UNL1        0.1300
      3  C          5.6040   -0.0440    1.9130 C.3     1  UNL1        0.0870
      4  O          4.5340    1.9690    1.4890 O.2     1  UNL1       -0.3000
      5  C          7.4050    1.2720   -0.2530 C.3     1  UNL1        0.0430
      6  C          7.9860    0.1770   -1.0500 C.2     1  UNL1       -0.0440
      7  C          7.4410   -0.2010   -2.2830 C.2     1  UNL1        0.0080
      8  C          9.0920   -0.4950   -0.5830 C.2     1  UNL1        0.0540
      9  C          8.0290   -1.2350   -2.9880 C.2     1  UNL1        0.0510
     10  C          9.6830   -1.5400   -1.3000 C.2     1  UNL1        0.1660
     11  C          9.1470   -1.9130   -2.5120 C.2     1  UNL1        0.1650
     12  O         10.7690   -2.3520   -1.0530 O.2     1  UNL1       -0.4540
     13  O          9.9240   -2.9570   -2.9900 O.2     1  UNL1       -0.4540
     14  C         11.0170   -3.2070   -2.1390 C.3     1  UNL1        0.4680
@<TRIPOS>BOND
     1    13    11    1
     2    13    14    1
     3     9    11    2
     4     9     7    1
     5    11    10    1
     6     7     6    2
     7    14    12    1
     8    10    12    1
     9    10     8    2
    10     6     8    1
    11     6     5    1
    12     1     5    1
    13     1     2    1
    14     2     4    2
    15     2     3    1
