@<TRIPOS>MOLECULE
/home/cewinharhar/GITHUB/reincatalyze/data/processed/docking_pred/2023-May-24-1506_sub9_nm5_bs15_s42_ex16_mel10_mts10000_k50_ec02_g099_lra3e-4_lrc3e-3/09c0e00cbaa22f287e1ef7d21129eabb08ea3244_ligand_9.pdbqt
 14 15 0 0 0
SMALL
GASTEIGER

@<TRIPOS>ATOM
      1  C          6.6780    0.3070    1.7080 C.3     1  UNL1        0.0800
      2  C          5.3730    1.0040    1.5400 C.2     1  UNL1        0.1300
      3  C          5.1380    1.9660    0.4300 C.3     1  UNL1        0.0870
      4  O          4.4520    0.8050    2.3160 O.2     1  UNL1       -0.3000
      5  C          6.5620   -1.1670    1.3710 C.3     1  UNL1        0.0430
      6  C          7.2900   -1.5030    0.1340 C.2     1  UNL1       -0.0440
      7  C          6.8580   -1.0500   -1.1170 C.2     1  UNL1        0.0080
      8  C          8.4250   -2.2790    0.2010 C.2     1  UNL1        0.0540
      9  C          7.5820   -1.3980   -2.2430 C.2     1  UNL1        0.0510
     10  C          9.1540   -2.6270   -0.9410 C.2     1  UNL1        0.1660
     11  C          8.7290   -2.1820   -2.1730 C.2     1  UNL1        0.1650
     12  O         10.2960   -3.3750   -1.1350 O.2     1  UNL1       -0.4540
     13  O          9.6280   -2.6710   -3.1070 O.2     1  UNL1       -0.4540
     14  C         10.6880   -3.3560   -2.4830 C.3     1  UNL1        0.4680
@<TRIPOS>BOND
     1    13    14    1
     2    13    11    1
     3    14    12    1
     4     9    11    2
     5     9     7    1
     6    11    10    1
     7    12    10    1
     8     7     6    2
     9    10     8    2
    10     6     8    1
    11     6     5    1
    12     3     2    1
    13     5     1    1
    14     2     1    1
    15     2     4    2
