@<TRIPOS>MOLECULE
/home/cewinharhar/GITHUB/reincatalyze/data/processed/docking_pred/2023-May-24-1506_sub9_nm5_bs15_s42_ex16_mel10_mts10000_k50_ec02_g099_lra3e-4_lrc3e-3/09c0e00cbaa22f287e1ef7d21129eabb08ea3244_ligand_9.pdbqt
 14 15 0 0 0
SMALL
GASTEIGER

@<TRIPOS>ATOM
      1  C          6.3320    1.6750    0.1250 C.3     1  UNL1        0.0800
      2  C          5.2600    1.3730    1.1150 C.2     1  UNL1        0.1300
      3  C          5.2710    0.1230    1.9200 C.3     1  UNL1        0.0870
      4  O          4.3360    2.1500    1.2940 O.2     1  UNL1       -0.3000
      5  C          6.3310    0.6700   -1.0100 C.3     1  UNL1        0.0430
      6  C          7.5610   -0.1430   -1.0200 C.2     1  UNL1       -0.0440
      7  C          8.4710   -0.1100    0.0430 C.2     1  UNL1        0.0080
      8  C          7.8300   -0.9590   -2.0960 C.2     1  UNL1        0.0540
      9  C          9.6070   -0.8950   -0.0220 C.2     1  UNL1        0.0510
     10  C          8.9800   -1.7510   -2.1560 C.2     1  UNL1        0.1660
     11  C          9.8770   -1.7180   -1.1110 C.2     1  UNL1        0.1650
     12  O          9.4670   -2.6310   -3.1000 O.2     1  UNL1       -0.4540
     13  O         10.9050   -2.5890   -1.4370 O.2     1  UNL1       -0.4540
     14  C         10.6400   -3.2560   -2.6480 C.3     1  UNL1        0.4680
@<TRIPOS>BOND
     1    12    14    1
     2    12    10    1
     3    14    13    1
     4    10     8    1
     5    10    11    2
     6     8     6    2
     7    13    11    1
     8    11     9    1
     9     6     5    1
    10     6     7    1
    11     5     1    1
    12     9     7    2
    13     1     2    1
    14     2     4    2
    15     2     3    1
