@<TRIPOS>MOLECULE
/home/cewinharhar/GITHUB/reincatalyze/data/processed/docking_pred/2023-May-24-1506_sub9_nm5_bs15_s42_ex16_mel10_mts10000_k50_ec02_g099_lra3e-4_lrc3e-3/09c0e00cbaa22f287e1ef7d21129eabb08ea3244_ligand_9.pdbqt
 14 15 0 0 0
SMALL
GASTEIGER

@<TRIPOS>ATOM
      1  C          6.6530    0.2000    0.9960 C.3     1  UNL1        0.0800
      2  C          5.4040    0.9540    1.2960 C.2     1  UNL1        0.1300
      3  C          4.9570    2.0930    0.4510 C.3     1  UNL1        0.0870
      4  O          4.7070    0.6560    2.2530 O.2     1  UNL1       -0.3000
      5  C          7.4360    0.8570   -0.1240 C.3     1  UNL1        0.0430
      6  C          8.0840   -0.1400   -0.9950 C.2     1  UNL1       -0.0440
      7  C          7.6700   -0.3370   -2.3170 C.2     1  UNL1        0.0080
      8  C          9.1230   -0.9000   -0.5070 C.2     1  UNL1        0.0540
      9  C          8.3160   -1.2860   -3.0880 C.2     1  UNL1        0.0510
     10  C          9.7730   -1.8580   -1.2910 C.2     1  UNL1        0.1660
     11  C          9.3660   -2.0530   -2.5920 C.2     1  UNL1        0.1650
     12  O         10.8150   -2.7260   -1.0420 O.2     1  UNL1       -0.4540
     13  O         10.1750   -3.0470   -3.1200 O.2     1  UNL1       -0.4540
     14  C         11.1660   -3.4380   -2.2000 C.3     1  UNL1        0.4680
@<TRIPOS>BOND
     1    13    11    1
     2    13    14    1
     3     9    11    2
     4     9     7    1
     5    11    10    1
     6     7     6    2
     7    14    12    1
     8    10    12    1
     9    10     8    2
    10     6     8    1
    11     6     5    1
    12     5     1    1
    13     3     2    1
    14     1     2    1
    15     2     4    2
