MODEL 1
REMARK VINA RESULT:      -8.1      0.000      0.000
REMARK SMILES CC(=O)CCc1ccc2c(c1)OCO2
REMARK SMILES IDX 4 1 2 2 1 3 3 4 5 5 6 6 7 7 11 8 8 9 10 10 9 11 12 12 14 13
REMARK SMILES IDX 13 14
REMARK H PARENT
REMARK Flexibility Score: inf
ROOT
ATOM      1  C   UNL     1       5.847   1.613   0.880  1.00  0.00     0.080 C 
ENDROOT
BRANCH   1   2
ATOM      2  C   UNL     1       5.395   0.597   1.871  1.00  0.00     0.130 C 
ATOM      3  C   UNL     1       6.238  -0.575   2.227  1.00  0.00     0.087 C 
ATOM      4  O   UNL     1       4.311   0.698   2.423  1.00  0.00    -0.300 OA
ENDBRANCH   1   2
BRANCH   1   5
ATOM      5  C   UNL     1       5.760   1.078  -0.536  1.00  0.00     0.043 C 
BRANCH   5   6
ATOM      6  C   UNL     1       7.009   0.415  -0.947  1.00  0.00    -0.044 A 
ATOM      7  C   UNL     1       8.258   1.016  -0.750  1.00  0.00     0.008 A 
ATOM      8  C   UNL     1       6.960  -0.828  -1.538  1.00  0.00     0.054 A 
ATOM      9  C   UNL     1       9.397   0.345  -1.156  1.00  0.00     0.051 A 
ATOM     10  C   UNL     1       8.115  -1.502  -1.946  1.00  0.00     0.166 A 
ATOM     11  C   UNL     1       9.343  -0.910  -1.754  1.00  0.00     0.165 A 
ATOM     12  O   UNL     1       8.326  -2.724  -2.548  1.00  0.00    -0.454 OA
ATOM     13  O   UNL     1      10.294  -1.791  -2.246  1.00  0.00    -0.454 OA
ATOM     14  C   UNL     1       9.699  -2.993  -2.675  1.00  0.00     0.468 C 
ENDBRANCH   5   6
ENDBRANCH   1   5
TORSDOF 3
ENDMDL
MODEL 2
REMARK VINA RESULT:      -7.6      1.113      1.782
REMARK SMILES CC(=O)CCc1ccc2c(c1)OCO2
REMARK SMILES IDX 4 1 2 2 1 3 3 4 5 5 6 6 7 7 11 8 8 9 10 10 9 11 12 12 14 13
REMARK SMILES IDX 13 14
REMARK H PARENT
REMARK Flexibility Score: inf
ROOT
ATOM      1  C   UNL     1       5.891   1.269  -0.312  1.00  0.00     0.080 C 
ENDROOT
BRANCH   1   2
ATOM      2  C   UNL     1       5.296   1.125   1.046  1.00  0.00     0.130 C 
ATOM      3  C   UNL     1       5.604  -0.044   1.913  1.00  0.00     0.087 C 
ATOM      4  O   UNL     1       4.534   1.969   1.489  1.00  0.00    -0.300 OA
ENDBRANCH   1   2
BRANCH   1   5
ATOM      5  C   UNL     1       7.405   1.272  -0.253  1.00  0.00     0.043 C 
BRANCH   5   6
ATOM      6  C   UNL     1       7.986   0.177  -1.050  1.00  0.00    -0.044 A 
ATOM      7  C   UNL     1       7.441  -0.201  -2.283  1.00  0.00     0.008 A 
ATOM      8  C   UNL     1       9.092  -0.495  -0.583  1.00  0.00     0.054 A 
ATOM      9  C   UNL     1       8.029  -1.235  -2.988  1.00  0.00     0.051 A 
ATOM     10  C   UNL     1       9.683  -1.540  -1.300  1.00  0.00     0.166 A 
ATOM     11  C   UNL     1       9.147  -1.913  -2.512  1.00  0.00     0.165 A 
ATOM     12  O   UNL     1      10.769  -2.352  -1.053  1.00  0.00    -0.454 OA
ATOM     13  O   UNL     1       9.924  -2.957  -2.990  1.00  0.00    -0.454 OA
ATOM     14  C   UNL     1      11.017  -3.207  -2.139  1.00  0.00     0.468 C 
ENDBRANCH   5   6
ENDBRANCH   1   5
TORSDOF 3
ENDMDL
MODEL 3
REMARK VINA RESULT:      -7.3      1.247      2.007
REMARK SMILES CC(=O)CCc1ccc2c(c1)OCO2
REMARK SMILES IDX 4 1 2 2 1 3 3 4 5 5 6 6 7 7 11 8 8 9 10 10 9 11 12 12 14 13
REMARK SMILES IDX 13 14
REMARK H PARENT
REMARK Flexibility Score: inf
ROOT
ATOM      1  C   UNL     1       6.653   0.200   0.996  1.00  0.00     0.080 C 
ENDROOT
BRANCH   1   2
ATOM      2  C   UNL     1       5.404   0.954   1.296  1.00  0.00     0.130 C 
ATOM      3  C   UNL     1       4.957   2.093   0.451  1.00  0.00     0.087 C 
ATOM      4  O   UNL     1       4.707   0.656   2.253  1.00  0.00    -0.300 OA
ENDBRANCH   1   2
BRANCH   1   5
ATOM      5  C   UNL     1       7.436   0.857  -0.124  1.00  0.00     0.043 C 
BRANCH   5   6
ATOM      6  C   UNL     1       8.084  -0.140  -0.995  1.00  0.00    -0.044 A 
ATOM      7  C   UNL     1       7.670  -0.337  -2.317  1.00  0.00     0.008 A 
ATOM      8  C   UNL     1       9.123  -0.900  -0.507  1.00  0.00     0.054 A 
ATOM      9  C   UNL     1       8.316  -1.286  -3.088  1.00  0.00     0.051 A 
ATOM     10  C   UNL     1       9.773  -1.858  -1.291  1.00  0.00     0.166 A 
ATOM     11  C   UNL     1       9.366  -2.053  -2.592  1.00  0.00     0.165 A 
ATOM     12  O   UNL     1      10.815  -2.726  -1.042  1.00  0.00    -0.454 OA
ATOM     13  O   UNL     1      10.175  -3.047  -3.120  1.00  0.00    -0.454 OA
ATOM     14  C   UNL     1      11.166  -3.438  -2.200  1.00  0.00     0.468 C 
ENDBRANCH   5   6
ENDBRANCH   1   5
TORSDOF 3
ENDMDL
MODEL 4
REMARK VINA RESULT:      -7.3      1.425      2.149
REMARK SMILES CC(=O)CCc1ccc2c(c1)OCO2
REMARK SMILES IDX 4 1 2 2 1 3 3 4 5 5 6 6 7 7 11 8 8 9 10 10 9 11 12 12 14 13
REMARK SMILES IDX 13 14
REMARK H PARENT
REMARK Flexibility Score: inf
ROOT
ATOM      1  C   UNL     1       6.678   0.307   1.708  1.00  0.00     0.080 C 
ENDROOT
BRANCH   1   2
ATOM      2  C   UNL     1       5.373   1.004   1.540  1.00  0.00     0.130 C 
ATOM      3  C   UNL     1       5.138   1.966   0.430  1.00  0.00     0.087 C 
ATOM      4  O   UNL     1       4.452   0.805   2.316  1.00  0.00    -0.300 OA
ENDBRANCH   1   2
BRANCH   1   5
ATOM      5  C   UNL     1       6.562  -1.167   1.371  1.00  0.00     0.043 C 
BRANCH   5   6
ATOM      6  C   UNL     1       7.290  -1.503   0.134  1.00  0.00    -0.044 A 
ATOM      7  C   UNL     1       6.858  -1.050  -1.117  1.00  0.00     0.008 A 
ATOM      8  C   UNL     1       8.425  -2.279   0.201  1.00  0.00     0.054 A 
ATOM      9  C   UNL     1       7.582  -1.398  -2.243  1.00  0.00     0.051 A 
ATOM     10  C   UNL     1       9.154  -2.627  -0.941  1.00  0.00     0.166 A 
ATOM     11  C   UNL     1       8.729  -2.182  -2.173  1.00  0.00     0.165 A 
ATOM     12  O   UNL     1      10.296  -3.375  -1.135  1.00  0.00    -0.454 OA
ATOM     13  O   UNL     1       9.628  -2.671  -3.107  1.00  0.00    -0.454 OA
ATOM     14  C   UNL     1      10.688  -3.356  -2.483  1.00  0.00     0.468 C 
ENDBRANCH   5   6
ENDBRANCH   1   5
TORSDOF 3
ENDMDL
MODEL 5
REMARK VINA RESULT:      -7.3      1.133      1.212
REMARK SMILES CC(=O)CCc1ccc2c(c1)OCO2
REMARK SMILES IDX 4 1 2 2 1 3 3 4 5 5 6 6 7 7 11 8 8 9 10 10 9 11 12 12 14 13
REMARK SMILES IDX 13 14
REMARK H PARENT
REMARK Flexibility Score: inf
ROOT
ATOM      1  C   UNL     1       6.332   1.675   0.125  1.00  0.00     0.080 C 
ENDROOT
BRANCH   1   2
ATOM      2  C   UNL     1       5.260   1.373   1.115  1.00  0.00     0.130 C 
ATOM      3  C   UNL     1       5.271   0.123   1.920  1.00  0.00     0.087 C 
ATOM      4  O   UNL     1       4.336   2.150   1.294  1.00  0.00    -0.300 OA
ENDBRANCH   1   2
BRANCH   1   5
ATOM      5  C   UNL     1       6.331   0.670  -1.010  1.00  0.00     0.043 C 
BRANCH   5   6
ATOM      6  C   UNL     1       7.561  -0.143  -1.020  1.00  0.00    -0.044 A 
ATOM      7  C   UNL     1       8.471  -0.110   0.043  1.00  0.00     0.008 A 
ATOM      8  C   UNL     1       7.830  -0.959  -2.096  1.00  0.00     0.054 A 
ATOM      9  C   UNL     1       9.607  -0.895  -0.022  1.00  0.00     0.051 A 
ATOM     10  C   UNL     1       8.980  -1.751  -2.156  1.00  0.00     0.166 A 
ATOM     11  C   UNL     1       9.877  -1.718  -1.111  1.00  0.00     0.165 A 
ATOM     12  O   UNL     1       9.467  -2.631  -3.100  1.00  0.00    -0.454 OA
ATOM     13  O   UNL     1      10.905  -2.589  -1.437  1.00  0.00    -0.454 OA
ATOM     14  C   UNL     1      10.640  -3.256  -2.648  1.00  0.00     0.468 C 
ENDBRANCH   5   6
ENDBRANCH   1   5
TORSDOF 3
ENDMDL
