@<TRIPOS>MOLECULE
/home/cewinharhar/GITHUB/reincatalyze/data/processed/docking_pred/2023-May-24-1506_sub9_nm5_bs15_s42_ex16_mel10_mts10000_k50_ec02_g099_lra3e-4_lrc3e-3/09c0e00cbaa22f287e1ef7d21129eabb08ea3244_ligand_9.pdbqt
 14 15 0 0 0
SMALL
GASTEIGER

@<TRIPOS>ATOM
      1  C          5.8470    1.6130    0.8800 C.3     1  UNL1        0.0800
      2  C          5.3950    0.5970    1.8710 C.2     1  UNL1        0.1300
      3  C          6.2380   -0.5750    2.2270 C.3     1  UNL1        0.0870
      4  O          4.3110    0.6980    2.4230 O.2     1  UNL1       -0.3000
      5  C          5.7600    1.0780   -0.5360 C.3     1  UNL1        0.0430
      6  C          7.0090    0.4150   -0.9470 C.2     1  UNL1       -0.0440
      7  C          8.2580    1.0160   -0.7500 C.2     1  UNL1        0.0080
      8  C          6.9600   -0.8280   -1.5380 C.2     1  UNL1        0.0540
      9  C          9.3970    0.3450   -1.1560 C.2     1  UNL1        0.0510
     10  C          8.1150   -1.5020   -1.9460 C.2     1  UNL1        0.1660
     11  C          9.3430   -0.9100   -1.7540 C.2     1  UNL1        0.1650
     12  O          8.3260   -2.7240   -2.5480 O.2     1  UNL1       -0.4540
     13  O         10.2940   -1.7910   -2.2460 O.2     1  UNL1       -0.4540
     14  C          9.6990   -2.9930   -2.6750 C.3     1  UNL1        0.4680
@<TRIPOS>BOND
     1    14    12    1
     2    14    13    1
     3    12    10    1
     4    13    11    1
     5    10    11    2
     6    10     8    1
     7    11     9    1
     8     8     6    2
     9     9     7    2
    10     6     7    1
    11     6     5    1
    12     5     1    1
    13     1     2    1
    14     2     3    1
    15     2     4    2
