@<TRIPOS>MOLECULE
/home/cewinharhar/GITHUB/reincatalyze/data/processed/docking_pred/2023-May-24-1506_sub9_nm5_bs15_s42_ex16_mel10_mts10000_k50_ec02_g099_lra3e-4_lrc3e-3/0bc78f1071f374665515956646110ea4a2a90639_ligand_9.pdbqt
 14 15 0 0 0
SMALL
GASTEIGER

@<TRIPOS>ATOM
      1  C          5.1290    0.4810    1.4860 C.3     1  UNL1        0.0800
      2  C          6.2680   -0.1970    2.1670 C.2     1  UNL1        0.1300
      3  C          6.4640   -1.6690    2.0820 C.3     1  UNL1        0.0870
      4  O          7.0770    0.4420    2.8190 O.2     1  UNL1       -0.3000
      5  C          5.6170    1.4160    0.3970 C.3     1  UNL1        0.0430
      6  C          6.7130    0.8190   -0.3860 C.2     1  UNL1       -0.0440
      7  C          7.9870    1.3980   -0.4240 C.2     1  UNL1        0.0080
      8  C          6.4920   -0.3380   -1.0980 C.2     1  UNL1        0.0540
      9  C          8.9770    0.7920   -1.1760 C.2     1  UNL1        0.0510
     10  C          7.4970   -0.9470   -1.8560 C.2     1  UNL1        0.1660
     11  C          8.7500   -0.3770   -1.8950 C.2     1  UNL1        0.1650
     12  O          7.5260   -2.0810   -2.6390 O.2     1  UNL1       -0.4540
     13  O          9.5310   -1.1820   -2.7090 O.2     1  UNL1       -0.4540
     14  C          8.8200   -2.3220   -3.1290 C.3     1  UNL1        0.4680
@<TRIPOS>BOND
     1    14    13    1
     2    14    12    1
     3    13    11    1
     4    12    10    1
     5    11    10    2
     6    11     9    1
     7    10     8    1
     8     9     7    2
     9     8     6    2
    10     7     6    1
    11     6     5    1
    12     5     1    1
    13     1     2    1
    14     3     2    1
    15     2     4    2
