@<TRIPOS>MOLECULE
/home/cewinharhar/GITHUB/reincatalyze/data/processed/docking_pred/2023-May-24-1506_sub9_nm5_bs15_s42_ex16_mel10_mts10000_k50_ec02_g099_lra3e-4_lrc3e-3/0bc78f1071f374665515956646110ea4a2a90639_ligand_9.pdbqt
 14 15 0 0 0
SMALL
GASTEIGER

@<TRIPOS>ATOM
      1  C          5.9030    1.5290    1.2330 C.3     1  UNL1        0.0800
      2  C          5.3650    0.3980    2.0390 C.2     1  UNL1        0.1300
      3  C          6.1730   -0.8220    2.3090 C.3     1  UNL1        0.0870
      4  O          4.2380    0.4410    2.5050 O.2     1  UNL1       -0.3000
      5  C          5.6700    1.3090   -0.2490 C.3     1  UNL1        0.0430
      6  C          6.8180    0.6410   -0.8890 C.2     1  UNL1       -0.0440
      7  C          8.0890    1.2260   -0.9070 C.2     1  UNL1        0.0080
      8  C          6.6470   -0.5890   -1.4830 C.2     1  UNL1        0.0540
      9  C          9.1290    0.5520   -1.5220 C.2     1  UNL1        0.0510
     10  C          7.7010   -1.2660   -2.1030 C.2     1  UNL1        0.1660
     11  C          8.9520   -0.6910   -2.1230 C.2     1  UNL1        0.1650
     12  O          7.7860   -2.4790   -2.7540 O.2     1  UNL1       -0.4540
     13  O          9.7880   -1.5720   -2.7920 O.2     1  UNL1       -0.4540
     14  C          9.1100   -2.7580   -3.1290 C.3     1  UNL1        0.4680
@<TRIPOS>BOND
     1    14    13    1
     2    14    12    1
     3    13    11    1
     4    12    10    1
     5    11    10    2
     6    11     9    1
     7    10     8    1
     8     9     7    2
     9     8     6    2
    10     7     6    1
    11     6     5    1
    12     5     1    1
    13     1     2    1
    14     2     3    1
    15     2     4    2
