@<TRIPOS>MOLECULE
/home/cewinharhar/GITHUB/reincatalyze/data/processed/docking_pred/2023-May-24-1506_sub9_nm5_bs15_s42_ex16_mel10_mts10000_k50_ec02_g099_lra3e-4_lrc3e-3/0c0669ff2f8dcec30d9aff9f411b757c1c1ac29f_ligand_9.pdbqt
 14 15 0 0 0
SMALL
GASTEIGER

@<TRIPOS>ATOM
      1  C          5.5410    1.9070    1.2860 C.3     1  UNL1        0.0800
      2  C          5.1050    0.6860    2.0190 C.2     1  UNL1        0.1300
      3  C          6.0070   -0.4830    2.1950 C.3     1  UNL1        0.0870
      4  O          3.9860    0.6110    2.5010 O.2     1  UNL1       -0.3000
      5  C          5.4090    1.7250   -0.2130 C.3     1  UNL1        0.0430
      6  C          6.5740    1.0240   -0.7830 C.2     1  UNL1       -0.0440
      7  C          7.8820    1.4550   -0.5340 C.2     1  UNL1        0.0080
      8  C          6.3830   -0.0820   -1.5790 C.2     1  UNL1        0.0540
      9  C          8.9370    0.7580   -1.0950 C.2     1  UNL1        0.0510
     10  C          7.4520   -0.7840   -2.1430 C.2     1  UNL1        0.1660
     11  C          8.7400   -0.3600   -1.8990 C.2     1  UNL1        0.1650
     12  O          7.5230   -1.8960   -2.9560 O.2     1  UNL1       -0.4540
     13  O          9.5830   -1.2300   -2.5740 O.2     1  UNL1       -0.4540
     14  C          8.8570   -2.2710   -3.1820 C.3     1  UNL1        0.4680
@<TRIPOS>BOND
     1    14    12    1
     2    14    13    1
     3    12    10    1
     4    13    11    1
     5    10    11    2
     6    10     8    1
     7    11     9    1
     8     8     6    2
     9     9     7    2
    10     6     7    1
    11     6     5    1
    12     5     1    1
    13     1     2    1
    14     2     3    1
    15     2     4    2
