MODEL 1
REMARK VINA RESULT:      -7.6      0.000      0.000
REMARK SMILES CC(=O)CCc1ccc2c(c1)OCO2
REMARK SMILES IDX 4 1 2 2 1 3 3 4 5 5 6 6 7 7 11 8 8 9 10 10 9 11 12 12 14 13
REMARK SMILES IDX 13 14
REMARK H PARENT
REMARK Flexibility Score: inf
ROOT
ATOM      1  C   UNL     1       5.541   1.907   1.286  1.00  0.00     0.080 C 
ENDROOT
BRANCH   1   2
ATOM      2  C   UNL     1       5.105   0.686   2.019  1.00  0.00     0.130 C 
ATOM      3  C   UNL     1       6.007  -0.483   2.195  1.00  0.00     0.087 C 
ATOM      4  O   UNL     1       3.986   0.611   2.501  1.00  0.00    -0.300 OA
ENDBRANCH   1   2
BRANCH   1   5
ATOM      5  C   UNL     1       5.409   1.725  -0.213  1.00  0.00     0.043 C 
BRANCH   5   6
ATOM      6  C   UNL     1       6.574   1.024  -0.783  1.00  0.00    -0.044 A 
ATOM      7  C   UNL     1       7.882   1.455  -0.534  1.00  0.00     0.008 A 
ATOM      8  C   UNL     1       6.383  -0.082  -1.579  1.00  0.00     0.054 A 
ATOM      9  C   UNL     1       8.937   0.758  -1.095  1.00  0.00     0.051 A 
ATOM     10  C   UNL     1       7.452  -0.784  -2.143  1.00  0.00     0.166 A 
ATOM     11  C   UNL     1       8.740  -0.360  -1.899  1.00  0.00     0.165 A 
ATOM     12  O   UNL     1       7.523  -1.896  -2.956  1.00  0.00    -0.454 OA
ATOM     13  O   UNL     1       9.583  -1.230  -2.574  1.00  0.00    -0.454 OA
ATOM     14  C   UNL     1       8.857  -2.271  -3.182  1.00  0.00     0.468 C 
ENDBRANCH   5   6
ENDBRANCH   1   5
TORSDOF 3
ENDMDL
MODEL 2
REMARK VINA RESULT:      -7.5      1.928      2.381
REMARK SMILES CC(=O)CCc1ccc2c(c1)OCO2
REMARK SMILES IDX 4 1 2 2 1 3 3 4 5 5 6 6 7 7 11 8 8 9 10 10 9 11 12 12 14 13
REMARK SMILES IDX 13 14
REMARK H PARENT
REMARK Flexibility Score: inf
ROOT
ATOM      1  C   UNL     1       5.724   1.367  -0.303  1.00  0.00     0.080 C 
ENDROOT
BRANCH   1   2
ATOM      2  C   UNL     1       5.115   1.283   1.054  1.00  0.00     0.130 C 
ATOM      3  C   UNL     1       5.408   0.150   1.972  1.00  0.00     0.087 C 
ATOM      4  O   UNL     1       4.353   2.148   1.454  1.00  0.00    -0.300 OA
ENDBRANCH   1   2
BRANCH   1   5
ATOM      5  C   UNL     1       7.221   1.135  -0.250  1.00  0.00     0.043 C 
BRANCH   5   6
ATOM      6  C   UNL     1       7.595  -0.158  -0.851  1.00  0.00    -0.044 A 
ATOM      7  C   UNL     1       7.663  -0.329  -2.239  1.00  0.00     0.008 A 
ATOM      8  C   UNL     1       7.890  -1.228  -0.038  1.00  0.00     0.054 A 
ATOM      9  C   UNL     1       8.021  -1.565  -2.745  1.00  0.00     0.051 A 
ATOM     10  C   UNL     1       8.252  -2.475  -0.555  1.00  0.00     0.166 A 
ATOM     11  C   UNL     1       8.318  -2.645  -1.920  1.00  0.00     0.165 A 
ATOM     12  O   UNL     1       8.586  -3.676   0.035  1.00  0.00    -0.454 OA
ATOM     13  O   UNL     1       8.696  -3.960  -2.142  1.00  0.00    -0.454 OA
ATOM     14  C   UNL     1       8.964  -4.624  -0.930  1.00  0.00     0.468 C 
ENDBRANCH   5   6
ENDBRANCH   1   5
TORSDOF 3
ENDMDL
MODEL 3
REMARK VINA RESULT:      -7.2      2.086      2.616
REMARK SMILES CC(=O)CCc1ccc2c(c1)OCO2
REMARK SMILES IDX 4 1 2 2 1 3 3 4 5 5 6 6 7 7 11 8 8 9 10 10 9 11 12 12 14 13
REMARK SMILES IDX 13 14
REMARK H PARENT
REMARK Flexibility Score: inf
ROOT
ATOM      1  C   UNL     1       5.582   0.029   1.956  1.00  0.00     0.080 C 
ENDROOT
BRANCH   1   2
ATOM      2  C   UNL     1       4.673   1.165   1.636  1.00  0.00     0.130 C 
ATOM      3  C   UNL     1       4.948   2.089   0.504  1.00  0.00     0.087 C 
ATOM      4  O   UNL     1       3.670   1.371   2.299  1.00  0.00    -0.300 OA
ENDBRANCH   1   2
BRANCH   1   5
ATOM      5  C   UNL     1       6.988   0.290   1.453  1.00  0.00     0.043 C 
BRANCH   5   6
ATOM      6  C   UNL     1       7.387  -0.679   0.418  1.00  0.00    -0.044 A 
ATOM      7  C   UNL     1       7.283  -0.381  -0.945  1.00  0.00     0.008 A 
ATOM      8  C   UNL     1       7.878  -1.910   0.789  1.00  0.00     0.054 A 
ATOM      9  C   UNL     1       7.674  -1.330  -1.872  1.00  0.00     0.051 A 
ATOM     10  C   UNL     1       8.272  -2.866  -0.152  1.00  0.00     0.166 A 
ATOM     11  C   UNL     1       8.169  -2.574  -1.493  1.00  0.00     0.165 A 
ATOM     12  O   UNL     1       8.783  -4.142  -0.038  1.00  0.00    -0.454 OA
ATOM     13  O   UNL     1       8.624  -3.687  -2.183  1.00  0.00    -0.454 OA
ATOM     14  C   UNL     1       9.108  -4.670  -1.298  1.00  0.00     0.468 C 
ENDBRANCH   5   6
ENDBRANCH   1   5
TORSDOF 3
ENDMDL
MODEL 4
REMARK VINA RESULT:      -7.1      1.246      1.452
REMARK SMILES CC(=O)CCc1ccc2c(c1)OCO2
REMARK SMILES IDX 4 1 2 2 1 3 3 4 5 5 6 6 7 7 11 8 8 9 10 10 9 11 12 12 14 13
REMARK SMILES IDX 13 14
REMARK H PARENT
REMARK Flexibility Score: inf
ROOT
ATOM      1  C   UNL     1       6.359   1.201   0.907  1.00  0.00     0.080 C 
ENDROOT
BRANCH   1   2
ATOM      2  C   UNL     1       5.669   0.373   1.935  1.00  0.00     0.130 C 
ATOM      3  C   UNL     1       6.288  -0.861   2.489  1.00  0.00     0.087 C 
ATOM      4  O   UNL     1       4.566   0.686   2.355  1.00  0.00    -0.300 OA
ENDBRANCH   1   2
BRANCH   1   5
ATOM      5  C   UNL     1       5.846   0.889  -0.485  1.00  0.00     0.043 C 
BRANCH   5   6
ATOM      6  C   UNL     1       6.811   0.083  -1.255  1.00  0.00    -0.044 A 
ATOM      7  C   UNL     1       7.523   0.624  -2.332  1.00  0.00     0.008 A 
ATOM      8  C   UNL     1       7.026  -1.233  -0.913  1.00  0.00     0.054 A 
ATOM      9  C   UNL     1       8.416  -0.180  -3.017  1.00  0.00     0.051 A 
ATOM     10  C   UNL     1       7.931  -2.041  -1.609  1.00  0.00     0.166 A 
ATOM     11  C   UNL     1       8.631  -1.510  -2.669  1.00  0.00     0.165 A 
ATOM     12  O   UNL     1       8.316  -3.357  -1.467  1.00  0.00    -0.454 OA
ATOM     13  O   UNL     1       9.440  -2.522  -3.161  1.00  0.00    -0.454 OA
ATOM     14  C   UNL     1       9.339  -3.683  -2.372  1.00  0.00     0.468 C 
ENDBRANCH   5   6
ENDBRANCH   1   5
TORSDOF 3
ENDMDL
MODEL 5
REMARK VINA RESULT:      -6.8      2.035      2.718
REMARK SMILES CC(=O)CCc1ccc2c(c1)OCO2
REMARK SMILES IDX 4 1 2 2 1 3 3 4 5 5 6 6 7 7 11 8 8 9 10 10 9 11 12 12 14 13
REMARK SMILES IDX 13 14
REMARK H PARENT
REMARK Flexibility Score: inf
ROOT
ATOM      1  C   UNL     1       6.579   0.737   1.037  1.00  0.00     0.080 C 
ENDROOT
BRANCH   1   2
ATOM      2  C   UNL     1       5.377   1.601   0.874  1.00  0.00     0.130 C 
ATOM      3  C   UNL     1       4.983   2.150  -0.451  1.00  0.00     0.087 C 
ATOM      4  O   UNL     1       4.675   1.885   1.832  1.00  0.00    -0.300 OA
ENDBRANCH   1   2
BRANCH   1   5
ATOM      5  C   UNL     1       7.543   0.912  -0.119  1.00  0.00     0.043 C 
BRANCH   5   6
ATOM      6  C   UNL     1       7.867  -0.375  -0.761  1.00  0.00    -0.044 A 
ATOM      7  C   UNL     1       7.946  -0.501  -2.153  1.00  0.00     0.008 A 
ATOM      8  C   UNL     1       8.101  -1.485   0.018  1.00  0.00     0.054 A 
ATOM      9  C   UNL     1       8.255  -1.733  -2.698  1.00  0.00     0.051 A 
ATOM     10  C   UNL     1       8.413  -2.729  -0.539  1.00  0.00     0.166 A 
ATOM     11  C   UNL     1       8.490  -2.854  -1.908  1.00  0.00     0.165 A 
ATOM     12  O   UNL     1       8.684  -3.964   0.012  1.00  0.00    -0.454 OA
ATOM     13  O   UNL     1       8.811  -4.177  -2.172  1.00  0.00    -0.454 OA
ATOM     14  C   UNL     1       9.032  -4.894  -0.981  1.00  0.00     0.468 C 
ENDBRANCH   5   6
ENDBRANCH   1   5
TORSDOF 3
ENDMDL
