@<TRIPOS>MOLECULE
/home/cewinharhar/GITHUB/reincatalyze/data/processed/docking_pred/2023-May-24-1506_sub9_nm5_bs15_s42_ex16_mel10_mts10000_k50_ec02_g099_lra3e-4_lrc3e-3/0c0669ff2f8dcec30d9aff9f411b757c1c1ac29f_ligand_9.pdbqt
 14 15 0 0 0
SMALL
GASTEIGER

@<TRIPOS>ATOM
      1  C          6.3590    1.2010    0.9070 C.3     1  UNL1        0.0800
      2  C          5.6690    0.3730    1.9350 C.2     1  UNL1        0.1300
      3  C          6.2880   -0.8610    2.4890 C.3     1  UNL1        0.0870
      4  O          4.5660    0.6860    2.3550 O.2     1  UNL1       -0.3000
      5  C          5.8460    0.8890   -0.4850 C.3     1  UNL1        0.0430
      6  C          6.8110    0.0830   -1.2550 C.2     1  UNL1       -0.0440
      7  C          7.5230    0.6240   -2.3320 C.2     1  UNL1        0.0080
      8  C          7.0260   -1.2330   -0.9130 C.2     1  UNL1        0.0540
      9  C          8.4160   -0.1800   -3.0170 C.2     1  UNL1        0.0510
     10  C          7.9310   -2.0410   -1.6090 C.2     1  UNL1        0.1660
     11  C          8.6310   -1.5100   -2.6690 C.2     1  UNL1        0.1650
     12  O          8.3160   -3.3570   -1.4670 O.2     1  UNL1       -0.4540
     13  O          9.4400   -2.5220   -3.1610 O.2     1  UNL1       -0.4540
     14  C          9.3390   -3.6830   -2.3720 C.3     1  UNL1        0.4680
@<TRIPOS>BOND
     1    13    11    1
     2    13    14    1
     3     9    11    2
     4     9     7    1
     5    11    10    1
     6    14    12    1
     7     7     6    2
     8    10    12    1
     9    10     8    2
    10     6     8    1
    11     6     5    1
    12     5     1    1
    13     1     2    1
    14     2     4    2
    15     2     3    1
