@<TRIPOS>MOLECULE
/home/cewinharhar/GITHUB/reincatalyze/data/processed/docking_pred/2023-May-24-1506_sub9_nm5_bs15_s42_ex16_mel10_mts10000_k50_ec02_g099_lra3e-4_lrc3e-3/0df60b8790b800bbceb9ee276e91b409308b6f54_ligand_9.pdbqt
 14 15 0 0 0
SMALL
GASTEIGER

@<TRIPOS>ATOM
      1  C          5.5170    1.9150    1.2650 C.3     1  UNL1        0.0800
      2  C          5.0730    0.6990    2.0020 C.2     1  UNL1        0.1300
      3  C          5.9640   -0.4790    2.1730 C.3     1  UNL1        0.0870
      4  O          3.9560    0.6350    2.4900 O.2     1  UNL1       -0.3000
      5  C          5.3910    1.7270   -0.2340 C.3     1  UNL1        0.0430
      6  C          6.5600    1.0270   -0.7960 C.2     1  UNL1       -0.0440
      7  C          7.8660    1.4650   -0.5490 C.2     1  UNL1        0.0080
      8  C          6.3740   -0.0870   -1.5820 C.2     1  UNL1        0.0540
      9  C          8.9240    0.7670   -1.1030 C.2     1  UNL1        0.0510
     10  C          7.4470   -0.7900   -2.1390 C.2     1  UNL1        0.1660
     11  C          8.7320   -0.3590   -1.8980 C.2     1  UNL1        0.1650
     12  O          7.5220   -1.9080   -2.9430 O.2     1  UNL1       -0.4540
     13  O          9.5790   -1.2310   -2.5640 O.2     1  UNL1       -0.4540
     14  C          8.8580   -2.2800   -3.1650 C.3     1  UNL1        0.4680
@<TRIPOS>BOND
     1    14    12    1
     2    14    13    1
     3    12    10    1
     4    13    11    1
     5    10    11    2
     6    10     8    1
     7    11     9    1
     8     8     6    2
     9     9     7    2
    10     6     7    1
    11     6     5    1
    12     5     1    1
    13     1     2    1
    14     2     3    1
    15     2     4    2
