@<TRIPOS>MOLECULE
/home/cewinharhar/GITHUB/reincatalyze/data/processed/docking_pred/2023-May-24-1506_sub9_nm5_bs15_s42_ex16_mel10_mts10000_k50_ec02_g099_lra3e-4_lrc3e-3/104e94148118840ff9051874ebdd157f969f5898_ligand_9.pdbqt
 14 15 0 0 0
SMALL
GASTEIGER

@<TRIPOS>ATOM
      1  C          6.3660    1.2370    0.8910 C.3     1  UNL1        0.0800
      2  C          5.6630    0.4170    1.9170 C.2     1  UNL1        0.1300
      3  C          6.2830   -0.8040    2.4990 C.3     1  UNL1        0.0870
      4  O          4.5500    0.7250    2.3120 O.2     1  UNL1       -0.3000
      5  C          5.8590    0.9270   -0.5030 C.3     1  UNL1        0.0430
      6  C          6.8170    0.1020   -1.2620 C.2     1  UNL1       -0.0440
      7  C          7.5230    0.6170   -2.3540 C.2     1  UNL1        0.0080
      8  C          7.0310   -1.2060   -0.8930 C.2     1  UNL1        0.0540
      9  C          8.4100   -0.2030   -3.0280 C.2     1  UNL1        0.0510
     10  C          7.9290   -2.0320   -1.5770 C.2     1  UNL1        0.1660
     11  C          8.6240   -1.5260   -2.6530 C.2     1  UNL1        0.1650
     12  O          8.3120   -3.3460   -1.4090 O.2     1  UNL1       -0.4540
     13  O          9.4280   -2.5500   -3.1280 O.2     1  UNL1       -0.4540
     14  C          9.3290   -3.6940   -2.3130 C.3     1  UNL1        0.4680
@<TRIPOS>BOND
     1    13    11    1
     2    13    14    1
     3     9    11    2
     4     9     7    1
     5    11    10    1
     6     7     6    2
     7    14    12    1
     8    10    12    1
     9    10     8    2
    10     6     8    1
    11     6     5    1
    12     5     1    1
    13     1     2    1
    14     2     4    2
    15     2     3    1
