@<TRIPOS>MOLECULE
/home/cewinharhar/GITHUB/reincatalyze/data/processed/docking_pred/2023-May-24-1506_sub9_nm5_bs15_s42_ex16_mel10_mts10000_k50_ec02_g099_lra3e-4_lrc3e-3/10ef791c1764d6d7d99274693c0e95c254b80295_ligand_9.pdbqt
 14 15 0 0 0
SMALL
GASTEIGER

@<TRIPOS>ATOM
      1  C          5.6790    1.3510   -0.3180 C.3     1  UNL1        0.0800
      2  C          5.0310    1.2560    1.0200 C.2     1  UNL1        0.1300
      3  C          5.2900    0.1110    1.9330 C.3     1  UNL1        0.0870
      4  O          4.2630    2.1210    1.4070 O.2     1  UNL1       -0.3000
      5  C          7.1730    1.1090   -0.2250 C.3     1  UNL1        0.0430
      6  C          7.5570   -0.1790   -0.8290 C.2     1  UNL1       -0.0440
      7  C          7.6160   -0.3490   -2.2170 C.2     1  UNL1        0.0080
      8  C          7.8680   -1.2470   -0.0180 C.2     1  UNL1        0.0540
      9  C          7.9840   -1.5810   -2.7270 C.2     1  UNL1        0.0510
     10  C          8.2400   -2.4900   -0.5380 C.2     1  UNL1        0.1660
     11  C          8.2980   -2.6590   -1.9040 C.2     1  UNL1        0.1650
     12  O          8.5910   -3.6870    0.0480 O.2     1  UNL1       -0.4540
     13  O          8.6880   -3.9690   -2.1300 O.2     1  UNL1       -0.4540
     14  C          8.9720   -4.6310   -0.9200 C.3     1  UNL1        0.4680
@<TRIPOS>BOND
     1     9     7    1
     2     9    11    2
     3     7     6    2
     4    13    11    1
     5    13    14    1
     6    11    10    1
     7    14    12    1
     8     6     5    1
     9     6     8    1
    10    10     8    2
    11    10    12    1
    12     1     5    1
    13     1     2    1
    14     2     4    2
    15     2     3    1
