@<TRIPOS>MOLECULE
/home/cewinharhar/GITHUB/reincatalyze/data/processed/docking_pred/2023-May-24-1506_sub9_nm5_bs15_s42_ex16_mel10_mts10000_k50_ec02_g099_lra3e-4_lrc3e-3/10ef791c1764d6d7d99274693c0e95c254b80295_ligand_9.pdbqt
 14 15 0 0 0
SMALL
GASTEIGER

@<TRIPOS>ATOM
      1  C          5.4300   -0.0500    2.0060 C.3     1  UNL1        0.0800
      2  C          4.5370    1.1150    1.7490 C.2     1  UNL1        0.1300
      3  C          4.8230    2.0940    0.6670 C.3     1  UNL1        0.0870
      4  O          3.5370    1.2990    2.4240 O.2     1  UNL1       -0.3000
      5  C          6.8470    0.2320    1.5470 C.3     1  UNL1        0.0430
      6  C          7.2760   -0.7050    0.4930 C.2     1  UNL1       -0.0440
      7  C          7.1520   -0.3890   -0.8640 C.2     1  UNL1        0.0080
      8  C          7.8160   -1.9230    0.8420 C.2     1  UNL1        0.0540
      9  C          7.5730   -1.3080   -1.8080 C.2     1  UNL1        0.0510
     10  C          8.2410   -2.8480   -0.1160 C.2     1  UNL1        0.1660
     11  C          8.1180   -2.5380   -1.4520 C.2     1  UNL1        0.1650
     12  O          8.8000   -4.1040   -0.0260 O.2     1  UNL1       -0.4540
     13  O          8.6110   -3.6220   -2.1620 O.2     1  UNL1       -0.4540
     14  C          9.1370   -4.5990   -1.2970 C.3     1  UNL1        0.4680
@<TRIPOS>BOND
     1    13    11    1
     2    13    14    1
     3     9    11    2
     4     9     7    1
     5    11    10    1
     6    14    12    1
     7     7     6    2
     8    10    12    1
     9    10     8    2
    10     6     8    1
    11     6     5    1
    12     3     2    1
    13     5     1    1
    14     2     1    1
    15     2     4    2
