MODEL 1
REMARK VINA RESULT:      -7.7      0.000      0.000
REMARK SMILES CC(=O)CCc1ccc2c(c1)OCO2
REMARK SMILES IDX 4 1 2 2 1 3 3 4 5 5 6 6 7 7 11 8 8 9 10 10 9 11 12 12 14 13
REMARK SMILES IDX 13 14
REMARK H PARENT
REMARK Flexibility Score: inf
ROOT
ATOM      1  C   UNL     1       5.495   1.914   1.280  1.00  0.00     0.080 C 
ENDROOT
BRANCH   1   2
ATOM      2  C   UNL     1       4.993   0.700   1.983  1.00  0.00     0.130 C 
ATOM      3  C   UNL     1       5.816  -0.534   2.093  1.00  0.00     0.087 C 
ATOM      4  O   UNL     1       3.884   0.685   2.492  1.00  0.00    -0.300 OA
ENDBRANCH   1   2
BRANCH   1   5
ATOM      5  C   UNL     1       5.387   1.763  -0.224  1.00  0.00     0.043 C 
BRANCH   5   6
ATOM      6  C   UNL     1       6.551   1.055  -0.787  1.00  0.00    -0.044 A 
ATOM      7  C   UNL     1       7.860   1.481  -0.536  1.00  0.00     0.008 A 
ATOM      8  C   UNL     1       6.357  -0.054  -1.579  1.00  0.00     0.054 A 
ATOM      9  C   UNL     1       8.913   0.776  -1.090  1.00  0.00     0.051 A 
ATOM     10  C   UNL     1       7.425  -0.763  -2.136  1.00  0.00     0.166 A 
ATOM     11  C   UNL     1       8.713  -0.344  -1.890  1.00  0.00     0.165 A 
ATOM     12  O   UNL     1       7.492  -1.879  -2.944  1.00  0.00    -0.454 OA
ATOM     13  O   UNL     1       9.554  -1.221  -2.559  1.00  0.00    -0.454 OA
ATOM     14  C   UNL     1       8.826  -2.261  -3.165  1.00  0.00     0.468 C 
ENDBRANCH   5   6
ENDBRANCH   1   5
TORSDOF 3
ENDMDL
MODEL 2
REMARK VINA RESULT:      -7.5      1.942      2.393
REMARK SMILES CC(=O)CCc1ccc2c(c1)OCO2
REMARK SMILES IDX 4 1 2 2 1 3 3 4 5 5 6 6 7 7 11 8 8 9 10 10 9 11 12 12 14 13
REMARK SMILES IDX 13 14
REMARK H PARENT
REMARK Flexibility Score: inf
ROOT
ATOM      1  C   UNL     1       5.679   1.351  -0.318  1.00  0.00     0.080 C 
ENDROOT
BRANCH   1   2
ATOM      2  C   UNL     1       5.031   1.256   1.020  1.00  0.00     0.130 C 
ATOM      3  C   UNL     1       5.290   0.111   1.933  1.00  0.00     0.087 C 
ATOM      4  O   UNL     1       4.263   2.121   1.407  1.00  0.00    -0.300 OA
ENDBRANCH   1   2
BRANCH   1   5
ATOM      5  C   UNL     1       7.173   1.109  -0.225  1.00  0.00     0.043 C 
BRANCH   5   6
ATOM      6  C   UNL     1       7.557  -0.179  -0.829  1.00  0.00    -0.044 A 
ATOM      7  C   UNL     1       7.616  -0.349  -2.217  1.00  0.00     0.008 A 
ATOM      8  C   UNL     1       7.868  -1.247  -0.018  1.00  0.00     0.054 A 
ATOM      9  C   UNL     1       7.984  -1.581  -2.727  1.00  0.00     0.051 A 
ATOM     10  C   UNL     1       8.240  -2.490  -0.538  1.00  0.00     0.166 A 
ATOM     11  C   UNL     1       8.298  -2.659  -1.904  1.00  0.00     0.165 A 
ATOM     12  O   UNL     1       8.591  -3.687   0.048  1.00  0.00    -0.454 OA
ATOM     13  O   UNL     1       8.688  -3.969  -2.130  1.00  0.00    -0.454 OA
ATOM     14  C   UNL     1       8.972  -4.631  -0.920  1.00  0.00     0.468 C 
ENDBRANCH   5   6
ENDBRANCH   1   5
TORSDOF 3
ENDMDL
MODEL 3
REMARK VINA RESULT:      -7.3      2.066      2.617
REMARK SMILES CC(=O)CCc1ccc2c(c1)OCO2
REMARK SMILES IDX 4 1 2 2 1 3 3 4 5 5 6 6 7 7 11 8 8 9 10 10 9 11 12 12 14 13
REMARK SMILES IDX 13 14
REMARK H PARENT
REMARK Flexibility Score: inf
ROOT
ATOM      1  C   UNL     1       5.430  -0.050   2.006  1.00  0.00     0.080 C 
ENDROOT
BRANCH   1   2
ATOM      2  C   UNL     1       4.537   1.115   1.749  1.00  0.00     0.130 C 
ATOM      3  C   UNL     1       4.823   2.094   0.667  1.00  0.00     0.087 C 
ATOM      4  O   UNL     1       3.537   1.299   2.424  1.00  0.00    -0.300 OA
ENDBRANCH   1   2
BRANCH   1   5
ATOM      5  C   UNL     1       6.847   0.232   1.547  1.00  0.00     0.043 C 
BRANCH   5   6
ATOM      6  C   UNL     1       7.276  -0.705   0.493  1.00  0.00    -0.044 A 
ATOM      7  C   UNL     1       7.152  -0.389  -0.864  1.00  0.00     0.008 A 
ATOM      8  C   UNL     1       7.816  -1.923   0.842  1.00  0.00     0.054 A 
ATOM      9  C   UNL     1       7.573  -1.308  -1.808  1.00  0.00     0.051 A 
ATOM     10  C   UNL     1       8.241  -2.848  -0.116  1.00  0.00     0.166 A 
ATOM     11  C   UNL     1       8.118  -2.538  -1.452  1.00  0.00     0.165 A 
ATOM     12  O   UNL     1       8.800  -4.104  -0.026  1.00  0.00    -0.454 OA
ATOM     13  O   UNL     1       8.611  -3.622  -2.162  1.00  0.00    -0.454 OA
ATOM     14  C   UNL     1       9.137  -4.599  -1.297  1.00  0.00     0.468 C 
ENDBRANCH   5   6
ENDBRANCH   1   5
TORSDOF 3
ENDMDL
MODEL 4
REMARK VINA RESULT:      -7.0      1.912      2.459
REMARK SMILES CC(=O)CCc1ccc2c(c1)OCO2
REMARK SMILES IDX 4 1 2 2 1 3 3 4 5 5 6 6 7 7 11 8 8 9 10 10 9 11 12 12 14 13
REMARK SMILES IDX 13 14
REMARK H PARENT
REMARK Flexibility Score: inf
ROOT
ATOM      1  C   UNL     1       6.849   1.162   1.303  1.00  0.00     0.080 C 
ENDROOT
BRANCH   1   2
ATOM      2  C   UNL     1       5.369   1.316   1.365  1.00  0.00     0.130 C 
ATOM      3  C   UNL     1       4.628   2.149   0.381  1.00  0.00     0.087 C 
ATOM      4  O   UNL     1       4.717   0.757   2.233  1.00  0.00    -0.300 OA
ENDBRANCH   1   2
BRANCH   1   5
ATOM      5  C   UNL     1       7.359   1.311  -0.116  1.00  0.00     0.043 C 
BRANCH   5   6
ATOM      6  C   UNL     1       7.661   0.005  -0.729  1.00  0.00    -0.044 A 
ATOM      7  C   UNL     1       7.626  -0.180  -2.116  1.00  0.00     0.008 A 
ATOM      8  C   UNL     1       7.990  -1.064   0.073  1.00  0.00     0.054 A 
ATOM      9  C   UNL     1       7.920  -1.428  -2.634  1.00  0.00     0.051 A 
ATOM     10  C   UNL     1       8.287  -2.324  -0.456  1.00  0.00     0.166 A 
ATOM     11  C   UNL     1       8.251  -2.507  -1.820  1.00  0.00     0.165 A 
ATOM     12  O   UNL     1       8.636  -3.527   0.121  1.00  0.00    -0.454 OA
ATOM     13  O   UNL     1       8.583  -3.832  -2.056  1.00  0.00    -0.454 OA
ATOM     14  C   UNL     1       8.924  -4.491  -0.859  1.00  0.00     0.468 C 
ENDBRANCH   5   6
ENDBRANCH   1   5
TORSDOF 3
ENDMDL
MODEL 5
REMARK VINA RESULT:      -7.0      1.273      1.502
REMARK SMILES CC(=O)CCc1ccc2c(c1)OCO2
REMARK SMILES IDX 4 1 2 2 1 3 3 4 5 5 6 6 7 7 11 8 8 9 10 10 9 11 12 12 14 13
REMARK SMILES IDX 13 14
REMARK H PARENT
REMARK Flexibility Score: inf
ROOT
ATOM      1  C   UNL     1       6.380   1.206   0.900  1.00  0.00     0.080 C 
ENDROOT
BRANCH   1   2
ATOM      2  C   UNL     1       5.665   0.388   1.919  1.00  0.00     0.130 C 
ATOM      3  C   UNL     1       6.289  -0.814   2.533  1.00  0.00     0.087 C 
ATOM      4  O   UNL     1       4.538   0.684   2.281  1.00  0.00    -0.300 OA
ENDBRANCH   1   2
BRANCH   1   5
ATOM      5  C   UNL     1       5.878   0.906  -0.498  1.00  0.00     0.043 C 
BRANCH   5   6
ATOM      6  C   UNL     1       6.833   0.080  -1.257  1.00  0.00    -0.044 A 
ATOM      7  C   UNL     1       7.543   0.594  -2.348  1.00  0.00     0.008 A 
ATOM      8  C   UNL     1       7.043  -1.230  -0.890  1.00  0.00     0.054 A 
ATOM      9  C   UNL     1       8.427  -0.228  -3.021  1.00  0.00     0.051 A 
ATOM     10  C   UNL     1       7.939  -2.058  -1.574  1.00  0.00     0.166 A 
ATOM     11  C   UNL     1       8.637  -1.553  -2.648  1.00  0.00     0.165 A 
ATOM     12  O   UNL     1       8.317  -3.373  -1.408  1.00  0.00    -0.454 OA
ATOM     13  O   UNL     1       9.438  -2.579  -3.124  1.00  0.00    -0.454 OA
ATOM     14  C   UNL     1       9.334  -3.723  -2.311  1.00  0.00     0.468 C 
ENDBRANCH   5   6
ENDBRANCH   1   5
TORSDOF 3
ENDMDL
