@<TRIPOS>MOLECULE
/home/cewinharhar/GITHUB/reincatalyze/data/processed/docking_pred/2023-May-24-1506_sub9_nm5_bs15_s42_ex16_mel10_mts10000_k50_ec02_g099_lra3e-4_lrc3e-3/10ef791c1764d6d7d99274693c0e95c254b80295_ligand_9.pdbqt
 14 15 0 0 0
SMALL
GASTEIGER

@<TRIPOS>ATOM
      1  C          5.4950    1.9140    1.2800 C.3     1  UNL1        0.0800
      2  C          4.9930    0.7000    1.9830 C.2     1  UNL1        0.1300
      3  C          5.8160   -0.5340    2.0930 C.3     1  UNL1        0.0870
      4  O          3.8840    0.6850    2.4920 O.2     1  UNL1       -0.3000
      5  C          5.3870    1.7630   -0.2240 C.3     1  UNL1        0.0430
      6  C          6.5510    1.0550   -0.7870 C.2     1  UNL1       -0.0440
      7  C          7.8600    1.4810   -0.5360 C.2     1  UNL1        0.0080
      8  C          6.3570   -0.0540   -1.5790 C.2     1  UNL1        0.0540
      9  C          8.9130    0.7760   -1.0900 C.2     1  UNL1        0.0510
     10  C          7.4250   -0.7630   -2.1360 C.2     1  UNL1        0.1660
     11  C          8.7130   -0.3440   -1.8900 C.2     1  UNL1        0.1650
     12  O          7.4920   -1.8790   -2.9440 O.2     1  UNL1       -0.4540
     13  O          9.5540   -1.2210   -2.5590 O.2     1  UNL1       -0.4540
     14  C          8.8260   -2.2610   -3.1650 C.3     1  UNL1        0.4680
@<TRIPOS>BOND
     1    14    12    1
     2    14    13    1
     3    12    10    1
     4    13    11    1
     5    10    11    2
     6    10     8    1
     7    11     9    1
     8     8     6    2
     9     9     7    2
    10     6     7    1
    11     6     5    1
    12     5     1    1
    13     1     2    1
    14     2     3    1
    15     2     4    2
