@<TRIPOS>MOLECULE
/home/cewinharhar/GITHUB/reincatalyze/data/processed/docking_pred/2023-May-24-1506_sub9_nm5_bs15_s42_ex16_mel10_mts10000_k50_ec02_g099_lra3e-4_lrc3e-3/13c3a96d7f073914410e4f6d6c0e2190084e407e_ligand_9.pdbqt
 14 15 0 0 0
SMALL
GASTEIGER

@<TRIPOS>ATOM
      1  C          6.4110    1.1970    0.9410 C.3     1  UNL1        0.0800
      2  C          5.6770    0.3610    1.9310 C.2     1  UNL1        0.1300
      3  C          6.2730   -0.8760    2.5040 C.3     1  UNL1        0.0870
      4  O          4.5560    0.6690    2.3020 O.2     1  UNL1       -0.3000
      5  C          5.9050    0.9540   -0.4680 C.3     1  UNL1        0.0430
      6  C          6.8350    0.1160   -1.2460 C.2     1  UNL1       -0.0440
      7  C          7.5120    0.6160   -2.3640 C.2     1  UNL1        0.0080
      8  C          7.0520   -1.1900   -0.8710 C.2     1  UNL1        0.0540
      9  C          8.3720   -0.2170   -3.0550 C.2     1  UNL1        0.0510
     10  C          7.9230   -2.0290   -1.5730 C.2     1  UNL1        0.1660
     11  C          8.5890   -1.5380   -2.6740 C.2     1  UNL1        0.1650
     12  O          8.3030   -3.3430   -1.4030 O.2     1  UNL1       -0.4540
     13  O          9.3720   -2.5720   -3.1630 O.2     1  UNL1       -0.4540
     14  C          9.2900   -3.7070   -2.3340 C.3     1  UNL1        0.4680
@<TRIPOS>BOND
     1    13    11    1
     2    13    14    1
     3     9    11    2
     4     9     7    1
     5    11    10    1
     6     7     6    2
     7    14    12    1
     8    10    12    1
     9    10     8    2
    10     6     8    1
    11     6     5    1
    12     5     1    1
    13     1     2    1
    14     2     4    2
    15     2     3    1
