@<TRIPOS>MOLECULE
/home/cewinharhar/GITHUB/reincatalyze/data/processed/docking_pred/2023-May-24-1506_sub9_nm5_bs15_s42_ex16_mel10_mts10000_k50_ec02_g099_lra3e-4_lrc3e-3/13c3a96d7f073914410e4f6d6c0e2190084e407e_ligand_9.pdbqt
 14 15 0 0 0
SMALL
GASTEIGER

@<TRIPOS>ATOM
      1  C          6.7740    0.6160    0.9820 C.3     1  UNL1        0.0800
      2  C          5.4110    1.1100    1.3220 C.2     1  UNL1        0.1300
      3  C          4.7290    2.1470    0.5010 C.3     1  UNL1        0.0870
      4  O          4.8090    0.6750    2.2900 O.2     1  UNL1       -0.3000
      5  C          7.0500    0.7380   -0.5030 C.3     1  UNL1        0.0430
      6  C          7.5810   -0.5170   -1.0650 C.2     1  UNL1       -0.0440
      7  C          7.8650   -0.6470   -2.4300 C.2     1  UNL1        0.0080
      8  C          7.8110   -1.5920   -0.2370 C.2     1  UNL1        0.0540
      9  C          8.3630   -1.8490   -2.9000 C.2     1  UNL1        0.0510
     10  C          8.3150   -2.8040   -0.7170 C.2     1  UNL1        0.1660
     11  C          8.5930   -2.9340   -2.0600 C.2     1  UNL1        0.1650
     12  O          8.6240   -4.0010   -0.1070 O.2     1  UNL1       -0.4540
     13  O          9.0730   -4.2200   -2.2480 O.2     1  UNL1       -0.4540
     14  C          9.1940   -4.9020   -1.0220 C.3     1  UNL1        0.4680
@<TRIPOS>BOND
     1     9     7    1
     2     9    11    2
     3     7     6    2
     4    13    11    1
     5    13    14    1
     6    11    10    1
     7     6     5    1
     8     6     8    1
     9    14    12    1
    10    10     8    2
    11    10    12    1
    12     5     1    1
    13     3     2    1
    14     1     2    1
    15     2     4    2
