@<TRIPOS>MOLECULE
/home/cewinharhar/GITHUB/reincatalyze/data/processed/docking_pred/2023-May-24-1506_sub9_nm5_bs15_s42_ex16_mel10_mts10000_k50_ec02_g099_lra3e-4_lrc3e-3/13c3a96d7f073914410e4f6d6c0e2190084e407e_ligand_9.pdbqt
 14 15 0 0 0
SMALL
GASTEIGER

@<TRIPOS>ATOM
      1  C          5.4520   -0.0260    2.0350 C.3     1  UNL1        0.0800
      2  C          4.5700    1.1450    1.7680 C.2     1  UNL1        0.1300
      3  C          4.8840    2.1310    0.7000 C.3     1  UNL1        0.0870
      4  O          3.5580    1.3290    2.4250 O.2     1  UNL1       -0.3000
      5  C          6.8740    0.2410    1.5810 C.3     1  UNL1        0.0430
      6  C          7.2940   -0.6940    0.5220 C.2     1  UNL1       -0.0440
      7  C          7.1750   -0.3680   -0.8330 C.2     1  UNL1        0.0080
      8  C          7.8210   -1.9190    0.8640 C.2     1  UNL1        0.0540
      9  C          7.5870   -1.2850   -1.7830 C.2     1  UNL1        0.0510
     10  C          8.2370   -2.8420   -0.1000 C.2     1  UNL1        0.1660
     11  C          8.1180   -2.5230   -1.4350 C.2     1  UNL1        0.1650
     12  O          8.7830   -4.1060   -0.0180 O.2     1  UNL1       -0.4540
     13  O          8.6010   -3.6070   -2.1510 O.2     1  UNL1       -0.4540
     14  C          9.1160   -4.5950   -1.2910 C.3     1  UNL1        0.4680
@<TRIPOS>BOND
     1    13    11    1
     2    13    14    1
     3     9    11    2
     4     9     7    1
     5    11    10    1
     6    14    12    1
     7     7     6    2
     8    10    12    1
     9    10     8    2
    10     6     8    1
    11     6     5    1
    12     3     2    1
    13     5     1    1
    14     2     1    1
    15     2     4    2
