@<TRIPOS>MOLECULE
/home/cewinharhar/GITHUB/reincatalyze/data/processed/docking_pred/2023-May-24-1506_sub9_nm5_bs15_s42_ex16_mel10_mts10000_k50_ec02_g099_lra3e-4_lrc3e-3/13e8c6f9c16a4fbf8ad14846e02839591438c51f_ligand_9.pdbqt
 14 15 0 0 0
SMALL
GASTEIGER

@<TRIPOS>ATOM
      1  C          5.7360    1.3100   -0.3090 C.3     1  UNL1        0.0800
      2  C          5.1750    1.2790    1.0700 C.2     1  UNL1        0.1300
      3  C          5.5170    0.1930    2.0280 C.3     1  UNL1        0.0870
      4  O          4.4130    2.1500    1.4570 O.2     1  UNL1       -0.3000
      5  C          7.2330    1.0740   -0.3000 C.3     1  UNL1        0.0430
      6  C          7.5860   -0.2230   -0.9060 C.2     1  UNL1       -0.0440
      7  C          7.6120   -0.4010   -2.2940 C.2     1  UNL1        0.0080
      8  C          7.9010   -1.2910   -0.0960 C.2     1  UNL1        0.0540
      9  C          7.9510   -1.6400   -2.8050 C.2     1  UNL1        0.0510
     10  C          8.2440   -2.5420   -0.6190 C.2     1  UNL1        0.1660
     11  C          8.2680   -2.7180   -1.9840 C.2     1  UNL1        0.1650
     12  O          8.5910   -3.7410   -0.0340 O.2     1  UNL1       -0.4540
     13  O          8.6350   -4.0350   -2.2120 O.2     1  UNL1       -0.4540
     14  C          8.9370   -4.6940   -1.0050 C.3     1  UNL1        0.4680
@<TRIPOS>BOND
     1     9     7    1
     2     9    11    2
     3     7     6    2
     4    13    11    1
     5    13    14    1
     6    11    10    1
     7    14    12    1
     8     6     5    1
     9     6     8    1
    10    10     8    2
    11    10    12    1
    12     1     5    1
    13     1     2    1
    14     2     4    2
    15     2     3    1
