@<TRIPOS>MOLECULE
/home/cewinharhar/GITHUB/reincatalyze/data/processed/docking_pred/2023-May-24-1506_sub9_nm5_bs15_s42_ex16_mel10_mts10000_k50_ec02_g099_lra3e-4_lrc3e-3/13e8c6f9c16a4fbf8ad14846e02839591438c51f_ligand_9.pdbqt
 14 15 0 0 0
SMALL
GASTEIGER

@<TRIPOS>ATOM
      1  C          6.4000    1.2120    0.9380 C.3     1  UNL1        0.0800
      2  C          5.6680    0.3720    1.9260 C.2     1  UNL1        0.1300
      3  C          6.2710   -0.8600    2.5020 C.3     1  UNL1        0.0870
      4  O          4.5440    0.6720    2.2940 O.2     1  UNL1       -0.3000
      5  C          5.8990    0.9660   -0.4710 C.3     1  UNL1        0.0430
      6  C          6.8310    0.1260   -1.2440 C.2     1  UNL1       -0.0440
      7  C          7.5160    0.6240   -2.3580 C.2     1  UNL1        0.0080
      8  C          7.0440   -1.1810   -0.8670 C.2     1  UNL1        0.0540
      9  C          8.3790   -0.2120   -3.0440 C.2     1  UNL1        0.0510
     10  C          7.9180   -2.0210   -1.5630 C.2     1  UNL1        0.1660
     11  C          8.5910   -1.5320   -2.6610 C.2     1  UNL1        0.1650
     12  O          8.2940   -3.3360   -1.3910 O.2     1  UNL1       -0.4540
     13  O          9.3750   -2.5680   -3.1440 O.2     1  UNL1       -0.4540
     14  C          9.2860   -3.7030   -2.3150 C.3     1  UNL1        0.4680
@<TRIPOS>BOND
     1    13    11    1
     2    13    14    1
     3     9    11    2
     4     9     7    1
     5    11    10    1
     6     7     6    2
     7    14    12    1
     8    10    12    1
     9    10     8    2
    10     6     8    1
    11     6     5    1
    12     5     1    1
    13     1     2    1
    14     2     4    2
    15     2     3    1
