MODEL 1
REMARK VINA RESULT:      -7.7      0.000      0.000
REMARK SMILES CC(=O)CCc1ccc2c(c1)OCO2
REMARK SMILES IDX 4 1 2 2 1 3 3 4 5 5 6 6 7 7 11 8 8 9 10 10 9 11 12 12 14 13
REMARK SMILES IDX 13 14
REMARK H PARENT
REMARK Flexibility Score: inf
ROOT
ATOM      1  C   UNL     1       5.491   1.931   1.254  1.00  0.00     0.080 C 
ENDROOT
BRANCH   1   2
ATOM      2  C   UNL     1       5.030   0.720   1.989  1.00  0.00     0.130 C 
ATOM      3  C   UNL     1       5.889  -0.487   2.120  1.00  0.00     0.087 C 
ATOM      4  O   UNL     1       3.926   0.684   2.507  1.00  0.00    -0.300 OA
ENDBRANCH   1   2
BRANCH   1   5
ATOM      5  C   UNL     1       5.376   1.742  -0.245  1.00  0.00     0.043 C 
BRANCH   5   6
ATOM      6  C   UNL     1       6.548   1.040  -0.799  1.00  0.00    -0.044 A 
ATOM      7  C   UNL     1       7.853   1.469  -0.532  1.00  0.00     0.008 A 
ATOM      8  C   UNL     1       6.366  -0.067  -1.596  1.00  0.00     0.054 A 
ATOM      9  C   UNL     1       8.914   0.769  -1.078  1.00  0.00     0.051 A 
ATOM     10  C   UNL     1       7.442  -0.771  -2.145  1.00  0.00     0.166 A 
ATOM     11  C   UNL     1       8.726  -0.349  -1.884  1.00  0.00     0.165 A 
ATOM     12  O   UNL     1       7.521  -1.884  -2.956  1.00  0.00    -0.454 OA
ATOM     13  O   UNL     1       9.577  -1.221  -2.546  1.00  0.00    -0.454 OA
ATOM     14  C   UNL     1       8.858  -2.262  -3.164  1.00  0.00     0.468 C 
ENDBRANCH   5   6
ENDBRANCH   1   5
TORSDOF 3
ENDMDL
MODEL 2
REMARK VINA RESULT:      -7.5      1.922      2.417
REMARK SMILES CC(=O)CCc1ccc2c(c1)OCO2
REMARK SMILES IDX 4 1 2 2 1 3 3 4 5 5 6 6 7 7 11 8 8 9 10 10 9 11 12 12 14 13
REMARK SMILES IDX 13 14
REMARK H PARENT
REMARK Flexibility Score: inf
ROOT
ATOM      1  C   UNL     1       5.736   1.310  -0.309  1.00  0.00     0.080 C 
ENDROOT
BRANCH   1   2
ATOM      2  C   UNL     1       5.175   1.279   1.070  1.00  0.00     0.130 C 
ATOM      3  C   UNL     1       5.517   0.193   2.028  1.00  0.00     0.087 C 
ATOM      4  O   UNL     1       4.413   2.150   1.457  1.00  0.00    -0.300 OA
ENDBRANCH   1   2
BRANCH   1   5
ATOM      5  C   UNL     1       7.233   1.074  -0.300  1.00  0.00     0.043 C 
BRANCH   5   6
ATOM      6  C   UNL     1       7.586  -0.223  -0.906  1.00  0.00    -0.044 A 
ATOM      7  C   UNL     1       7.612  -0.401  -2.294  1.00  0.00     0.008 A 
ATOM      8  C   UNL     1       7.901  -1.291  -0.096  1.00  0.00     0.054 A 
ATOM      9  C   UNL     1       7.951  -1.640  -2.805  1.00  0.00     0.051 A 
ATOM     10  C   UNL     1       8.244  -2.542  -0.619  1.00  0.00     0.166 A 
ATOM     11  C   UNL     1       8.268  -2.718  -1.984  1.00  0.00     0.165 A 
ATOM     12  O   UNL     1       8.591  -3.741  -0.034  1.00  0.00    -0.454 OA
ATOM     13  O   UNL     1       8.635  -4.035  -2.212  1.00  0.00    -0.454 OA
ATOM     14  C   UNL     1       8.937  -4.694  -1.005  1.00  0.00     0.468 C 
ENDBRANCH   5   6
ENDBRANCH   1   5
TORSDOF 3
ENDMDL
MODEL 3
REMARK VINA RESULT:      -7.3      2.051      2.628
REMARK SMILES CC(=O)CCc1ccc2c(c1)OCO2
REMARK SMILES IDX 4 1 2 2 1 3 3 4 5 5 6 6 7 7 11 8 8 9 10 10 9 11 12 12 14 13
REMARK SMILES IDX 13 14
REMARK H PARENT
REMARK Flexibility Score: inf
ROOT
ATOM      1  C   UNL     1       5.389  -0.098   2.046  1.00  0.00     0.080 C 
ENDROOT
BRANCH   1   2
ATOM      2  C   UNL     1       4.541   1.099   1.788  1.00  0.00     0.130 C 
ATOM      3  C   UNL     1       4.871   2.072   0.712  1.00  0.00     0.087 C 
ATOM      4  O   UNL     1       3.544   1.317   2.457  1.00  0.00    -0.300 OA
ENDBRANCH   1   2
BRANCH   1   5
ATOM      5  C   UNL     1       6.831   0.153   1.651  1.00  0.00     0.043 C 
BRANCH   5   6
ATOM      6  C   UNL     1       7.268  -0.751   0.572  1.00  0.00    -0.044 A 
ATOM      7  C   UNL     1       7.158  -0.391  -0.776  1.00  0.00     0.008 A 
ATOM      8  C   UNL     1       7.801  -1.981   0.887  1.00  0.00     0.054 A 
ATOM      9  C   UNL     1       7.586  -1.280  -1.745  1.00  0.00     0.051 A 
ATOM     10  C   UNL     1       8.232  -2.876  -0.097  1.00  0.00     0.166 A 
ATOM     11  C   UNL     1       8.123  -2.523  -1.423  1.00  0.00     0.165 A 
ATOM     12  O   UNL     1       8.787  -4.137  -0.041  1.00  0.00    -0.454 OA
ATOM     13  O   UNL     1       8.620  -3.585  -2.163  1.00  0.00    -0.454 OA
ATOM     14  C   UNL     1       9.134  -4.591  -1.324  1.00  0.00     0.468 C 
ENDBRANCH   5   6
ENDBRANCH   1   5
TORSDOF 3
ENDMDL
MODEL 4
REMARK VINA RESULT:      -7.1      1.268      1.485
REMARK SMILES CC(=O)CCc1ccc2c(c1)OCO2
REMARK SMILES IDX 4 1 2 2 1 3 3 4 5 5 6 6 7 7 11 8 8 9 10 10 9 11 12 12 14 13
REMARK SMILES IDX 13 14
REMARK H PARENT
REMARK Flexibility Score: inf
ROOT
ATOM      1  C   UNL     1       6.400   1.212   0.938  1.00  0.00     0.080 C 
ENDROOT
BRANCH   1   2
ATOM      2  C   UNL     1       5.668   0.372   1.926  1.00  0.00     0.130 C 
ATOM      3  C   UNL     1       6.271  -0.860   2.502  1.00  0.00     0.087 C 
ATOM      4  O   UNL     1       4.544   0.672   2.294  1.00  0.00    -0.300 OA
ENDBRANCH   1   2
BRANCH   1   5
ATOM      5  C   UNL     1       5.899   0.966  -0.471  1.00  0.00     0.043 C 
BRANCH   5   6
ATOM      6  C   UNL     1       6.831   0.126  -1.244  1.00  0.00    -0.044 A 
ATOM      7  C   UNL     1       7.516   0.624  -2.358  1.00  0.00     0.008 A 
ATOM      8  C   UNL     1       7.044  -1.181  -0.867  1.00  0.00     0.054 A 
ATOM      9  C   UNL     1       8.379  -0.212  -3.044  1.00  0.00     0.051 A 
ATOM     10  C   UNL     1       7.918  -2.021  -1.563  1.00  0.00     0.166 A 
ATOM     11  C   UNL     1       8.591  -1.532  -2.661  1.00  0.00     0.165 A 
ATOM     12  O   UNL     1       8.294  -3.336  -1.391  1.00  0.00    -0.454 OA
ATOM     13  O   UNL     1       9.375  -2.568  -3.144  1.00  0.00    -0.454 OA
ATOM     14  C   UNL     1       9.286  -3.703  -2.315  1.00  0.00     0.468 C 
ENDBRANCH   5   6
ENDBRANCH   1   5
TORSDOF 3
ENDMDL
MODEL 5
REMARK VINA RESULT:      -6.8      1.251      1.748
REMARK SMILES CC(=O)CCc1ccc2c(c1)OCO2
REMARK SMILES IDX 4 1 2 2 1 3 3 4 5 5 6 6 7 7 11 8 8 9 10 10 9 11 12 12 14 13
REMARK SMILES IDX 13 14
REMARK H PARENT
REMARK Flexibility Score: inf
ROOT
ATOM      1  C   UNL     1       5.328  -0.083   1.939  1.00  0.00     0.080 C 
ENDROOT
BRANCH   1   2
ATOM      2  C   UNL     1       4.449   1.109   1.781  1.00  0.00     0.130 C 
ATOM      3  C   UNL     1       4.721   2.150   0.754  1.00  0.00     0.087 C 
ATOM      4  O   UNL     1       3.472   1.266   2.495  1.00  0.00    -0.300 OA
ENDBRANCH   1   2
BRANCH   1   5
ATOM      5  C   UNL     1       6.793   0.304   1.886  1.00  0.00     0.043 C 
BRANCH   5   6
ATOM      6  C   UNL     1       7.405  -0.050   0.593  1.00  0.00    -0.044 A 
ATOM      7  C   UNL     1       7.916   0.929  -0.268  1.00  0.00     0.008 A 
ATOM      8  C   UNL     1       7.484  -1.370   0.214  1.00  0.00     0.054 A 
ATOM      9  C   UNL     1       8.480   0.537  -1.468  1.00  0.00     0.051 A 
ATOM     10  C   UNL     1       8.056  -1.761  -1.001  1.00  0.00     0.166 A 
ATOM     11  C   UNL     1       8.558  -0.799  -1.849  1.00  0.00     0.165 A 
ATOM     12  O   UNL     1       8.249  -2.989  -1.597  1.00  0.00    -0.454 OA
ATOM     13  O   UNL     1       9.055  -1.463  -2.959  1.00  0.00    -0.454 OA
ATOM     14  C   UNL     1       8.962  -2.859  -2.800  1.00  0.00     0.468 C 
ENDBRANCH   5   6
ENDBRANCH   1   5
TORSDOF 3
ENDMDL
