@<TRIPOS>MOLECULE
/home/cewinharhar/GITHUB/reincatalyze/data/processed/docking_pred/2023-May-24-1506_sub9_nm5_bs15_s42_ex16_mel10_mts10000_k50_ec02_g099_lra3e-4_lrc3e-3/13e8c6f9c16a4fbf8ad14846e02839591438c51f_ligand_9.pdbqt
 14 15 0 0 0
SMALL
GASTEIGER

@<TRIPOS>ATOM
      1  C          5.3280   -0.0830    1.9390 C.3     1  UNL1        0.0800
      2  C          4.4490    1.1090    1.7810 C.2     1  UNL1        0.1300
      3  C          4.7210    2.1500    0.7540 C.3     1  UNL1        0.0870
      4  O          3.4720    1.2660    2.4950 O.2     1  UNL1       -0.3000
      5  C          6.7930    0.3040    1.8860 C.3     1  UNL1        0.0430
      6  C          7.4050   -0.0500    0.5930 C.2     1  UNL1       -0.0440
      7  C          7.9160    0.9290   -0.2680 C.2     1  UNL1        0.0080
      8  C          7.4840   -1.3700    0.2140 C.2     1  UNL1        0.0540
      9  C          8.4800    0.5370   -1.4680 C.2     1  UNL1        0.0510
     10  C          8.0560   -1.7610   -1.0010 C.2     1  UNL1        0.1660
     11  C          8.5580   -0.7990   -1.8490 C.2     1  UNL1        0.1650
     12  O          8.2490   -2.9890   -1.5970 O.2     1  UNL1       -0.4540
     13  O          9.0550   -1.4630   -2.9590 O.2     1  UNL1       -0.4540
     14  C          8.9620   -2.8590   -2.8000 C.3     1  UNL1        0.4680
@<TRIPOS>BOND
     1    13    14    1
     2    13    11    1
     3    14    12    1
     4    11     9    2
     5    11    10    1
     6    12    10    1
     7     9     7    1
     8    10     8    2
     9     7     6    2
    10     8     6    1
    11     6     5    1
    12     3     2    1
    13     2     1    1
    14     2     4    2
    15     5     1    1
