@<TRIPOS>MOLECULE
/home/cewinharhar/GITHUB/reincatalyze/data/processed/docking_pred/2023-May-24-1506_sub9_nm5_bs15_s42_ex16_mel10_mts10000_k50_ec02_g099_lra3e-4_lrc3e-3/13e8c6f9c16a4fbf8ad14846e02839591438c51f_ligand_9.pdbqt
 14 15 0 0 0
SMALL
GASTEIGER

@<TRIPOS>ATOM
      1  C          5.3890   -0.0980    2.0460 C.3     1  UNL1        0.0800
      2  C          4.5410    1.0990    1.7880 C.2     1  UNL1        0.1300
      3  C          4.8710    2.0720    0.7120 C.3     1  UNL1        0.0870
      4  O          3.5440    1.3170    2.4570 O.2     1  UNL1       -0.3000
      5  C          6.8310    0.1530    1.6510 C.3     1  UNL1        0.0430
      6  C          7.2680   -0.7510    0.5720 C.2     1  UNL1       -0.0440
      7  C          7.1580   -0.3910   -0.7760 C.2     1  UNL1        0.0080
      8  C          7.8010   -1.9810    0.8870 C.2     1  UNL1        0.0540
      9  C          7.5860   -1.2800   -1.7450 C.2     1  UNL1        0.0510
     10  C          8.2320   -2.8760   -0.0970 C.2     1  UNL1        0.1660
     11  C          8.1230   -2.5230   -1.4230 C.2     1  UNL1        0.1650
     12  O          8.7870   -4.1370   -0.0410 O.2     1  UNL1       -0.4540
     13  O          8.6200   -3.5850   -2.1630 O.2     1  UNL1       -0.4540
     14  C          9.1340   -4.5910   -1.3240 C.3     1  UNL1        0.4680
@<TRIPOS>BOND
     1    13    11    1
     2    13    14    1
     3     9    11    2
     4     9     7    1
     5    11    10    1
     6    14    12    1
     7     7     6    2
     8    10    12    1
     9    10     8    2
    10     6     8    1
    11     6     5    1
    12     3     2    1
    13     5     1    1
    14     2     1    1
    15     2     4    2
