@<TRIPOS>MOLECULE
/home/cewinharhar/GITHUB/reincatalyze/data/processed/docking_pred/2023-May-24-1506_sub9_nm5_bs15_s42_ex16_mel10_mts10000_k50_ec02_g099_lra3e-4_lrc3e-3/141a4713aaf07cdd351da17b8461b13d6c9c65f9_ligand_9.pdbqt
 14 15 0 0 0
SMALL
GASTEIGER

@<TRIPOS>ATOM
      1  C          5.4230   -0.0190    2.0310 C.3     1  UNL1        0.0800
      2  C          4.5530    1.1620    1.7670 C.2     1  UNL1        0.1300
      3  C          4.8790    2.1490    0.7040 C.3     1  UNL1        0.0870
      4  O          3.5420    1.3540    2.4220 O.2     1  UNL1       -0.3000
      5  C          6.8500    0.2400    1.5920 C.3     1  UNL1        0.0430
      6  C          7.2640   -0.6730    0.5120 C.2     1  UNL1       -0.0440
      7  C          7.1070   -0.3320   -0.8370 C.2     1  UNL1        0.0080
      8  C          7.8210   -1.8920    0.8250 C.2     1  UNL1        0.0540
      9  C          7.5140   -1.2290   -1.8070 C.2     1  UNL1        0.0510
     10  C          8.2320   -2.7950   -0.1610 C.2     1  UNL1        0.1660
     11  C          8.0770   -2.4600   -1.4880 C.2     1  UNL1        0.1650
     12  O          8.8040   -4.0480   -0.1070 O.2     1  UNL1       -0.4540
     13  O          8.5630   -3.5260   -2.2290 O.2     1  UNL1       -0.4540
     14  C          9.1160   -4.5150   -1.3940 C.3     1  UNL1        0.4680
@<TRIPOS>BOND
     1    13    11    1
     2    13    14    1
     3     9    11    2
     4     9     7    1
     5    11    10    1
     6    14    12    1
     7     7     6    2
     8    10    12    1
     9    10     8    2
    10     6     8    1
    11     6     5    1
    12     3     2    1
    13     5     1    1
    14     2     1    1
    15     2     4    2
