MODEL 1
REMARK VINA RESULT:      -7.5      0.000      0.000
REMARK SMILES CC(=O)CCc1ccc2c(c1)OCO2
REMARK SMILES IDX 4 1 2 2 1 3 3 4 5 5 6 6 7 7 11 8 8 9 10 10 9 11 12 12 14 13
REMARK SMILES IDX 13 14
REMARK H PARENT
REMARK Flexibility Score: inf
ROOT
ATOM      1  C   UNL     1       5.520   1.930   1.275  1.00  0.00     0.080 C 
ENDROOT
BRANCH   1   2
ATOM      2  C   UNL     1       5.076   0.712   2.009  1.00  0.00     0.130 C 
ATOM      3  C   UNL     1       5.963  -0.471   2.167  1.00  0.00     0.087 C 
ATOM      4  O   UNL     1       3.963   0.651   2.506  1.00  0.00    -0.300 OA
ENDBRANCH   1   2
BRANCH   1   5
ATOM      5  C   UNL     1       5.394   1.745  -0.224  1.00  0.00     0.043 C 
BRANCH   5   6
ATOM      6  C   UNL     1       6.563   1.049  -0.790  1.00  0.00    -0.044 A 
ATOM      7  C   UNL     1       7.868   1.494  -0.549  1.00  0.00     0.008 A 
ATOM      8  C   UNL     1       6.379  -0.067  -1.574  1.00  0.00     0.054 A 
ATOM      9  C   UNL     1       8.927   0.800  -1.106  1.00  0.00     0.051 A 
ATOM     10  C   UNL     1       7.453  -0.765  -2.134  1.00  0.00     0.166 A 
ATOM     11  C   UNL     1       8.737  -0.328  -1.898  1.00  0.00     0.165 A 
ATOM     12  O   UNL     1       7.530  -1.884  -2.936  1.00  0.00    -0.454 OA
ATOM     13  O   UNL     1       9.586  -1.197  -2.566  1.00  0.00    -0.454 OA
ATOM     14  C   UNL     1       8.867  -2.251  -3.162  1.00  0.00     0.468 C 
ENDBRANCH   5   6
ENDBRANCH   1   5
TORSDOF 3
ENDMDL
MODEL 2
REMARK VINA RESULT:      -7.2      1.900      2.399
REMARK SMILES CC(=O)CCc1ccc2c(c1)OCO2
REMARK SMILES IDX 4 1 2 2 1 3 3 4 5 5 6 6 7 7 11 8 8 9 10 10 9 11 12 12 14 13
REMARK SMILES IDX 13 14
REMARK H PARENT
REMARK Flexibility Score: inf
ROOT
ATOM      1  C   UNL     1       5.747   1.309  -0.314  1.00  0.00     0.080 C 
ENDROOT
BRANCH   1   2
ATOM      2  C   UNL     1       5.211   1.239   1.074  1.00  0.00     0.130 C 
ATOM      3  C   UNL     1       5.469   0.067   1.953  1.00  0.00     0.087 C 
ATOM      4  O   UNL     1       4.541   2.150   1.534  1.00  0.00    -0.300 OA
ENDBRANCH   1   2
BRANCH   1   5
ATOM      5  C   UNL     1       7.248   1.102  -0.336  1.00  0.00     0.043 C 
BRANCH   5   6
ATOM      6  C   UNL     1       7.613  -0.192  -0.940  1.00  0.00    -0.044 A 
ATOM      7  C   UNL     1       7.634  -0.372  -2.328  1.00  0.00     0.008 A 
ATOM      8  C   UNL     1       7.945  -1.254  -0.130  1.00  0.00     0.054 A 
ATOM      9  C   UNL     1       7.985  -1.609  -2.839  1.00  0.00     0.051 A 
ATOM     10  C   UNL     1       8.300  -2.501  -0.651  1.00  0.00     0.166 A 
ATOM     11  C   UNL     1       8.320  -2.680  -2.017  1.00  0.00     0.165 A 
ATOM     12  O   UNL     1       8.665  -3.695  -0.066  1.00  0.00    -0.454 OA
ATOM     13  O   UNL     1       8.702  -3.994  -2.243  1.00  0.00    -0.454 OA
ATOM     14  C   UNL     1       9.018  -4.646  -1.037  1.00  0.00     0.468 C 
ENDBRANCH   5   6
ENDBRANCH   1   5
TORSDOF 3
ENDMDL
MODEL 3
REMARK VINA RESULT:      -7.0      1.244      1.444
REMARK SMILES CC(=O)CCc1ccc2c(c1)OCO2
REMARK SMILES IDX 4 1 2 2 1 3 3 4 5 5 6 6 7 7 11 8 8 9 10 10 9 11 12 12 14 13
REMARK SMILES IDX 13 14
REMARK H PARENT
REMARK Flexibility Score: inf
ROOT
ATOM      1  C   UNL     1       6.334   1.244   0.916  1.00  0.00     0.080 C 
ENDROOT
BRANCH   1   2
ATOM      2  C   UNL     1       5.649   0.403   1.937  1.00  0.00     0.130 C 
ATOM      3  C   UNL     1       6.286  -0.820   2.495  1.00  0.00     0.087 C 
ATOM      4  O   UNL     1       4.538   0.696   2.347  1.00  0.00    -0.300 OA
ENDBRANCH   1   2
BRANCH   1   5
ATOM      5  C   UNL     1       5.823   0.940  -0.479  1.00  0.00     0.043 C 
BRANCH   5   6
ATOM      6  C   UNL     1       6.783   0.127  -1.247  1.00  0.00    -0.044 A 
ATOM      7  C   UNL     1       7.482   0.654  -2.339  1.00  0.00     0.008 A 
ATOM      8  C   UNL     1       7.006  -1.183  -0.889  1.00  0.00     0.054 A 
ATOM      9  C   UNL     1       8.371  -0.157  -3.021  1.00  0.00     0.051 A 
ATOM     10  C   UNL     1       7.906  -1.999  -1.581  1.00  0.00     0.166 A 
ATOM     11  C   UNL     1       8.593  -1.482  -2.657  1.00  0.00     0.165 A 
ATOM     12  O   UNL     1       8.296  -3.312  -1.425  1.00  0.00    -0.454 OA
ATOM     13  O   UNL     1       9.401  -2.498  -3.142  1.00  0.00    -0.454 OA
ATOM     14  C   UNL     1       9.312  -3.648  -2.336  1.00  0.00     0.468 C 
ENDBRANCH   5   6
ENDBRANCH   1   5
TORSDOF 3
ENDMDL
MODEL 4
REMARK VINA RESULT:      -7.0      2.006      2.582
REMARK SMILES CC(=O)CCc1ccc2c(c1)OCO2
REMARK SMILES IDX 4 1 2 2 1 3 3 4 5 5 6 6 7 7 11 8 8 9 10 10 9 11 12 12 14 13
REMARK SMILES IDX 13 14
REMARK H PARENT
REMARK Flexibility Score: inf
ROOT
ATOM      1  C   UNL     1       5.423  -0.019   2.031  1.00  0.00     0.080 C 
ENDROOT
BRANCH   1   2
ATOM      2  C   UNL     1       4.553   1.162   1.767  1.00  0.00     0.130 C 
ATOM      3  C   UNL     1       4.879   2.149   0.704  1.00  0.00     0.087 C 
ATOM      4  O   UNL     1       3.542   1.354   2.422  1.00  0.00    -0.300 OA
ENDBRANCH   1   2
BRANCH   1   5
ATOM      5  C   UNL     1       6.850   0.240   1.592  1.00  0.00     0.043 C 
BRANCH   5   6
ATOM      6  C   UNL     1       7.264  -0.673   0.512  1.00  0.00    -0.044 A 
ATOM      7  C   UNL     1       7.107  -0.332  -0.837  1.00  0.00     0.008 A 
ATOM      8  C   UNL     1       7.821  -1.892   0.825  1.00  0.00     0.054 A 
ATOM      9  C   UNL     1       7.514  -1.229  -1.807  1.00  0.00     0.051 A 
ATOM     10  C   UNL     1       8.232  -2.795  -0.161  1.00  0.00     0.166 A 
ATOM     11  C   UNL     1       8.077  -2.460  -1.488  1.00  0.00     0.165 A 
ATOM     12  O   UNL     1       8.804  -4.048  -0.107  1.00  0.00    -0.454 OA
ATOM     13  O   UNL     1       8.563  -3.526  -2.229  1.00  0.00    -0.454 OA
ATOM     14  C   UNL     1       9.116  -4.515  -1.394  1.00  0.00     0.468 C 
ENDBRANCH   5   6
ENDBRANCH   1   5
TORSDOF 3
ENDMDL
MODEL 5
REMARK VINA RESULT:      -6.7      1.283      1.771
REMARK SMILES CC(=O)CCc1ccc2c(c1)OCO2
REMARK SMILES IDX 4 1 2 2 1 3 3 4 5 5 6 6 7 7 11 8 8 9 10 10 9 11 12 12 14 13
REMARK SMILES IDX 13 14
REMARK H PARENT
REMARK Flexibility Score: inf
ROOT
ATOM      1  C   UNL     1       5.316  -0.076   1.981  1.00  0.00     0.080 C 
ENDROOT
BRANCH   1   2
ATOM      2  C   UNL     1       4.448   1.121   1.803  1.00  0.00     0.130 C 
ATOM      3  C   UNL     1       4.738   2.150   0.769  1.00  0.00     0.087 C 
ATOM      4  O   UNL     1       3.466   1.293   2.507  1.00  0.00    -0.300 OA
ENDBRANCH   1   2
BRANCH   1   5
ATOM      5  C   UNL     1       6.785   0.294   1.914  1.00  0.00     0.043 C 
BRANCH   5   6
ATOM      6  C   UNL     1       7.380  -0.066   0.614  1.00  0.00    -0.044 A 
ATOM      7  C   UNL     1       7.844   0.910  -0.274  1.00  0.00     0.008 A 
ATOM      8  C   UNL     1       7.488  -1.391   0.257  1.00  0.00     0.054 A 
ATOM      9  C   UNL     1       8.394   0.513  -1.480  1.00  0.00     0.051 A 
ATOM     10  C   UNL     1       8.045  -1.787  -0.962  1.00  0.00     0.166 A 
ATOM     11  C   UNL     1       8.502  -0.827  -1.838  1.00  0.00     0.165 A 
ATOM     12  O   UNL     1       8.261  -3.020  -1.540  1.00  0.00    -0.454 OA
ATOM     13  O   UNL     1       8.995  -1.498  -2.946  1.00  0.00    -0.454 OA
ATOM     14  C   UNL     1       8.945  -2.892  -2.761  1.00  0.00     0.468 C 
ENDBRANCH   5   6
ENDBRANCH   1   5
TORSDOF 3
ENDMDL
