@<TRIPOS>MOLECULE
/home/cewinharhar/GITHUB/reincatalyze/data/processed/docking_pred/2023-May-24-1506_sub9_nm5_bs15_s42_ex16_mel10_mts10000_k50_ec02_g099_lra3e-4_lrc3e-3/141a4713aaf07cdd351da17b8461b13d6c9c65f9_ligand_9.pdbqt
 14 15 0 0 0
SMALL
GASTEIGER

@<TRIPOS>ATOM
      1  C          6.3340    1.2440    0.9160 C.3     1  UNL1        0.0800
      2  C          5.6490    0.4030    1.9370 C.2     1  UNL1        0.1300
      3  C          6.2860   -0.8200    2.4950 C.3     1  UNL1        0.0870
      4  O          4.5380    0.6960    2.3470 O.2     1  UNL1       -0.3000
      5  C          5.8230    0.9400   -0.4790 C.3     1  UNL1        0.0430
      6  C          6.7830    0.1270   -1.2470 C.2     1  UNL1       -0.0440
      7  C          7.4820    0.6540   -2.3390 C.2     1  UNL1        0.0080
      8  C          7.0060   -1.1830   -0.8890 C.2     1  UNL1        0.0540
      9  C          8.3710   -0.1570   -3.0210 C.2     1  UNL1        0.0510
     10  C          7.9060   -1.9990   -1.5810 C.2     1  UNL1        0.1660
     11  C          8.5930   -1.4820   -2.6570 C.2     1  UNL1        0.1650
     12  O          8.2960   -3.3120   -1.4250 O.2     1  UNL1       -0.4540
     13  O          9.4010   -2.4980   -3.1420 O.2     1  UNL1       -0.4540
     14  C          9.3120   -3.6480   -2.3360 C.3     1  UNL1        0.4680
@<TRIPOS>BOND
     1    13    11    1
     2    13    14    1
     3     9    11    2
     4     9     7    1
     5    11    10    1
     6     7     6    2
     7    14    12    1
     8    10    12    1
     9    10     8    2
    10     6     8    1
    11     6     5    1
    12     5     1    1
    13     1     2    1
    14     2     4    2
    15     2     3    1
