@<TRIPOS>MOLECULE
/home/cewinharhar/GITHUB/reincatalyze/data/processed/docking_pred/2023-May-24-1506_sub9_nm5_bs15_s42_ex16_mel10_mts10000_k50_ec02_g099_lra3e-4_lrc3e-3/141a4713aaf07cdd351da17b8461b13d6c9c65f9_ligand_9.pdbqt
 14 15 0 0 0
SMALL
GASTEIGER

@<TRIPOS>ATOM
      1  C          5.3160   -0.0760    1.9810 C.3     1  UNL1        0.0800
      2  C          4.4480    1.1210    1.8030 C.2     1  UNL1        0.1300
      3  C          4.7380    2.1500    0.7690 C.3     1  UNL1        0.0870
      4  O          3.4660    1.2930    2.5070 O.2     1  UNL1       -0.3000
      5  C          6.7850    0.2940    1.9140 C.3     1  UNL1        0.0430
      6  C          7.3800   -0.0660    0.6140 C.2     1  UNL1       -0.0440
      7  C          7.8440    0.9100   -0.2740 C.2     1  UNL1        0.0080
      8  C          7.4880   -1.3910    0.2570 C.2     1  UNL1        0.0540
      9  C          8.3940    0.5130   -1.4800 C.2     1  UNL1        0.0510
     10  C          8.0450   -1.7870   -0.9620 C.2     1  UNL1        0.1660
     11  C          8.5020   -0.8270   -1.8380 C.2     1  UNL1        0.1650
     12  O          8.2610   -3.0200   -1.5400 O.2     1  UNL1       -0.4540
     13  O          8.9950   -1.4980   -2.9460 O.2     1  UNL1       -0.4540
     14  C          8.9450   -2.8920   -2.7610 C.3     1  UNL1        0.4680
@<TRIPOS>BOND
     1    13    14    1
     2    13    11    1
     3    14    12    1
     4    11     9    2
     5    11    10    1
     6    12    10    1
     7     9     7    1
     8    10     8    2
     9     7     6    2
    10     8     6    1
    11     6     5    1
    12     3     2    1
    13     2     1    1
    14     2     4    2
    15     5     1    1
