@<TRIPOS>MOLECULE
/home/cewinharhar/GITHUB/reincatalyze/data/processed/docking_pred/2023-May-24-1506_sub9_nm5_bs15_s42_ex16_mel10_mts10000_k50_ec02_g099_lra3e-4_lrc3e-3/141a4713aaf07cdd351da17b8461b13d6c9c65f9_ligand_9.pdbqt
 14 15 0 0 0
SMALL
GASTEIGER

@<TRIPOS>ATOM
      1  C          5.5200    1.9300    1.2750 C.3     1  UNL1        0.0800
      2  C          5.0760    0.7120    2.0090 C.2     1  UNL1        0.1300
      3  C          5.9630   -0.4710    2.1670 C.3     1  UNL1        0.0870
      4  O          3.9630    0.6510    2.5060 O.2     1  UNL1       -0.3000
      5  C          5.3940    1.7450   -0.2240 C.3     1  UNL1        0.0430
      6  C          6.5630    1.0490   -0.7900 C.2     1  UNL1       -0.0440
      7  C          7.8680    1.4940   -0.5490 C.2     1  UNL1        0.0080
      8  C          6.3790   -0.0670   -1.5740 C.2     1  UNL1        0.0540
      9  C          8.9270    0.8000   -1.1060 C.2     1  UNL1        0.0510
     10  C          7.4530   -0.7650   -2.1340 C.2     1  UNL1        0.1660
     11  C          8.7370   -0.3280   -1.8980 C.2     1  UNL1        0.1650
     12  O          7.5300   -1.8840   -2.9360 O.2     1  UNL1       -0.4540
     13  O          9.5860   -1.1970   -2.5660 O.2     1  UNL1       -0.4540
     14  C          8.8670   -2.2510   -3.1620 C.3     1  UNL1        0.4680
@<TRIPOS>BOND
     1    14    12    1
     2    14    13    1
     3    12    10    1
     4    13    11    1
     5    10    11    2
     6    10     8    1
     7    11     9    1
     8     8     6    2
     9     9     7    2
    10     6     7    1
    11     6     5    1
    12     5     1    1
    13     1     2    1
    14     2     3    1
    15     2     4    2
