@<TRIPOS>MOLECULE
/home/cewinharhar/GITHUB/reincatalyze/data/processed/docking_pred/2023-May-24-1506_sub9_nm5_bs15_s42_ex16_mel10_mts10000_k50_ec02_g099_lra3e-4_lrc3e-3/141a4713aaf07cdd351da17b8461b13d6c9c65f9_ligand_9.pdbqt
 14 15 0 0 0
SMALL
GASTEIGER

@<TRIPOS>ATOM
      1  C          5.7470    1.3090   -0.3140 C.3     1  UNL1        0.0800
      2  C          5.2110    1.2390    1.0740 C.2     1  UNL1        0.1300
      3  C          5.4690    0.0670    1.9530 C.3     1  UNL1        0.0870
      4  O          4.5410    2.1500    1.5340 O.2     1  UNL1       -0.3000
      5  C          7.2480    1.1020   -0.3360 C.3     1  UNL1        0.0430
      6  C          7.6130   -0.1920   -0.9400 C.2     1  UNL1       -0.0440
      7  C          7.6340   -0.3720   -2.3280 C.2     1  UNL1        0.0080
      8  C          7.9450   -1.2540   -0.1300 C.2     1  UNL1        0.0540
      9  C          7.9850   -1.6090   -2.8390 C.2     1  UNL1        0.0510
     10  C          8.3000   -2.5010   -0.6510 C.2     1  UNL1        0.1660
     11  C          8.3200   -2.6800   -2.0170 C.2     1  UNL1        0.1650
     12  O          8.6650   -3.6950   -0.0660 O.2     1  UNL1       -0.4540
     13  O          8.7020   -3.9940   -2.2430 O.2     1  UNL1       -0.4540
     14  C          9.0180   -4.6460   -1.0370 C.3     1  UNL1        0.4680
@<TRIPOS>BOND
     1     9     7    1
     2     9    11    2
     3     7     6    2
     4    13    11    1
     5    13    14    1
     6    11    10    1
     7    14    12    1
     8     6     5    1
     9     6     8    1
    10    10     8    2
    11    10    12    1
    12     5     1    1
    13     1     2    1
    14     2     4    2
    15     2     3    1
