@<TRIPOS>MOLECULE
/home/cewinharhar/GITHUB/reincatalyze/data/processed/docking_pred/2023-May-24-1506_sub9_nm5_bs15_s42_ex16_mel10_mts10000_k50_ec02_g099_lra3e-4_lrc3e-3/141be626e2cd6ba8f6b8a46d6dbef4dd02701a2b_ligand_9.pdbqt
 14 15 0 0 0
SMALL
GASTEIGER

@<TRIPOS>ATOM
      1  C          5.3110   -0.0780    1.9740 C.3     1  UNL1        0.0800
      2  C          4.4440    1.1200    1.8020 C.2     1  UNL1        0.1300
      3  C          4.7300    2.1500    0.7680 C.3     1  UNL1        0.0870
      4  O          3.4660    1.2930    2.5120 O.2     1  UNL1       -0.3000
      5  C          6.7800    0.2920    1.9140 C.3     1  UNL1        0.0430
      6  C          7.3800   -0.0630    0.6150 C.2     1  UNL1       -0.0440
      7  C          7.8550    0.9160   -0.2650 C.2     1  UNL1        0.0080
      8  C          7.4840   -1.3860    0.2510 C.2     1  UNL1        0.0540
      9  C          8.4090    0.5240   -1.4700 C.2     1  UNL1        0.0510
     10  C          8.0470   -1.7780   -0.9680 C.2     1  UNL1        0.1660
     11  C          8.5120   -0.8150   -1.8350 C.2     1  UNL1        0.1650
     12  O          8.2600   -3.0080   -1.5520 O.2     1  UNL1       -0.4540
     13  O          9.0080   -1.4820   -2.9450 O.2     1  UNL1       -0.4540
     14  C          8.9500   -2.8770   -2.7680 C.3     1  UNL1        0.4680
@<TRIPOS>BOND
     1    13    14    1
     2    13    11    1
     3    14    12    1
     4    11     9    2
     5    11    10    1
     6    12    10    1
     7     9     7    1
     8    10     8    2
     9     7     6    2
    10     8     6    1
    11     6     5    1
    12     3     2    1
    13     2     1    1
    14     2     4    2
    15     5     1    1
