MODEL 1
REMARK VINA RESULT:      -7.6      0.000      0.000
REMARK SMILES CC(=O)CCc1ccc2c(c1)OCO2
REMARK SMILES IDX 4 1 2 2 1 3 3 4 5 5 6 6 7 7 11 8 8 9 10 10 9 11 12 12 14 13
REMARK SMILES IDX 13 14
REMARK H PARENT
REMARK Flexibility Score: inf
ROOT
ATOM      1  C   UNL     1       5.465   1.929   1.256  1.00  0.00     0.080 C 
ENDROOT
BRANCH   1   2
ATOM      2  C   UNL     1       4.976   0.720   1.974  1.00  0.00     0.130 C 
ATOM      3  C   UNL     1       5.806  -0.509   2.090  1.00  0.00     0.087 C 
ATOM      4  O   UNL     1       3.871   0.702   2.491  1.00  0.00    -0.300 OA
ENDBRANCH   1   2
BRANCH   1   5
ATOM      5  C   UNL     1       5.361   1.757  -0.247  1.00  0.00     0.043 C 
BRANCH   5   6
ATOM      6  C   UNL     1       6.530   1.049  -0.798  1.00  0.00    -0.044 A 
ATOM      7  C   UNL     1       7.837   1.470  -0.526  1.00  0.00     0.008 A 
ATOM      8  C   UNL     1       6.344  -0.054  -1.599  1.00  0.00     0.054 A 
ATOM      9  C   UNL     1       8.895   0.766  -1.070  1.00  0.00     0.051 A 
ATOM     10  C   UNL     1       7.418  -0.763  -2.146  1.00  0.00     0.166 A 
ATOM     11  C   UNL     1       8.704  -0.349  -1.880  1.00  0.00     0.165 A 
ATOM     12  O   UNL     1       7.494  -1.873  -2.961  1.00  0.00    -0.454 OA
ATOM     13  O   UNL     1       9.552  -1.224  -2.542  1.00  0.00    -0.454 OA
ATOM     14  C   UNL     1       8.829  -2.259  -3.165  1.00  0.00     0.468 C 
ENDBRANCH   5   6
ENDBRANCH   1   5
TORSDOF 3
ENDMDL
MODEL 2
REMARK VINA RESULT:      -7.4      1.942      2.361
REMARK SMILES CC(=O)CCc1ccc2c(c1)OCO2
REMARK SMILES IDX 4 1 2 2 1 3 3 4 5 5 6 6 7 7 11 8 8 9 10 10 9 11 12 12 14 13
REMARK SMILES IDX 13 14
REMARK H PARENT
REMARK Flexibility Score: inf
ROOT
ATOM      1  C   UNL     1       5.693   1.380  -0.227  1.00  0.00     0.080 C 
ENDROOT
BRANCH   1   2
ATOM      2  C   UNL     1       4.993   1.230   1.080  1.00  0.00     0.130 C 
ATOM      3  C   UNL     1       5.253   0.071   1.975  1.00  0.00     0.087 C 
ATOM      4  O   UNL     1       4.181   2.060   1.455  1.00  0.00    -0.300 OA
ENDBRANCH   1   2
BRANCH   1   5
ATOM      5  C   UNL     1       7.178   1.107  -0.091  1.00  0.00     0.043 C 
BRANCH   5   6
ATOM      6  C   UNL     1       7.560  -0.164  -0.733  1.00  0.00    -0.044 A 
ATOM      7  C   UNL     1       7.625  -0.292  -2.125  1.00  0.00     0.008 A 
ATOM      8  C   UNL     1       7.865  -1.257   0.047  1.00  0.00     0.054 A 
ATOM      9  C   UNL     1       7.991  -1.509  -2.670  1.00  0.00     0.051 A 
ATOM     10  C   UNL     1       8.236  -2.485  -0.510  1.00  0.00     0.166 A 
ATOM     11  C   UNL     1       8.298  -2.612  -1.879  1.00  0.00     0.165 A 
ATOM     12  O   UNL     1       8.580  -3.700   0.042  1.00  0.00    -0.454 OA
ATOM     13  O   UNL     1       8.685  -3.917  -2.143  1.00  0.00    -0.454 OA
ATOM     14  C   UNL     1       8.963  -4.615  -0.953  1.00  0.00     0.468 C 
ENDBRANCH   5   6
ENDBRANCH   1   5
TORSDOF 3
ENDMDL
MODEL 3
REMARK VINA RESULT:      -7.3      2.073      2.647
REMARK SMILES CC(=O)CCc1ccc2c(c1)OCO2
REMARK SMILES IDX 4 1 2 2 1 3 3 4 5 5 6 6 7 7 11 8 8 9 10 10 9 11 12 12 14 13
REMARK SMILES IDX 13 14
REMARK H PARENT
REMARK Flexibility Score: inf
ROOT
ATOM      1  C   UNL     1       5.355  -0.106   2.007  1.00  0.00     0.080 C 
ENDROOT
BRANCH   1   2
ATOM      2  C   UNL     1       4.516   1.100   1.758  1.00  0.00     0.130 C 
ATOM      3  C   UNL     1       4.847   2.072   0.682  1.00  0.00     0.087 C 
ATOM      4  O   UNL     1       3.526   1.325   2.435  1.00  0.00    -0.300 OA
ENDBRANCH   1   2
BRANCH   1   5
ATOM      5  C   UNL     1       6.800   0.140   1.623  1.00  0.00     0.043 C 
BRANCH   5   6
ATOM      6  C   UNL     1       7.244  -0.772   0.554  1.00  0.00    -0.044 A 
ATOM      7  C   UNL     1       7.117  -0.433  -0.798  1.00  0.00     0.008 A 
ATOM      8  C   UNL     1       7.801  -1.987   0.881  1.00  0.00     0.054 A 
ATOM      9  C   UNL     1       7.552  -1.329  -1.758  1.00  0.00     0.051 A 
ATOM     10  C   UNL     1       8.239  -2.889  -0.093  1.00  0.00     0.166 A 
ATOM     11  C   UNL     1       8.114  -2.557  -1.424  1.00  0.00     0.165 A 
ATOM     12  O   UNL     1       8.817  -4.139  -0.024  1.00  0.00    -0.454 OA
ATOM     13  O   UNL     1       8.623  -3.621  -2.152  1.00  0.00    -0.454 OA
ATOM     14  C   UNL     1       9.162  -4.606  -1.303  1.00  0.00     0.468 C 
ENDBRANCH   5   6
ENDBRANCH   1   5
TORSDOF 3
ENDMDL
MODEL 4
REMARK VINA RESULT:      -7.0      1.271      1.492
REMARK SMILES CC(=O)CCc1ccc2c(c1)OCO2
REMARK SMILES IDX 4 1 2 2 1 3 3 4 5 5 6 6 7 7 11 8 8 9 10 10 9 11 12 12 14 13
REMARK SMILES IDX 13 14
REMARK H PARENT
REMARK Flexibility Score: inf
ROOT
ATOM      1  C   UNL     1       6.342   1.216   0.890  1.00  0.00     0.080 C 
ENDROOT
BRANCH   1   2
ATOM      2  C   UNL     1       5.662   0.373   1.913  1.00  0.00     0.130 C 
ATOM      3  C   UNL     1       6.315  -0.833   2.489  1.00  0.00     0.087 C 
ATOM      4  O   UNL     1       4.542   0.650   2.309  1.00  0.00    -0.300 OA
ENDBRANCH   1   2
BRANCH   1   5
ATOM      5  C   UNL     1       5.835   0.906  -0.505  1.00  0.00     0.043 C 
BRANCH   5   6
ATOM      6  C   UNL     1       6.797   0.091  -1.267  1.00  0.00    -0.044 A 
ATOM      7  C   UNL     1       7.500   0.617  -2.358  1.00  0.00     0.008 A 
ATOM      8  C   UNL     1       7.019  -1.218  -0.906  1.00  0.00     0.054 A 
ATOM      9  C   UNL     1       8.391  -0.195  -3.036  1.00  0.00     0.051 A 
ATOM     10  C   UNL     1       7.921  -2.035  -1.594  1.00  0.00     0.166 A 
ATOM     11  C   UNL     1       8.612  -1.519  -2.668  1.00  0.00     0.165 A 
ATOM     12  O   UNL     1       8.311  -3.347  -1.434  1.00  0.00    -0.454 OA
ATOM     13  O   UNL     1       9.422  -2.536  -3.149  1.00  0.00    -0.454 OA
ATOM     14  C   UNL     1       9.330  -3.685  -2.341  1.00  0.00     0.468 C 
ENDBRANCH   5   6
ENDBRANCH   1   5
TORSDOF 3
ENDMDL
MODEL 5
REMARK VINA RESULT:      -6.9      1.246      1.742
REMARK SMILES CC(=O)CCc1ccc2c(c1)OCO2
REMARK SMILES IDX 4 1 2 2 1 3 3 4 5 5 6 6 7 7 11 8 8 9 10 10 9 11 12 12 14 13
REMARK SMILES IDX 13 14
REMARK H PARENT
REMARK Flexibility Score: inf
ROOT
ATOM      1  C   UNL     1       5.306  -0.079   1.950  1.00  0.00     0.080 C 
ENDROOT
BRANCH   1   2
ATOM      2  C   UNL     1       4.422   1.106   1.768  1.00  0.00     0.130 C 
ATOM      3  C   UNL     1       4.691   2.127   0.720  1.00  0.00     0.087 C 
ATOM      4  O   UNL     1       3.445   1.275   2.480  1.00  0.00    -0.300 OA
ENDBRANCH   1   2
BRANCH   1   5
ATOM      5  C   UNL     1       6.769   0.313   1.905  1.00  0.00     0.043 C 
BRANCH   5   6
ATOM      6  C   UNL     1       7.387  -0.031   0.612  1.00  0.00    -0.044 A 
ATOM      7  C   UNL     1       7.906   0.954  -0.237  1.00  0.00     0.008 A 
ATOM      8  C   UNL     1       7.464  -1.348   0.221  1.00  0.00     0.054 A 
ATOM      9  C   UNL     1       8.475   0.572  -1.438  1.00  0.00     0.051 A 
ATOM     10  C   UNL     1       8.041  -1.729  -0.994  1.00  0.00     0.166 A 
ATOM     11  C   UNL     1       8.550  -0.761  -1.831  1.00  0.00     0.165 A 
ATOM     12  O   UNL     1       8.234  -2.952  -1.601  1.00  0.00    -0.454 OA
ATOM     13  O   UNL     1       9.051  -1.416  -2.945  1.00  0.00    -0.454 OA
ATOM     14  C   UNL     1       8.953  -2.813  -2.799  1.00  0.00     0.468 C 
ENDBRANCH   5   6
ENDBRANCH   1   5
TORSDOF 3
ENDMDL
