@<TRIPOS>MOLECULE
/home/cewinharhar/GITHUB/reincatalyze/data/processed/docking_pred/2023-May-24-1506_sub9_nm5_bs15_s42_ex16_mel10_mts10000_k50_ec02_g099_lra3e-4_lrc3e-3/1444e75be78da7e2931ed2b5f85ad252461f0798_ligand_9.pdbqt
 14 15 0 0 0
SMALL
GASTEIGER

@<TRIPOS>ATOM
      1  C          5.3550   -0.1060    2.0070 C.3     1  UNL1        0.0800
      2  C          4.5160    1.1000    1.7580 C.2     1  UNL1        0.1300
      3  C          4.8470    2.0720    0.6820 C.3     1  UNL1        0.0870
      4  O          3.5260    1.3250    2.4350 O.2     1  UNL1       -0.3000
      5  C          6.8000    0.1400    1.6230 C.3     1  UNL1        0.0430
      6  C          7.2440   -0.7720    0.5540 C.2     1  UNL1       -0.0440
      7  C          7.1170   -0.4330   -0.7980 C.2     1  UNL1        0.0080
      8  C          7.8010   -1.9870    0.8810 C.2     1  UNL1        0.0540
      9  C          7.5520   -1.3290   -1.7580 C.2     1  UNL1        0.0510
     10  C          8.2390   -2.8890   -0.0930 C.2     1  UNL1        0.1660
     11  C          8.1140   -2.5570   -1.4240 C.2     1  UNL1        0.1650
     12  O          8.8170   -4.1390   -0.0240 O.2     1  UNL1       -0.4540
     13  O          8.6230   -3.6210   -2.1520 O.2     1  UNL1       -0.4540
     14  C          9.1620   -4.6060   -1.3030 C.3     1  UNL1        0.4680
@<TRIPOS>BOND
     1    13    11    1
     2    13    14    1
     3     9    11    2
     4     9     7    1
     5    11    10    1
     6    14    12    1
     7     7     6    2
     8    10    12    1
     9    10     8    2
    10     6     8    1
    11     6     5    1
    12     3     2    1
    13     5     1    1
    14     2     1    1
    15     2     4    2
