MODEL 1
REMARK VINA RESULT:      -7.6      0.000      0.000
REMARK SMILES CC(=O)CCc1ccc2c(c1)OCO2
REMARK SMILES IDX 4 1 2 2 1 3 3 4 5 5 6 6 7 7 11 8 8 9 10 10 9 11 12 12 14 13
REMARK SMILES IDX 13 14
REMARK H PARENT
REMARK Flexibility Score: inf
ROOT
ATOM      1  C   UNL     1       5.551   1.898   1.285  1.00  0.00     0.080 C 
ENDROOT
BRANCH   1   2
ATOM      2  C   UNL     1       5.105   0.676   2.012  1.00  0.00     0.130 C 
ATOM      3  C   UNL     1       5.999  -0.500   2.185  1.00  0.00     0.087 C 
ATOM      4  O   UNL     1       3.984   0.606   2.491  1.00  0.00    -0.300 OA
ENDBRANCH   1   2
BRANCH   1   5
ATOM      5  C   UNL     1       5.419   1.724  -0.215  1.00  0.00     0.043 C 
BRANCH   5   6
ATOM      6  C   UNL     1       6.581   1.022  -0.788  1.00  0.00    -0.044 A 
ATOM      7  C   UNL     1       7.890   1.455  -0.549  1.00  0.00     0.008 A 
ATOM      8  C   UNL     1       6.385  -0.089  -1.577  1.00  0.00     0.054 A 
ATOM      9  C   UNL     1       8.942   0.755  -1.112  1.00  0.00     0.051 A 
ATOM     10  C   UNL     1       7.452  -0.793  -2.144  1.00  0.00     0.166 A 
ATOM     11  C   UNL     1       8.740  -0.367  -1.910  1.00  0.00     0.165 A 
ATOM     12  O   UNL     1       7.518  -1.908  -2.952  1.00  0.00    -0.454 OA
ATOM     13  O   UNL     1       9.580  -1.239  -2.585  1.00  0.00    -0.454 OA
ATOM     14  C   UNL     1       8.851  -2.284  -3.184  1.00  0.00     0.468 C 
ENDBRANCH   5   6
ENDBRANCH   1   5
TORSDOF 3
ENDMDL
MODEL 2
REMARK VINA RESULT:      -7.4      1.924      2.376
REMARK SMILES CC(=O)CCc1ccc2c(c1)OCO2
REMARK SMILES IDX 4 1 2 2 1 3 3 4 5 5 6 6 7 7 11 8 8 9 10 10 9 11 12 12 14 13
REMARK SMILES IDX 13 14
REMARK H PARENT
REMARK Flexibility Score: inf
ROOT
ATOM      1  C   UNL     1       5.808   1.402  -0.253  1.00  0.00     0.080 C 
ENDROOT
BRANCH   1   2
ATOM      2  C   UNL     1       5.154   1.271   1.079  1.00  0.00     0.130 C 
ATOM      3  C   UNL     1       5.361   0.072   1.935  1.00  0.00     0.087 C 
ATOM      4  O   UNL     1       4.425   2.150   1.509  1.00  0.00    -0.300 OA
ENDBRANCH   1   2
BRANCH   1   5
ATOM      5  C   UNL     1       7.294   1.114  -0.168  1.00  0.00     0.043 C 
BRANCH   5   6
ATOM      6  C   UNL     1       7.638  -0.171  -0.802  1.00  0.00    -0.044 A 
ATOM      7  C   UNL     1       7.664  -0.319  -2.193  1.00  0.00     0.008 A 
ATOM      8  C   UNL     1       7.945  -1.258  -0.015  1.00  0.00     0.054 A 
ATOM      9  C   UNL     1       7.995  -1.549  -2.731  1.00  0.00     0.051 A 
ATOM     10  C   UNL     1       8.280  -2.500  -0.564  1.00  0.00     0.166 A 
ATOM     11  C   UNL     1       8.305  -2.646  -1.934  1.00  0.00     0.165 A 
ATOM     12  O   UNL     1       8.619  -3.714  -0.006  1.00  0.00    -0.454 OA
ATOM     13  O   UNL     1       8.663  -3.961  -2.190  1.00  0.00    -0.454 OA
ATOM     14  C   UNL     1       8.960  -4.648  -0.997  1.00  0.00     0.468 C 
ENDBRANCH   5   6
ENDBRANCH   1   5
TORSDOF 3
ENDMDL
MODEL 3
REMARK VINA RESULT:      -7.2      2.060      2.627
REMARK SMILES CC(=O)CCc1ccc2c(c1)OCO2
REMARK SMILES IDX 4 1 2 2 1 3 3 4 5 5 6 6 7 7 11 8 8 9 10 10 9 11 12 12 14 13
REMARK SMILES IDX 13 14
REMARK H PARENT
REMARK Flexibility Score: inf
ROOT
ATOM      1  C   UNL     1       5.420  -0.051   2.009  1.00  0.00     0.080 C 
ENDROOT
BRANCH   1   2
ATOM      2  C   UNL     1       4.571   1.149   1.769  1.00  0.00     0.130 C 
ATOM      3  C   UNL     1       4.902   2.141   0.712  1.00  0.00     0.087 C 
ATOM      4  O   UNL     1       3.571   1.353   2.439  1.00  0.00    -0.300 OA
ENDBRANCH   1   2
BRANCH   1   5
ATOM      5  C   UNL     1       6.856   0.198   1.592  1.00  0.00     0.043 C 
BRANCH   5   6
ATOM      6  C   UNL     1       7.285  -0.730   0.531  1.00  0.00    -0.044 A 
ATOM      7  C   UNL     1       7.162  -0.402  -0.824  1.00  0.00     0.008 A 
ATOM      8  C   UNL     1       7.823  -1.951   0.869  1.00  0.00     0.054 A 
ATOM      9  C   UNL     1       7.583  -1.312  -1.776  1.00  0.00     0.051 A 
ATOM     10  C   UNL     1       8.248  -2.868  -0.097  1.00  0.00     0.166 A 
ATOM     11  C   UNL     1       8.127  -2.546  -1.431  1.00  0.00     0.165 A 
ATOM     12  O   UNL     1       8.807  -4.126  -0.017  1.00  0.00    -0.454 OA
ATOM     13  O   UNL     1       8.619  -3.624  -2.150  1.00  0.00    -0.454 OA
ATOM     14  C   UNL     1       9.144  -4.609  -1.292  1.00  0.00     0.468 C 
ENDBRANCH   5   6
ENDBRANCH   1   5
TORSDOF 3
ENDMDL
MODEL 4
REMARK VINA RESULT:      -7.1      1.244      1.448
REMARK SMILES CC(=O)CCc1ccc2c(c1)OCO2
REMARK SMILES IDX 4 1 2 2 1 3 3 4 5 5 6 6 7 7 11 8 8 9 10 10 9 11 12 12 14 13
REMARK SMILES IDX 13 14
REMARK H PARENT
REMARK Flexibility Score: inf
ROOT
ATOM      1  C   UNL     1       6.371   1.239   0.907  1.00  0.00     0.080 C 
ENDROOT
BRANCH   1   2
ATOM      2  C   UNL     1       5.671   0.408   1.925  1.00  0.00     0.130 C 
ATOM      3  C   UNL     1       6.306  -0.799   2.520  1.00  0.00     0.087 C 
ATOM      4  O   UNL     1       4.547   0.695   2.304  1.00  0.00    -0.300 OA
ENDBRANCH   1   2
BRANCH   1   5
ATOM      5  C   UNL     1       5.865   0.940  -0.490  1.00  0.00     0.043 C 
BRANCH   5   6
ATOM      6  C   UNL     1       6.818   0.114  -1.253  1.00  0.00    -0.044 A 
ATOM      7  C   UNL     1       7.517   0.627  -2.352  1.00  0.00     0.008 A 
ATOM      8  C   UNL     1       7.037  -1.193  -0.882  1.00  0.00     0.054 A 
ATOM      9  C   UNL     1       8.400  -0.194  -3.028  1.00  0.00     0.051 A 
ATOM     10  C   UNL     1       7.932  -2.019  -1.569  1.00  0.00     0.166 A 
ATOM     11  C   UNL     1       8.618  -1.516  -2.651  1.00  0.00     0.165 A 
ATOM     12  O   UNL     1       8.317  -3.332  -1.400  1.00  0.00    -0.454 OA
ATOM     13  O   UNL     1       9.420  -2.540  -3.129  1.00  0.00    -0.454 OA
ATOM     14  C   UNL     1       9.329  -3.682  -2.310  1.00  0.00     0.468 C 
ENDBRANCH   5   6
ENDBRANCH   1   5
TORSDOF 3
ENDMDL
MODEL 5
REMARK VINA RESULT:      -6.8      1.965      2.562
REMARK SMILES CC(=O)CCc1ccc2c(c1)OCO2
REMARK SMILES IDX 4 1 2 2 1 3 3 4 5 5 6 6 7 7 11 8 8 9 10 10 9 11 12 12 14 13
REMARK SMILES IDX 13 14
REMARK H PARENT
REMARK Flexibility Score: inf
ROOT
ATOM      1  C   UNL     1       7.059   0.942   1.051  1.00  0.00     0.080 C 
ENDROOT
BRANCH   1   2
ATOM      2  C   UNL     1       5.623   1.106   1.411  1.00  0.00     0.130 C 
ATOM      3  C   UNL     1       4.769   2.139   0.767  1.00  0.00     0.087 C 
ATOM      4  O   UNL     1       5.103   0.391   2.252  1.00  0.00    -0.300 OA
ENDBRANCH   1   2
BRANCH   1   5
ATOM      5  C   UNL     1       7.262   1.009  -0.450  1.00  0.00     0.043 C 
BRANCH   5   6
ATOM      6  C   UNL     1       7.665  -0.295  -1.006  1.00  0.00    -0.044 A 
ATOM      7  C   UNL     1       7.795  -0.495  -2.385  1.00  0.00     0.008 A 
ATOM      8  C   UNL     1       7.925  -1.347  -0.157  1.00  0.00     0.054 A 
ATOM      9  C   UNL     1       8.177  -1.741  -2.849  1.00  0.00     0.051 A 
ATOM     10  C   UNL     1       8.313  -2.604  -0.631  1.00  0.00     0.166 A 
ATOM     11  C   UNL     1       8.439  -2.802  -1.988  1.00  0.00     0.165 A 
ATOM     12  O   UNL     1       8.622  -3.791  -0.002  1.00  0.00    -0.454 OA
ATOM     13  O   UNL     1       8.829  -4.120  -2.166  1.00  0.00    -0.454 OA
ATOM     14  C   UNL     1       9.045  -4.758  -0.929  1.00  0.00     0.468 C 
ENDBRANCH   5   6
ENDBRANCH   1   5
TORSDOF 3
ENDMDL
