@<TRIPOS>MOLECULE
/home/cewinharhar/GITHUB/reincatalyze/data/processed/docking_pred/2023-May-24-1506_sub9_nm5_bs15_s42_ex16_mel10_mts10000_k50_ec02_g099_lra3e-4_lrc3e-3/16519f8051380dc2329c6f51dcb24a8f5dfeda31_ligand_9.pdbqt
 14 15 0 0 0
SMALL
GASTEIGER

@<TRIPOS>ATOM
      1  C          7.0590    0.9420    1.0510 C.3     1  UNL1        0.0800
      2  C          5.6230    1.1060    1.4110 C.2     1  UNL1        0.1300
      3  C          4.7690    2.1390    0.7670 C.3     1  UNL1        0.0870
      4  O          5.1030    0.3910    2.2520 O.2     1  UNL1       -0.3000
      5  C          7.2620    1.0090   -0.4500 C.3     1  UNL1        0.0430
      6  C          7.6650   -0.2950   -1.0060 C.2     1  UNL1       -0.0440
      7  C          7.7950   -0.4950   -2.3850 C.2     1  UNL1        0.0080
      8  C          7.9250   -1.3470   -0.1570 C.2     1  UNL1        0.0540
      9  C          8.1770   -1.7410   -2.8490 C.2     1  UNL1        0.0510
     10  C          8.3130   -2.6040   -0.6310 C.2     1  UNL1        0.1660
     11  C          8.4390   -2.8020   -1.9880 C.2     1  UNL1        0.1650
     12  O          8.6220   -3.7910   -0.0020 O.2     1  UNL1       -0.4540
     13  O          8.8290   -4.1200   -2.1660 O.2     1  UNL1       -0.4540
     14  C          9.0450   -4.7580   -0.9290 C.3     1  UNL1        0.4680
@<TRIPOS>BOND
     1     9     7    1
     2     9    11    2
     3     7     6    2
     4    13    11    1
     5    13    14    1
     6    11    10    1
     7     6     5    1
     8     6     8    1
     9    14    12    1
    10    10     8    2
    11    10    12    1
    12     5     1    1
    13     3     2    1
    14     1     2    1
    15     2     4    2
