@<TRIPOS>MOLECULE
/home/cewinharhar/GITHUB/reincatalyze/data/processed/docking_pred/2023-May-24-1506_sub9_nm5_bs15_s42_ex16_mel10_mts10000_k50_ec02_g099_lra3e-4_lrc3e-3/1a0a4210c7fbec369f44508687af2363e72d8760_ligand_9.pdbqt
 14 15 0 0 0
SMALL
GASTEIGER

@<TRIPOS>ATOM
      1  C          5.7160    1.3880   -0.3100 C.3     1  UNL1        0.0800
      2  C          5.1360    1.2910    1.0580 C.2     1  UNL1        0.1300
      3  C          5.4560    0.1560    1.9640 C.3     1  UNL1        0.0870
      4  O          4.3740    2.1480    1.4780 O.2     1  UNL1       -0.3000
      5  C          7.2160    1.1670   -0.2890 C.3     1  UNL1        0.0430
      6  C          7.5860   -0.1280   -0.8850 C.2     1  UNL1       -0.0440
      7  C          7.6700   -0.3000   -2.2720 C.2     1  UNL1        0.0080
      8  C          7.8620   -1.2020   -0.0690 C.2     1  UNL1        0.0540
      9  C          8.0230   -1.5390   -2.7750 C.2     1  UNL1        0.0510
     10  C          8.2190   -2.4520   -0.5820 C.2     1  UNL1        0.1660
     11  C          8.3000   -2.6220   -1.9460 C.2     1  UNL1        0.1650
     12  O          8.5350   -3.6560    0.0110 O.2     1  UNL1       -0.4540
     13  O          8.6690   -3.9400   -2.1650 O.2     1  UNL1       -0.4540
     14  C          8.9170   -4.6060   -0.9500 C.3     1  UNL1        0.4680
@<TRIPOS>BOND
     1     9     7    1
     2     9    11    2
     3     7     6    2
     4    13    11    1
     5    13    14    1
     6    11    10    1
     7    14    12    1
     8     6     5    1
     9     6     8    1
    10    10     8    2
    11    10    12    1
    12     1     5    1
    13     1     2    1
    14     2     4    2
    15     2     3    1
