@<TRIPOS>MOLECULE
/home/cewinharhar/GITHUB/reincatalyze/data/processed/docking_pred/2023-May-24-1506_sub9_nm5_bs15_s42_ex16_mel10_mts10000_k50_ec02_g099_lra3e-4_lrc3e-3/1c0c8a91d3eae7937fa2398dc61f909c50ab5738_ligand_9.pdbqt
 14 15 0 0 0
SMALL
GASTEIGER

@<TRIPOS>ATOM
      1  C          5.5000    1.9450    1.2470 C.3     1  UNL1        0.0800
      2  C          5.0800    0.7290    1.9970 C.2     1  UNL1        0.1300
      3  C          5.9910   -0.4350    2.1690 C.3     1  UNL1        0.0870
      4  O          3.9690    0.6520    2.4960 O.2     1  UNL1       -0.3000
      5  C          5.3780    1.7380   -0.2500 C.3     1  UNL1        0.0430
      6  C          6.5500    1.0360   -0.8020 C.2     1  UNL1       -0.0440
      7  C          7.8550    1.4660   -0.5340 C.2     1  UNL1        0.0080
      8  C          6.3700   -0.0710   -1.5990 C.2     1  UNL1        0.0540
      9  C          8.9170    0.7680   -1.0790 C.2     1  UNL1        0.0510
     10  C          7.4470   -0.7740   -2.1470 C.2     1  UNL1        0.1660
     11  C          8.7310   -0.3510   -1.8850 C.2     1  UNL1        0.1650
     12  O          7.5280   -1.8860   -2.9580 O.2     1  UNL1       -0.4540
     13  O          9.5830   -1.2220   -2.5460 O.2     1  UNL1       -0.4540
     14  C          8.8650   -2.2640   -3.1640 C.3     1  UNL1        0.4680
@<TRIPOS>BOND
     1    14    12    1
     2    14    13    1
     3    12    10    1
     4    13    11    1
     5    10    11    2
     6    10     8    1
     7    11     9    1
     8     8     6    2
     9     9     7    2
    10     6     7    1
    11     6     5    1
    12     5     1    1
    13     1     2    1
    14     2     3    1
    15     2     4    2
