MODEL 1
REMARK VINA RESULT:      -7.7      0.000      0.000
REMARK SMILES CC(=O)CCc1ccc2c(c1)OCO2
REMARK SMILES IDX 4 1 2 2 1 3 3 4 5 5 6 6 7 7 11 8 8 9 10 10 9 11 12 12 14 13
REMARK SMILES IDX 13 14
REMARK H PARENT
REMARK Flexibility Score: inf
ROOT
ATOM      1  C   UNL     1       5.500   1.945   1.247  1.00  0.00     0.080 C 
ENDROOT
BRANCH   1   2
ATOM      2  C   UNL     1       5.080   0.729   1.997  1.00  0.00     0.130 C 
ATOM      3  C   UNL     1       5.991  -0.435   2.169  1.00  0.00     0.087 C 
ATOM      4  O   UNL     1       3.969   0.652   2.496  1.00  0.00    -0.300 OA
ENDBRANCH   1   2
BRANCH   1   5
ATOM      5  C   UNL     1       5.378   1.738  -0.250  1.00  0.00     0.043 C 
BRANCH   5   6
ATOM      6  C   UNL     1       6.550   1.036  -0.802  1.00  0.00    -0.044 A 
ATOM      7  C   UNL     1       7.855   1.466  -0.534  1.00  0.00     0.008 A 
ATOM      8  C   UNL     1       6.370  -0.071  -1.599  1.00  0.00     0.054 A 
ATOM      9  C   UNL     1       8.917   0.768  -1.079  1.00  0.00     0.051 A 
ATOM     10  C   UNL     1       7.447  -0.774  -2.147  1.00  0.00     0.166 A 
ATOM     11  C   UNL     1       8.731  -0.351  -1.885  1.00  0.00     0.165 A 
ATOM     12  O   UNL     1       7.528  -1.886  -2.958  1.00  0.00    -0.454 OA
ATOM     13  O   UNL     1       9.583  -1.222  -2.546  1.00  0.00    -0.454 OA
ATOM     14  C   UNL     1       8.865  -2.264  -3.164  1.00  0.00     0.468 C 
ENDBRANCH   5   6
ENDBRANCH   1   5
TORSDOF 3
ENDMDL
MODEL 2
REMARK VINA RESULT:      -7.5      1.905      2.367
REMARK SMILES CC(=O)CCc1ccc2c(c1)OCO2
REMARK SMILES IDX 4 1 2 2 1 3 3 4 5 5 6 6 7 7 11 8 8 9 10 10 9 11 12 12 14 13
REMARK SMILES IDX 13 14
REMARK H PARENT
REMARK Flexibility Score: inf
ROOT
ATOM      1  C   UNL     1       5.788   1.451  -0.328  1.00  0.00     0.080 C 
ENDROOT
BRANCH   1   2
ATOM      2  C   UNL     1       5.158   1.354   1.019  1.00  0.00     0.130 C 
ATOM      3  C   UNL     1       5.543   0.290   1.985  1.00  0.00     0.087 C 
ATOM      4  O   UNL     1       4.303   2.150   1.370  1.00  0.00    -0.300 OA
ENDBRANCH   1   2
BRANCH   1   5
ATOM      5  C   UNL     1       7.279   1.186  -0.259  1.00  0.00     0.043 C 
BRANCH   5   6
ATOM      6  C   UNL     1       7.632  -0.110  -0.866  1.00  0.00    -0.044 A 
ATOM      7  C   UNL     1       7.696  -0.276  -2.254  1.00  0.00     0.008 A 
ATOM      8  C   UNL     1       7.909  -1.189  -0.057  1.00  0.00     0.054 A 
ATOM      9  C   UNL     1       8.033  -1.516  -2.766  1.00  0.00     0.051 A 
ATOM     10  C   UNL     1       8.251  -2.439  -0.580  1.00  0.00     0.166 A 
ATOM     11  C   UNL     1       8.313  -2.604  -1.946  1.00  0.00     0.165 A 
ATOM     12  O   UNL     1       8.566  -3.648   0.004  1.00  0.00    -0.454 OA
ATOM     13  O   UNL     1       8.669  -3.924  -2.175  1.00  0.00    -0.454 OA
ATOM     14  C   UNL     1       8.928  -4.597  -0.966  1.00  0.00     0.468 C 
ENDBRANCH   5   6
ENDBRANCH   1   5
TORSDOF 3
ENDMDL
MODEL 3
REMARK VINA RESULT:      -7.2      2.101      2.632
REMARK SMILES CC(=O)CCc1ccc2c(c1)OCO2
REMARK SMILES IDX 4 1 2 2 1 3 3 4 5 5 6 6 7 7 11 8 8 9 10 10 9 11 12 12 14 13
REMARK SMILES IDX 13 14
REMARK H PARENT
REMARK Flexibility Score: inf
ROOT
ATOM      1  C   UNL     1       5.566   0.001   1.915  1.00  0.00     0.080 C 
ENDROOT
BRANCH   1   2
ATOM      2  C   UNL     1       4.677   1.162   1.631  1.00  0.00     0.130 C 
ATOM      3  C   UNL     1       4.956   2.104   0.514  1.00  0.00     0.087 C 
ATOM      4  O   UNL     1       3.688   1.376   2.313  1.00  0.00    -0.300 OA
ENDBRANCH   1   2
BRANCH   1   5
ATOM      5  C   UNL     1       6.981   0.261   1.438  1.00  0.00     0.043 C 
BRANCH   5   6
ATOM      6  C   UNL     1       7.396  -0.706   0.407  1.00  0.00    -0.044 A 
ATOM      7  C   UNL     1       7.318  -0.403  -0.957  1.00  0.00     0.008 A 
ATOM      8  C   UNL     1       7.877  -1.940   0.783  1.00  0.00     0.054 A 
ATOM      9  C   UNL     1       7.723  -1.350  -1.880  1.00  0.00     0.051 A 
ATOM     10  C   UNL     1       8.285  -2.894  -0.154  1.00  0.00     0.166 A 
ATOM     11  C   UNL     1       8.208  -2.597  -1.496  1.00  0.00     0.165 A 
ATOM     12  O   UNL     1       8.790  -4.172  -0.035  1.00  0.00    -0.454 OA
ATOM     13  O   UNL     1       8.672  -3.709  -2.181  1.00  0.00    -0.454 OA
ATOM     14  C   UNL     1       9.136  -4.696  -1.292  1.00  0.00     0.468 C 
ENDBRANCH   5   6
ENDBRANCH   1   5
TORSDOF 3
ENDMDL
MODEL 4
REMARK VINA RESULT:      -7.1      1.259      1.478
REMARK SMILES CC(=O)CCc1ccc2c(c1)OCO2
REMARK SMILES IDX 4 1 2 2 1 3 3 4 5 5 6 6 7 7 11 8 8 9 10 10 9 11 12 12 14 13
REMARK SMILES IDX 13 14
REMARK H PARENT
REMARK Flexibility Score: inf
ROOT
ATOM      1  C   UNL     1       6.377   1.191   0.932  1.00  0.00     0.080 C 
ENDROOT
BRANCH   1   2
ATOM      2  C   UNL     1       5.658   0.370   1.946  1.00  0.00     0.130 C 
ATOM      3  C   UNL     1       6.262  -0.858   2.527  1.00  0.00     0.087 C 
ATOM      4  O   UNL     1       4.543   0.685   2.330  1.00  0.00    -0.300 OA
ENDBRANCH   1   2
BRANCH   1   5
ATOM      5  C   UNL     1       5.864   0.913  -0.467  1.00  0.00     0.043 C 
BRANCH   5   6
ATOM      6  C   UNL     1       6.812   0.096  -1.244  1.00  0.00    -0.044 A 
ATOM      7  C   UNL     1       7.491   0.616  -2.352  1.00  0.00     0.008 A 
ATOM      8  C   UNL     1       7.046  -1.211  -0.880  1.00  0.00     0.054 A 
ATOM      9  C   UNL     1       8.370  -0.198  -3.043  1.00  0.00     0.051 A 
ATOM     10  C   UNL     1       7.936  -2.029  -1.582  1.00  0.00     0.166 A 
ATOM     11  C   UNL     1       8.603  -1.518  -2.673  1.00  0.00     0.165 A 
ATOM     12  O   UNL     1       8.333  -3.340  -1.421  1.00  0.00    -0.454 OA
ATOM     13  O   UNL     1       9.406  -2.536  -3.164  1.00  0.00    -0.454 OA
ATOM     14  C   UNL     1       9.334  -3.680  -2.347  1.00  0.00     0.468 C 
ENDBRANCH   5   6
ENDBRANCH   1   5
TORSDOF 3
ENDMDL
MODEL 5
REMARK VINA RESULT:      -6.8      1.260      1.758
REMARK SMILES CC(=O)CCc1ccc2c(c1)OCO2
REMARK SMILES IDX 4 1 2 2 1 3 3 4 5 5 6 6 7 7 11 8 8 9 10 10 9 11 12 12 14 13
REMARK SMILES IDX 13 14
REMARK H PARENT
REMARK Flexibility Score: inf
ROOT
ATOM      1  C   UNL     1       5.327  -0.065   1.970  1.00  0.00     0.080 C 
ENDROOT
BRANCH   1   2
ATOM      2  C   UNL     1       4.442   1.119   1.787  1.00  0.00     0.130 C 
ATOM      3  C   UNL     1       4.722   2.150   0.751  1.00  0.00     0.087 C 
ATOM      4  O   UNL     1       3.456   1.279   2.487  1.00  0.00    -0.300 OA
ENDBRANCH   1   2
BRANCH   1   5
ATOM      5  C   UNL     1       6.790   0.325   1.904  1.00  0.00     0.043 C 
BRANCH   5   6
ATOM      6  C   UNL     1       7.393  -0.034   0.608  1.00  0.00    -0.044 A 
ATOM      7  C   UNL     1       7.889   0.941  -0.265  1.00  0.00     0.008 A 
ATOM      8  C   UNL     1       7.478  -1.357   0.238  1.00  0.00     0.054 A 
ATOM      9  C   UNL     1       8.446   0.544  -1.468  1.00  0.00     0.051 A 
ATOM     10  C   UNL     1       8.042  -1.753  -0.978  1.00  0.00     0.166 A 
ATOM     11  C   UNL     1       8.529  -0.795  -1.839  1.00  0.00     0.165 A 
ATOM     12  O   UNL     1       8.239  -2.985  -1.566  1.00  0.00    -0.454 OA
ATOM     13  O   UNL     1       9.021  -1.465  -2.948  1.00  0.00    -0.454 OA
ATOM     14  C   UNL     1       8.940  -2.859  -2.777  1.00  0.00     0.468 C 
ENDBRANCH   5   6
ENDBRANCH   1   5
TORSDOF 3
ENDMDL
