@<TRIPOS>MOLECULE
/home/cewinharhar/GITHUB/reincatalyze/data/processed/docking_pred/2023-May-24-1506_sub9_nm5_bs15_s42_ex16_mel10_mts10000_k50_ec02_g099_lra3e-4_lrc3e-3/1c86ade130d2cc9f902dffb19ba95248752a952e_ligand_9.pdbqt
 14 15 0 0 0
SMALL
GASTEIGER

@<TRIPOS>ATOM
      1  C          5.6020    1.8540    1.3030 C.3     1  UNL1        0.0800
      2  C          5.1410    0.6430    2.0370 C.2     1  UNL1        0.1300
      3  C          6.0240   -0.5400    2.2230 C.3     1  UNL1        0.0870
      4  O          4.0180    0.5860    2.5110 O.2     1  UNL1       -0.3000
      5  C          5.4520    1.6790   -0.1960 C.3     1  UNL1        0.0430
      6  C          6.6110    0.9840   -0.7830 C.2     1  UNL1       -0.0440
      7  C          7.9200    1.4300   -0.5680 C.2     1  UNL1        0.0080
      8  C          6.4130   -0.1330   -1.5630 C.2     1  UNL1        0.0540
      9  C          8.9690    0.7370   -1.1440 C.2     1  UNL1        0.0510
     10  C          7.4770   -0.8310   -2.1430 C.2     1  UNL1        0.1660
     11  C          8.7650   -0.3920   -1.9320 C.2     1  UNL1        0.1650
     12  O          7.5400   -1.9500   -2.9450 O.2     1  UNL1       -0.4540
     13  O          9.6010   -1.2600   -2.6160 O.2     1  UNL1       -0.4540
     14  C          8.8720   -2.3150   -3.1970 C.3     1  UNL1        0.4680
@<TRIPOS>BOND
     1    14    12    1
     2    14    13    1
     3    12    10    1
     4    13    11    1
     5    10    11    2
     6    10     8    1
     7    11     9    1
     8     8     6    2
     9     9     7    2
    10     6     7    1
    11     6     5    1
    12     5     1    1
    13     1     2    1
    14     2     3    1
    15     2     4    2
