@<TRIPOS>MOLECULE
/home/cewinharhar/GITHUB/reincatalyze/data/processed/docking_pred/2023-May-24-1506_sub9_nm5_bs15_s42_ex16_mel10_mts10000_k50_ec02_g099_lra3e-4_lrc3e-3/1e16add1d5649bf0b13dd0d86c7d3fc630d89625_ligand_9.pdbqt
 14 15 0 0 0
SMALL
GASTEIGER

@<TRIPOS>ATOM
      1  C          5.9310   -0.4560    1.5850 C.3     1  UNL1        0.0800
      2  C          4.9990    0.7000    1.6980 C.2     1  UNL1        0.1300
      3  C          5.0930    1.8720    0.7870 C.3     1  UNL1        0.0870
      4  O          4.1240    0.7180    2.5500 O.2     1  UNL1       -0.3000
      5  C          7.3310   -0.0010    1.2210 C.3     1  UNL1        0.0430
      6  C          7.6960   -0.4000   -0.1500 C.2     1  UNL1       -0.0440
      7  C          7.9700    0.5490   -1.1420 C.2     1  UNL1        0.0080
      8  C          7.7760   -1.7360   -0.4730 C.2     1  UNL1        0.0540
      9  C          8.3090    0.1150   -2.4100 C.2     1  UNL1        0.0510
     10  C          8.1190   -2.1690   -1.7570 C.2     1  UNL1        0.1660
     11  C          8.3870   -1.2360   -2.7340 C.2     1  UNL1        0.1650
     12  O          8.2630   -3.4200   -2.3200 O.2     1  UNL1       -0.4540
     13  O          8.6940   -1.9400   -3.8880 O.2     1  UNL1       -0.4540
     14  C          8.7160   -3.3270   -3.6460 C.3     1  UNL1        0.4680
@<TRIPOS>BOND
     1    13    14    1
     2    13    11    1
     3    14    12    1
     4    11     9    2
     5    11    10    1
     6     9     7    1
     7    12    10    1
     8    10     8    2
     9     7     6    2
    10     8     6    1
    11     6     5    1
    12     3     2    1
    13     5     1    1
    14     1     2    1
    15     2     4    2
