MODEL 1
REMARK VINA RESULT:      -8.1      0.000      0.000
REMARK SMILES CC(=O)CCc1ccc2c(c1)OCO2
REMARK SMILES IDX 4 1 2 2 1 3 3 4 5 5 6 6 7 7 11 8 8 9 10 10 9 11 12 12 14 13
REMARK SMILES IDX 13 14
REMARK H PARENT
REMARK Flexibility Score: inf
ROOT
ATOM      1  C   UNL     1       6.014   1.677   1.130  1.00  0.00     0.080 C 
ENDROOT
BRANCH   1   2
ATOM      2  C   UNL     1       5.485   0.568   1.973  1.00  0.00     0.130 C 
ATOM      3  C   UNL     1       6.316  -0.617   2.316  1.00  0.00     0.087 C 
ATOM      4  O   UNL     1       4.345   0.601   2.408  1.00  0.00    -0.300 OA
ENDBRANCH   1   2
BRANCH   1   5
ATOM      5  C   UNL     1       5.732   1.434  -0.339  1.00  0.00     0.043 C 
BRANCH   5   6
ATOM      6  C   UNL     1       6.803   0.650  -0.979  1.00  0.00    -0.044 A 
ATOM      7  C   UNL     1       8.149   1.016  -0.862  1.00  0.00     0.008 A 
ATOM      8  C   UNL     1       6.484  -0.472  -1.710  1.00  0.00     0.054 A 
ATOM      9  C   UNL     1       9.112   0.242  -1.484  1.00  0.00     0.051 A 
ATOM     10  C   UNL     1       7.461  -1.252  -2.336  1.00  0.00     0.166 A 
ATOM     11  C   UNL     1       8.786  -0.892  -2.222  1.00  0.00     0.165 A 
ATOM     12  O   UNL     1       7.401  -2.394  -3.106  1.00  0.00    -0.454 OA
ATOM     13  O   UNL     1       9.518  -1.831  -2.931  1.00  0.00    -0.454 OA
ATOM     14  C   UNL     1       8.688  -2.851  -3.432  1.00  0.00     0.468 C 
ENDBRANCH   5   6
ENDBRANCH   1   5
TORSDOF 3
ENDMDL
MODEL 2
REMARK VINA RESULT:      -7.3      1.170      1.646
REMARK SMILES CC(=O)CCc1ccc2c(c1)OCO2
REMARK SMILES IDX 4 1 2 2 1 3 3 4 5 5 6 6 7 7 11 8 8 9 10 10 9 11 12 12 14 13
REMARK SMILES IDX 13 14
REMARK H PARENT
REMARK Flexibility Score: inf
ROOT
ATOM      1  C   UNL     1       5.931  -0.456   1.585  1.00  0.00     0.080 C 
ENDROOT
BRANCH   1   2
ATOM      2  C   UNL     1       4.999   0.700   1.698  1.00  0.00     0.130 C 
ATOM      3  C   UNL     1       5.093   1.872   0.787  1.00  0.00     0.087 C 
ATOM      4  O   UNL     1       4.124   0.718   2.550  1.00  0.00    -0.300 OA
ENDBRANCH   1   2
BRANCH   1   5
ATOM      5  C   UNL     1       7.331  -0.001   1.221  1.00  0.00     0.043 C 
BRANCH   5   6
ATOM      6  C   UNL     1       7.696  -0.400  -0.150  1.00  0.00    -0.044 A 
ATOM      7  C   UNL     1       7.970   0.549  -1.142  1.00  0.00     0.008 A 
ATOM      8  C   UNL     1       7.776  -1.736  -0.473  1.00  0.00     0.054 A 
ATOM      9  C   UNL     1       8.309   0.115  -2.410  1.00  0.00     0.051 A 
ATOM     10  C   UNL     1       8.119  -2.169  -1.757  1.00  0.00     0.166 A 
ATOM     11  C   UNL     1       8.387  -1.236  -2.734  1.00  0.00     0.165 A 
ATOM     12  O   UNL     1       8.263  -3.420  -2.320  1.00  0.00    -0.454 OA
ATOM     13  O   UNL     1       8.694  -1.940  -3.888  1.00  0.00    -0.454 OA
ATOM     14  C   UNL     1       8.716  -3.327  -3.646  1.00  0.00     0.468 C 
ENDBRANCH   5   6
ENDBRANCH   1   5
TORSDOF 3
ENDMDL
MODEL 3
REMARK VINA RESULT:      -7.2      1.588      5.572
REMARK SMILES CC(=O)CCc1ccc2c(c1)OCO2
REMARK SMILES IDX 4 1 2 2 1 3 3 4 5 5 6 6 7 7 11 8 8 9 10 10 9 11 12 12 14 13
REMARK SMILES IDX 13 14
REMARK H PARENT
REMARK Flexibility Score: inf
ROOT
ATOM      1  C   UNL     1       8.133  -2.560  -3.583  1.00  0.00     0.080 C 
ENDROOT
BRANCH   1   2
ATOM      2  C   UNL     1       9.255  -3.525  -3.410  1.00  0.00     0.130 C 
ATOM      3  C   UNL     1       9.019  -4.992  -3.340  1.00  0.00     0.087 C 
ATOM      4  O   UNL     1      10.408  -3.135  -3.320  1.00  0.00    -0.300 OA
ENDBRANCH   1   2
BRANCH   1   5
ATOM      5  C   UNL     1       8.499  -1.189  -3.052  1.00  0.00     0.043 C 
BRANCH   5   6
ATOM      6  C   UNL     1       7.742  -0.855  -1.832  1.00  0.00    -0.044 A 
ATOM      7  C   UNL     1       7.795  -1.665  -0.692  1.00  0.00     0.008 A 
ATOM      8  C   UNL     1       6.964   0.280  -1.801  1.00  0.00     0.054 A 
ATOM      9  C   UNL     1       7.064  -1.300   0.424  1.00  0.00     0.051 A 
ATOM     10  C   UNL     1       6.227   0.644  -0.670  1.00  0.00     0.166 A 
ATOM     11  C   UNL     1       6.277  -0.153   0.452  1.00  0.00     0.165 A 
ATOM     12  O   UNL     1       5.391   1.705  -0.395  1.00  0.00    -0.454 OA
ATOM     13  O   UNL     1       5.464   0.442   1.403  1.00  0.00    -0.454 OA
ATOM     14  C   UNL     1       4.954   1.670   0.939  1.00  0.00     0.468 C 
ENDBRANCH   5   6
ENDBRANCH   1   5
TORSDOF 3
ENDMDL
MODEL 4
REMARK VINA RESULT:      -7.2      1.249      1.389
REMARK SMILES CC(=O)CCc1ccc2c(c1)OCO2
REMARK SMILES IDX 4 1 2 2 1 3 3 4 5 5 6 6 7 7 11 8 8 9 10 10 9 11 12 12 14 13
REMARK SMILES IDX 13 14
REMARK H PARENT
REMARK Flexibility Score: inf
ROOT
ATOM      1  C   UNL     1       5.761   0.823   0.423  1.00  0.00     0.080 C 
ENDROOT
BRANCH   1   2
ATOM      2  C   UNL     1       5.426   0.311   1.781  1.00  0.00     0.130 C 
ATOM      3  C   UNL     1       6.258  -0.723   2.452  1.00  0.00     0.087 C 
ATOM      4  O   UNL     1       4.453   0.730   2.387  1.00  0.00    -0.300 OA
ENDBRANCH   1   2
BRANCH   1   5
ATOM      5  C   UNL     1       7.259   0.842   0.195  1.00  0.00     0.043 C 
BRANCH   5   6
ATOM      6  C   UNL     1       7.652  -0.021  -0.933  1.00  0.00    -0.044 A 
ATOM      7  C   UNL     1       7.839   0.496  -2.221  1.00  0.00     0.008 A 
ATOM      8  C   UNL     1       7.843  -1.368  -0.727  1.00  0.00     0.054 A 
ATOM      9  C   UNL     1       8.209  -0.362  -3.241  1.00  0.00     0.051 A 
ATOM     10  C   UNL     1       8.217  -2.231  -1.762  1.00  0.00     0.166 A 
ATOM     11  C   UNL     1       8.401  -1.724  -3.029  1.00  0.00     0.165 A 
ATOM     12  O   UNL     1       8.464  -3.587  -1.812  1.00  0.00    -0.454 OA
ATOM     13  O   UNL     1       8.762  -2.789  -3.839  1.00  0.00    -0.454 OA
ATOM     14  C   UNL     1       8.902  -3.973  -3.089  1.00  0.00     0.468 C 
ENDBRANCH   5   6
ENDBRANCH   1   5
TORSDOF 3
ENDMDL
MODEL 5
REMARK VINA RESULT:      -7.1      1.590      5.431
REMARK SMILES CC(=O)CCc1ccc2c(c1)OCO2
REMARK SMILES IDX 4 1 2 2 1 3 3 4 5 5 6 6 7 7 11 8 8 9 10 10 9 11 12 12 14 13
REMARK SMILES IDX 13 14
REMARK H PARENT
REMARK Flexibility Score: inf
ROOT
ATOM      1  C   UNL     1       8.019  -2.451  -3.528  1.00  0.00     0.080 C 
ENDROOT
BRANCH   1   2
ATOM      2  C   UNL     1       9.134  -3.428  -3.375  1.00  0.00     0.130 C 
ATOM      3  C   UNL     1       8.883  -4.891  -3.287  1.00  0.00     0.087 C 
ATOM      4  O   UNL     1      10.293  -3.051  -3.317  1.00  0.00    -0.300 OA
ENDBRANCH   1   2
BRANCH   1   5
ATOM      5  C   UNL     1       8.428  -1.070  -3.056  1.00  0.00     0.043 C 
BRANCH   5   6
ATOM      6  C   UNL     1       7.668  -0.653  -1.864  1.00  0.00    -0.044 A 
ATOM      7  C   UNL     1       6.781   0.429  -1.902  1.00  0.00     0.008 A 
ATOM      8  C   UNL     1       7.825  -1.338  -0.681  1.00  0.00     0.054 A 
ATOM      9  C   UNL     1       6.095   0.775  -0.753  1.00  0.00     0.051 A 
ATOM     10  C   UNL     1       7.128  -0.985   0.479  1.00  0.00     0.166 A 
ATOM     11  C   UNL     1       6.256   0.080   0.442  1.00  0.00     0.165 A 
ATOM     12  O   UNL     1       7.110  -1.499   1.758  1.00  0.00    -0.454 OA
ATOM     13  O   UNL     1       5.714   0.199   1.713  1.00  0.00    -0.454 OA
ATOM     14  C   UNL     1       6.160  -0.839   2.554  1.00  0.00     0.468 C 
ENDBRANCH   5   6
ENDBRANCH   1   5
TORSDOF 3
ENDMDL
