@<TRIPOS>MOLECULE
/home/cewinharhar/GITHUB/reincatalyze/data/processed/docking_pred/2023-May-24-1506_sub9_nm5_bs15_s42_ex16_mel10_mts10000_k50_ec02_g099_lra3e-4_lrc3e-3/1f3204452a604bf2b5a1468570937d609aafa137_ligand_9.pdbqt
 14 15 0 0 0
SMALL
GASTEIGER

@<TRIPOS>ATOM
      1  C          5.5300    1.9400    1.2570 C.3     1  UNL1        0.0800
      2  C          5.1130    0.7200    2.0020 C.2     1  UNL1        0.1300
      3  C          6.0320   -0.4350    2.1890 C.3     1  UNL1        0.0870
      4  O          3.9950    0.6320    2.4850 O.2     1  UNL1       -0.3000
      5  C          5.4030    1.7400   -0.2400 C.3     1  UNL1        0.0430
      6  C          6.5690    1.0320   -0.7980 C.2     1  UNL1       -0.0440
      7  C          7.8780    1.4540   -0.5370 C.2     1  UNL1        0.0080
      8  C          6.3780   -0.0750   -1.5940 C.2     1  UNL1        0.0540
      9  C          8.9330    0.7490   -1.0870 C.2     1  UNL1        0.0510
     10  C          7.4480   -0.7850   -2.1470 C.2     1  UNL1        0.1660
     11  C          8.7360   -0.3690   -1.8920 C.2     1  UNL1        0.1650
     12  O          7.5190   -1.8980   -2.9580 O.2     1  UNL1       -0.4540
     13  O          9.5800   -1.2450   -2.5570 O.2     1  UNL1       -0.4540
     14  C          8.8530   -2.2820   -3.1710 C.3     1  UNL1        0.4680
@<TRIPOS>BOND
     1    14    12    1
     2    14    13    1
     3    12    10    1
     4    13    11    1
     5    10    11    2
     6    10     8    1
     7    11     9    1
     8     8     6    2
     9     9     7    2
    10     6     7    1
    11     6     5    1
    12     5     1    1
    13     1     2    1
    14     2     3    1
    15     2     4    2
