@<TRIPOS>MOLECULE
/home/cewinharhar/GITHUB/reincatalyze/data/processed/docking_pred/2023-May-24-1506_sub9_nm5_bs15_s42_ex16_mel10_mts10000_k50_ec02_g099_lra3e-4_lrc3e-3/1f774135605f6656ff2aa9e322f53f2a679c664c_ligand_9.pdbqt
 14 15 0 0 0
SMALL
GASTEIGER

@<TRIPOS>ATOM
      1  C          6.5930    0.9290    1.1990 C.3     1  UNL1        0.0800
      2  C          5.2830    1.5690    0.8910 C.2     1  UNL1        0.1300
      3  C          4.9930    2.1500   -0.4470 C.3     1  UNL1        0.0870
      4  O          4.4050    1.6350    1.7360 O.2     1  UNL1       -0.3000
      5  C          7.5660    1.0870    0.0470 C.3     1  UNL1        0.0430
      6  C          7.8140   -0.1940   -0.6390 C.2     1  UNL1       -0.0440
      7  C          7.7790   -0.2970   -2.0340 C.2     1  UNL1        0.0080
      8  C          8.0890   -1.3220    0.1010 C.2     1  UNL1        0.0540
      9  C          8.0200   -1.5250   -2.6220 C.2     1  UNL1        0.0510
     10  C          8.3330   -2.5610   -0.4990 C.2     1  UNL1        0.1660
     11  C          8.2980   -2.6630   -1.8720 C.2     1  UNL1        0.1650
     12  O          8.6230   -3.8090    0.0080 O.2     1  UNL1       -0.4540
     13  O          8.5710   -3.9860   -2.1820 O.2     1  UNL1       -0.4540
     14  C          8.8740   -4.7280   -1.0250 C.3     1  UNL1        0.4680
@<TRIPOS>BOND
     1     9     7    1
     2     9    11    2
     3    13    11    1
     4    13    14    1
     5     7     6    2
     6    11    10    1
     7    14    12    1
     8     6     5    1
     9     6     8    1
    10    10    12    1
    11    10     8    2
    12     3     2    1
    13     5     1    1
    14     2     1    1
    15     2     4    2
