@<TRIPOS>MOLECULE
/home/cewinharhar/GITHUB/reincatalyze/data/processed/docking_pred/2023-May-24-1506_sub9_nm5_bs15_s42_ex16_mel10_mts10000_k50_ec02_g099_lra3e-4_lrc3e-3/1fd5ec6d4a6889d2560636754963a08404c0587d_ligand_9.pdbqt
 14 15 0 0 0
SMALL
GASTEIGER

@<TRIPOS>ATOM
      1  C          5.6830    1.3470   -0.3560 C.3     1  UNL1        0.0800
      2  C          5.0970    1.2810    1.0120 C.2     1  UNL1        0.1300
      3  C          5.4080    0.1630    1.9420 C.3     1  UNL1        0.0870
      4  O          4.3380    2.1500    1.4110 O.2     1  UNL1       -0.3000
      5  C          7.1830    1.1310   -0.3230 C.3     1  UNL1        0.0430
      6  C          7.5600   -0.1700   -0.9040 C.2     1  UNL1       -0.0440
      7  C          7.5950   -0.3730   -2.2880 C.2     1  UNL1        0.0080
      8  C          7.8890   -1.2180   -0.0740 C.2     1  UNL1        0.0540
      9  C          7.9580   -1.6150   -2.7760 C.2     1  UNL1        0.0510
     10  C          8.2550   -2.4720   -0.5720 C.2     1  UNL1        0.1660
     11  C          8.2900   -2.6720   -1.9340 C.2     1  UNL1        0.1650
     12  O          8.6200   -3.6540    0.0360 O.2     1  UNL1       -0.4540
     13  O          8.6800   -3.9870   -2.1360 O.2     1  UNL1       -0.4540
     14  C          8.9870   -4.6190   -0.9160 C.3     1  UNL1        0.4680
@<TRIPOS>BOND
     1     9     7    1
     2     9    11    2
     3     7     6    2
     4    13    11    1
     5    13    14    1
     6    11    10    1
     7    14    12    1
     8     6     5    1
     9     6     8    1
    10    10     8    2
    11    10    12    1
    12     1     5    1
    13     1     2    1
    14     2     4    2
    15     2     3    1
