MODEL 1
REMARK VINA RESULT:      -7.6      0.000      0.000
REMARK SMILES CC(=O)CCc1ccc2c(c1)OCO2
REMARK SMILES IDX 4 1 2 2 1 3 3 4 5 5 6 6 7 7 11 8 8 9 10 10 9 11 12 12 14 13
REMARK SMILES IDX 13 14
REMARK H PARENT
REMARK Flexibility Score: inf
ROOT
ATOM      1  C   UNL     1       5.512   1.934   1.253  1.00  0.00     0.080 C 
ENDROOT
BRANCH   1   2
ATOM      2  C   UNL     1       5.082   0.720   2.000  1.00  0.00     0.130 C 
ATOM      3  C   UNL     1       5.982  -0.451   2.173  1.00  0.00     0.087 C 
ATOM      4  O   UNL     1       3.968   0.651   2.495  1.00  0.00    -0.300 OA
ENDBRANCH   1   2
BRANCH   1   5
ATOM      5  C   UNL     1       5.388   1.732  -0.245  1.00  0.00     0.043 C 
BRANCH   5   6
ATOM      6  C   UNL     1       6.558   1.030  -0.800  1.00  0.00    -0.044 A 
ATOM      7  C   UNL     1       7.864   1.462  -0.539  1.00  0.00     0.008 A 
ATOM      8  C   UNL     1       6.375  -0.079  -1.594  1.00  0.00     0.054 A 
ATOM      9  C   UNL     1       8.924   0.762  -1.088  1.00  0.00     0.051 A 
ATOM     10  C   UNL     1       7.450  -0.783  -2.146  1.00  0.00     0.166 A 
ATOM     11  C   UNL     1       8.735  -0.358  -1.891  1.00  0.00     0.165 A 
ATOM     12  O   UNL     1       7.528  -1.896  -2.955  1.00  0.00    -0.454 OA
ATOM     13  O   UNL     1       9.584  -1.230  -2.554  1.00  0.00    -0.454 OA
ATOM     14  C   UNL     1       8.864  -2.273  -3.167  1.00  0.00     0.468 C 
ENDBRANCH   5   6
ENDBRANCH   1   5
TORSDOF 3
ENDMDL
MODEL 2
REMARK VINA RESULT:      -7.5      1.923      2.396
REMARK SMILES CC(=O)CCc1ccc2c(c1)OCO2
REMARK SMILES IDX 4 1 2 2 1 3 3 4 5 5 6 6 7 7 11 8 8 9 10 10 9 11 12 12 14 13
REMARK SMILES IDX 13 14
REMARK H PARENT
REMARK Flexibility Score: inf
ROOT
ATOM      1  C   UNL     1       5.683   1.347  -0.356  1.00  0.00     0.080 C 
ENDROOT
BRANCH   1   2
ATOM      2  C   UNL     1       5.097   1.281   1.012  1.00  0.00     0.130 C 
ATOM      3  C   UNL     1       5.408   0.163   1.942  1.00  0.00     0.087 C 
ATOM      4  O   UNL     1       4.338   2.150   1.411  1.00  0.00    -0.300 OA
ENDBRANCH   1   2
BRANCH   1   5
ATOM      5  C   UNL     1       7.183   1.131  -0.323  1.00  0.00     0.043 C 
BRANCH   5   6
ATOM      6  C   UNL     1       7.560  -0.170  -0.904  1.00  0.00    -0.044 A 
ATOM      7  C   UNL     1       7.595  -0.373  -2.288  1.00  0.00     0.008 A 
ATOM      8  C   UNL     1       7.889  -1.218  -0.074  1.00  0.00     0.054 A 
ATOM      9  C   UNL     1       7.958  -1.615  -2.776  1.00  0.00     0.051 A 
ATOM     10  C   UNL     1       8.255  -2.472  -0.572  1.00  0.00     0.166 A 
ATOM     11  C   UNL     1       8.290  -2.672  -1.934  1.00  0.00     0.165 A 
ATOM     12  O   UNL     1       8.620  -3.654   0.036  1.00  0.00    -0.454 OA
ATOM     13  O   UNL     1       8.680  -3.987  -2.136  1.00  0.00    -0.454 OA
ATOM     14  C   UNL     1       8.987  -4.619  -0.916  1.00  0.00     0.468 C 
ENDBRANCH   5   6
ENDBRANCH   1   5
TORSDOF 3
ENDMDL
MODEL 3
REMARK VINA RESULT:      -7.2      2.093      2.618
REMARK SMILES CC(=O)CCc1ccc2c(c1)OCO2
REMARK SMILES IDX 4 1 2 2 1 3 3 4 5 5 6 6 7 7 11 8 8 9 10 10 9 11 12 12 14 13
REMARK SMILES IDX 13 14
REMARK H PARENT
REMARK Flexibility Score: inf
ROOT
ATOM      1  C   UNL     1       5.640   0.088   1.944  1.00  0.00     0.080 C 
ENDROOT
BRANCH   1   2
ATOM      2  C   UNL     1       4.699   1.192   1.605  1.00  0.00     0.130 C 
ATOM      3  C   UNL     1       4.956   2.114   0.466  1.00  0.00     0.087 C 
ATOM      4  O   UNL     1       3.683   1.372   2.256  1.00  0.00    -0.300 OA
ENDBRANCH   1   2
BRANCH   1   5
ATOM      5  C   UNL     1       7.026   0.356   1.392  1.00  0.00     0.043 C 
BRANCH   5   6
ATOM      6  C   UNL     1       7.412  -0.641   0.378  1.00  0.00    -0.044 A 
ATOM      7  C   UNL     1       7.298  -0.375  -0.992  1.00  0.00     0.008 A 
ATOM      8  C   UNL     1       7.900  -1.865   0.775  1.00  0.00     0.054 A 
ATOM      9  C   UNL     1       7.677  -1.349  -1.898  1.00  0.00     0.051 A 
ATOM     10  C   UNL     1       8.282  -2.845  -0.145  1.00  0.00     0.166 A 
ATOM     11  C   UNL     1       8.169  -2.585  -1.492  1.00  0.00     0.165 A 
ATOM     12  O   UNL     1       8.787  -4.120  -0.004  1.00  0.00    -0.454 OA
ATOM     13  O   UNL     1       8.614  -3.717  -2.158  1.00  0.00    -0.454 OA
ATOM     14  C   UNL     1       9.100  -4.680  -1.253  1.00  0.00     0.468 C 
ENDBRANCH   5   6
ENDBRANCH   1   5
TORSDOF 3
ENDMDL
MODEL 4
REMARK VINA RESULT:      -7.0      1.257      1.468
REMARK SMILES CC(=O)CCc1ccc2c(c1)OCO2
REMARK SMILES IDX 4 1 2 2 1 3 3 4 5 5 6 6 7 7 11 8 8 9 10 10 9 11 12 12 14 13
REMARK SMILES IDX 13 14
REMARK H PARENT
REMARK Flexibility Score: inf
ROOT
ATOM      1  C   UNL     1       6.393   1.217   0.936  1.00  0.00     0.080 C 
ENDROOT
BRANCH   1   2
ATOM      2  C   UNL     1       5.667   0.374   1.926  1.00  0.00     0.130 C 
ATOM      3  C   UNL     1       6.267  -0.867   2.484  1.00  0.00     0.087 C 
ATOM      4  O   UNL     1       4.549   0.680   2.309  1.00  0.00    -0.300 OA
ENDBRANCH   1   2
BRANCH   1   5
ATOM      5  C   UNL     1       5.888   0.972  -0.472  1.00  0.00     0.043 C 
BRANCH   5   6
ATOM      6  C   UNL     1       6.819   0.133  -1.248  1.00  0.00    -0.044 A 
ATOM      7  C   UNL     1       7.493   0.630  -2.369  1.00  0.00     0.008 A 
ATOM      8  C   UNL     1       7.041  -1.171  -0.868  1.00  0.00     0.054 A 
ATOM      9  C   UNL     1       8.356  -0.203  -3.058  1.00  0.00     0.051 A 
ATOM     10  C   UNL     1       7.915  -2.010  -1.567  1.00  0.00     0.166 A 
ATOM     11  C   UNL     1       8.577  -1.522  -2.671  1.00  0.00     0.165 A 
ATOM     12  O   UNL     1       8.298  -3.322  -1.392  1.00  0.00    -0.454 OA
ATOM     13  O   UNL     1       9.363  -2.555  -3.156  1.00  0.00    -0.454 OA
ATOM     14  C   UNL     1       9.286  -3.687  -2.322  1.00  0.00     0.468 C 
ENDBRANCH   5   6
ENDBRANCH   1   5
TORSDOF 3
ENDMDL
MODEL 5
REMARK VINA RESULT:      -6.8      1.902      2.562
REMARK SMILES CC(=O)CCc1ccc2c(c1)OCO2
REMARK SMILES IDX 4 1 2 2 1 3 3 4 5 5 6 6 7 7 11 8 8 9 10 10 9 11 12 12 14 13
REMARK SMILES IDX 13 14
REMARK H PARENT
REMARK Flexibility Score: inf
ROOT
ATOM      1  C   UNL     1       6.809   0.557   0.940  1.00  0.00     0.080 C 
ENDROOT
BRANCH   1   2
ATOM      2  C   UNL     1       5.471   1.052   1.366  1.00  0.00     0.130 C 
ATOM      3  C   UNL     1       4.775   2.148   0.639  1.00  0.00     0.087 C 
ATOM      4  O   UNL     1       4.903   0.570   2.332  1.00  0.00    -0.300 OA
ENDBRANCH   1   2
BRANCH   1   5
ATOM      5  C   UNL     1       6.995   0.695  -0.559  1.00  0.00     0.043 C 
BRANCH   5   6
ATOM      6  C   UNL     1       7.580  -0.522  -1.151  1.00  0.00    -0.044 A 
ATOM      7  C   UNL     1       7.974  -0.567  -2.493  1.00  0.00     0.008 A 
ATOM      8  C   UNL     1       7.749  -1.645  -0.374  1.00  0.00     0.054 A 
ATOM      9  C   UNL     1       8.518  -1.736  -2.993  1.00  0.00     0.051 A 
ATOM     10  C   UNL     1       8.299  -2.824  -0.884  1.00  0.00     0.166 A 
ATOM     11  C   UNL     1       8.687  -2.870  -2.205  1.00  0.00     0.165 A 
ATOM     12  O   UNL     1       8.566  -4.056  -0.325  1.00  0.00    -0.454 OA
ATOM     13  O   UNL     1       9.189  -4.142  -2.431  1.00  0.00    -0.454 OA
ATOM     14  C   UNL     1       9.215  -4.897  -1.244  1.00  0.00     0.468 C 
ENDBRANCH   5   6
ENDBRANCH   1   5
TORSDOF 3
ENDMDL
