@<TRIPOS>MOLECULE
/home/cewinharhar/GITHUB/reincatalyze/data/processed/docking_pred/2023-May-24-1506_sub9_nm5_bs15_s42_ex16_mel10_mts10000_k50_ec02_g099_lra3e-4_lrc3e-3/1fd5ec6d4a6889d2560636754963a08404c0587d_ligand_9.pdbqt
 14 15 0 0 0
SMALL
GASTEIGER

@<TRIPOS>ATOM
      1  C          6.8090    0.5570    0.9400 C.3     1  UNL1        0.0800
      2  C          5.4710    1.0520    1.3660 C.2     1  UNL1        0.1300
      3  C          4.7750    2.1480    0.6390 C.3     1  UNL1        0.0870
      4  O          4.9030    0.5700    2.3320 O.2     1  UNL1       -0.3000
      5  C          6.9950    0.6950   -0.5590 C.3     1  UNL1        0.0430
      6  C          7.5800   -0.5220   -1.1510 C.2     1  UNL1       -0.0440
      7  C          7.9740   -0.5670   -2.4930 C.2     1  UNL1        0.0080
      8  C          7.7490   -1.6450   -0.3740 C.2     1  UNL1        0.0540
      9  C          8.5180   -1.7360   -2.9930 C.2     1  UNL1        0.0510
     10  C          8.2990   -2.8240   -0.8840 C.2     1  UNL1        0.1660
     11  C          8.6870   -2.8700   -2.2050 C.2     1  UNL1        0.1650
     12  O          8.5660   -4.0560   -0.3250 O.2     1  UNL1       -0.4540
     13  O          9.1890   -4.1420   -2.4310 O.2     1  UNL1       -0.4540
     14  C          9.2150   -4.8970   -1.2440 C.3     1  UNL1        0.4680
@<TRIPOS>BOND
     1     9     7    1
     2     9    11    2
     3     7     6    2
     4    13    11    1
     5    13    14    1
     6    11    10    1
     7    14    12    1
     8     6     5    1
     9     6     8    1
    10    10     8    2
    11    10    12    1
    12     5     1    1
    13     3     2    1
    14     1     2    1
    15     2     4    2
