@<TRIPOS>MOLECULE
/home/cewinharhar/GITHUB/reincatalyze/data/processed/docking_pred/2023-May-24-1506_sub9_nm5_bs15_s42_ex16_mel10_mts10000_k50_ec02_g099_lra3e-4_lrc3e-3/1fd5ec6d4a6889d2560636754963a08404c0587d_ligand_9.pdbqt
 14 15 0 0 0
SMALL
GASTEIGER

@<TRIPOS>ATOM
      1  C          5.6400    0.0880    1.9440 C.3     1  UNL1        0.0800
      2  C          4.6990    1.1920    1.6050 C.2     1  UNL1        0.1300
      3  C          4.9560    2.1140    0.4660 C.3     1  UNL1        0.0870
      4  O          3.6830    1.3720    2.2560 O.2     1  UNL1       -0.3000
      5  C          7.0260    0.3560    1.3920 C.3     1  UNL1        0.0430
      6  C          7.4120   -0.6410    0.3780 C.2     1  UNL1       -0.0440
      7  C          7.2980   -0.3750   -0.9920 C.2     1  UNL1        0.0080
      8  C          7.9000   -1.8650    0.7750 C.2     1  UNL1        0.0540
      9  C          7.6770   -1.3490   -1.8980 C.2     1  UNL1        0.0510
     10  C          8.2820   -2.8450   -0.1450 C.2     1  UNL1        0.1660
     11  C          8.1690   -2.5850   -1.4920 C.2     1  UNL1        0.1650
     12  O          8.7870   -4.1200   -0.0040 O.2     1  UNL1       -0.4540
     13  O          8.6140   -3.7170   -2.1580 O.2     1  UNL1       -0.4540
     14  C          9.1000   -4.6800   -1.2530 C.3     1  UNL1        0.4680
@<TRIPOS>BOND
     1    13    11    1
     2    13    14    1
     3     9    11    2
     4     9     7    1
     5    11    10    1
     6    14    12    1
     7     7     6    2
     8    10    12    1
     9    10     8    2
    10     6     8    1
    11     6     5    1
    12     3     2    1
    13     5     1    1
    14     2     1    1
    15     2     4    2
