@<TRIPOS>MOLECULE
/home/cewinharhar/GITHUB/reincatalyze/data/processed/docking_pred/2023-May-24-1506_sub9_nm5_bs15_s42_ex16_mel10_mts10000_k50_ec02_g099_lra3e-4_lrc3e-3/1fd5ec6d4a6889d2560636754963a08404c0587d_ligand_9.pdbqt
 14 15 0 0 0
SMALL
GASTEIGER

@<TRIPOS>ATOM
      1  C          5.5120    1.9340    1.2530 C.3     1  UNL1        0.0800
      2  C          5.0820    0.7200    2.0000 C.2     1  UNL1        0.1300
      3  C          5.9820   -0.4510    2.1730 C.3     1  UNL1        0.0870
      4  O          3.9680    0.6510    2.4950 O.2     1  UNL1       -0.3000
      5  C          5.3880    1.7320   -0.2450 C.3     1  UNL1        0.0430
      6  C          6.5580    1.0300   -0.8000 C.2     1  UNL1       -0.0440
      7  C          7.8640    1.4620   -0.5390 C.2     1  UNL1        0.0080
      8  C          6.3750   -0.0790   -1.5940 C.2     1  UNL1        0.0540
      9  C          8.9240    0.7620   -1.0880 C.2     1  UNL1        0.0510
     10  C          7.4500   -0.7830   -2.1460 C.2     1  UNL1        0.1660
     11  C          8.7350   -0.3580   -1.8910 C.2     1  UNL1        0.1650
     12  O          7.5280   -1.8960   -2.9550 O.2     1  UNL1       -0.4540
     13  O          9.5840   -1.2300   -2.5540 O.2     1  UNL1       -0.4540
     14  C          8.8640   -2.2730   -3.1670 C.3     1  UNL1        0.4680
@<TRIPOS>BOND
     1    14    12    1
     2    14    13    1
     3    12    10    1
     4    13    11    1
     5    10    11    2
     6    10     8    1
     7    11     9    1
     8     8     6    2
     9     9     7    2
    10     6     7    1
    11     6     5    1
    12     5     1    1
    13     1     2    1
    14     2     3    1
    15     2     4    2
