@<TRIPOS>MOLECULE
/home/cewinharhar/GITHUB/reincatalyze/data/processed/docking_pred/2023-May-24-1506_sub9_nm5_bs15_s42_ex16_mel10_mts10000_k50_ec02_g099_lra3e-4_lrc3e-3/22478e644e92021fed45641255b53d2cc77f0790_ligand_9.pdbqt
 14 15 0 0 0
SMALL
GASTEIGER

@<TRIPOS>ATOM
      1  C          8.2790    0.2260   -2.6430 C.3     1  UNL1        0.0800
      2  C          8.0070   -1.2360   -2.7430 C.2     1  UNL1        0.1300
      3  C          9.0920   -2.2140   -3.0260 C.3     1  UNL1        0.0870
      4  O          6.8780   -1.6750   -2.5960 O.2     1  UNL1       -0.3000
      5  C          8.8090    0.5940   -1.2720 C.3     1  UNL1        0.0430
      6  C          7.7770    0.4510   -0.2300 C.2     1  UNL1       -0.0440
      7  C          7.8520   -0.5520    0.7440 C.2     1  UNL1        0.0080
      8  C          6.7090    1.3190   -0.2030 C.2     1  UNL1        0.0540
      9  C          6.8550   -0.6370    1.6980 C.2     1  UNL1        0.0510
     10  C          5.7040    1.2290    0.7640 C.2     1  UNL1        0.1660
     11  C          5.7770    0.2420    1.7220 C.2     1  UNL1        0.1650
     12  O          4.5580    1.9600    1.0000 O.2     1  UNL1       -0.4540
     13  O          4.6640    0.3900    2.5350 O.2     1  UNL1       -0.4540
     14  C          3.9130    1.5220    2.1680 C.3     1  UNL1        0.4680
@<TRIPOS>BOND
     1     3     2    1
     2     2     1    1
     3     2     4    2
     4     1     5    1
     5     5     6    1
     6     6     8    2
     7     6     7    1
     8     8    10    1
     9     7     9    2
    10    10    12    1
    11    10    11    2
    12    12    14    1
    13     9    11    1
    14    11    13    1
    15    14    13    1
