@<TRIPOS>MOLECULE
/home/cewinharhar/GITHUB/reincatalyze/data/processed/docking_pred/2023-May-24-1506_sub9_nm5_bs15_s42_ex16_mel10_mts10000_k50_ec02_g099_lra3e-4_lrc3e-3/22478e644e92021fed45641255b53d2cc77f0790_ligand_9.pdbqt
 14 15 0 0 0
SMALL
GASTEIGER

@<TRIPOS>ATOM
      1  C          5.0070    0.7940    1.4950 C.3     1  UNL1        0.0800
      2  C          6.0680    0.2050    2.3590 C.2     1  UNL1        0.1300
      3  C          6.4220   -1.2380    2.2870 C.3     1  UNL1        0.0870
      4  O          6.6820    0.8960    3.1560 O.2     1  UNL1       -0.3000
      5  C          5.5990    1.7110    0.4430 C.3     1  UNL1        0.0430
      6  C          6.6670    1.0440   -0.3230 C.2     1  UNL1       -0.0440
      7  C          7.9830    1.5210   -0.3140 C.2     1  UNL1        0.0080
      8  C          6.3760   -0.0760   -1.0680 C.2     1  UNL1        0.0540
      9  C          8.9440    0.8540   -1.0520 C.2     1  UNL1        0.0510
     10  C          7.3510   -0.7480   -1.8110 C.2     1  UNL1        0.1660
     11  C          8.6450   -0.2780   -1.8040 C.2     1  UNL1        0.1650
     12  O          7.3130   -1.8640   -2.6200 O.2     1  UNL1       -0.4540
     13  O          9.3840   -1.1260   -2.6150 O.2     1  UNL1       -0.4540
     14  C          8.5980   -2.1970   -3.0800 C.3     1  UNL1        0.4680
@<TRIPOS>BOND
     1    14    12    1
     2    14    13    1
     3    12    10    1
     4    13    11    1
     5    10    11    2
     6    10     8    1
     7    11     9    1
     8     8     6    2
     9     9     7    2
    10     6     7    1
    11     6     5    1
    12     5     1    1
    13     1     2    1
    14     3     2    1
    15     2     4    2
