@<TRIPOS>MOLECULE
/home/cewinharhar/GITHUB/reincatalyze/data/processed/docking_pred/2023-May-24-1506_sub9_nm5_bs15_s42_ex16_mel10_mts10000_k50_ec02_g099_lra3e-4_lrc3e-3/2368d29bb7bbfa5e31d33bb3936e2ea89938fe66_ligand_9.pdbqt
 14 15 0 0 0
SMALL
GASTEIGER

@<TRIPOS>ATOM
      1  C          5.7070    0.2670    1.6780 C.3     1  UNL1        0.0800
      2  C          5.1000    1.3910    0.9120 C.2     1  UNL1        0.1300
      3  C          5.4390    1.6350   -0.5160 C.3     1  UNL1        0.0870
      4  O          4.3020    2.1500    1.4380 O.2     1  UNL1       -0.3000
      5  C          6.9470   -0.2650    0.9880 C.3     1  UNL1        0.0430
      6  C          8.1800    0.2690    1.5920 C.2     1  UNL1       -0.0440
      7  C          8.1590    1.3840    2.4380 C.2     1  UNL1        0.0080
      8  C          9.3870   -0.3370    1.3280 C.2     1  UNL1        0.0540
      9  C          9.3480    1.8400    2.9770 C.2     1  UNL1        0.0510
     10  C         10.5870    0.1270    1.8770 C.2     1  UNL1        0.1660
     11  C         10.5670    1.2250    2.7080 C.2     1  UNL1        0.1650
     12  O         11.8950   -0.2950    1.7680 O.2     1  UNL1       -0.4540
     13  O         11.8770    1.4560    3.0970 O.2     1  UNL1       -0.4540
     14  C         12.7390    0.4620    2.5980 C.3     1  UNL1        0.4680
@<TRIPOS>BOND
     1     3     2    1
     2     2     4    2
     3     2     1    1
     4     5     6    1
     5     5     1    1
     6     8     6    2
     7     8    10    1
     8     6     7    1
     9    12    10    1
    10    12    14    1
    11    10    11    2
    12     7     9    2
    13    14    13    1
    14    11     9    1
    15    11    13    1
