MODEL 1
REMARK VINA RESULT:      -7.2      0.000      0.000
REMARK SMILES CC(=O)CCc1ccc2c(c1)OCO2
REMARK SMILES IDX 4 1 2 2 1 3 3 4 5 5 6 6 7 7 11 8 8 9 10 10 9 11 12 12 14 13
REMARK SMILES IDX 13 14
REMARK H PARENT
REMARK Flexibility Score: inf
ROOT
ATOM      1  C   UNL     1       9.690   1.341   2.644  1.00  0.00     0.080 C 
ENDROOT
BRANCH   1   2
ATOM      2  C   UNL     1      11.137   0.989   2.686  1.00  0.00     0.130 C 
ATOM      3  C   UNL     1      12.096   1.728   3.549  1.00  0.00     0.087 C 
ATOM      4  O   UNL     1      11.580   0.076   2.007  1.00  0.00    -0.300 OA
ENDBRANCH   1   2
BRANCH   1   5
ATOM      5  C   UNL     1       9.328   2.025   1.341  1.00  0.00     0.043 C 
BRANCH   5   6
ATOM      6  C   UNL     1       8.570   1.132   0.446  1.00  0.00    -0.044 A 
ATOM      7  C   UNL     1       7.187   0.965   0.577  1.00  0.00     0.008 A 
ATOM      8  C   UNL     1       9.229   0.442  -0.546  1.00  0.00     0.054 A 
ATOM      9  C   UNL     1       6.529   0.113  -0.292  1.00  0.00     0.051 A 
ATOM     10  C   UNL     1       8.559  -0.418  -1.422  1.00  0.00     0.166 A 
ATOM     11  C   UNL     1       7.197  -0.583  -1.293  1.00  0.00     0.165 A 
ATOM     12  O   UNL     1       8.980  -1.204  -2.473  1.00  0.00    -0.454 OA
ATOM     13  O   UNL     1       6.808  -1.477  -2.279  1.00  0.00    -0.454 OA
ATOM     14  C   UNL     1       7.892  -1.825  -3.107  1.00  0.00     0.468 C 
ENDBRANCH   5   6
ENDBRANCH   1   5
TORSDOF 3
ENDMDL
MODEL 2
REMARK VINA RESULT:      -7.1      2.713      3.934
REMARK SMILES CC(=O)CCc1ccc2c(c1)OCO2
REMARK SMILES IDX 4 1 2 2 1 3 3 4 5 5 6 6 7 7 11 8 8 9 10 10 9 11 12 12 14 13
REMARK SMILES IDX 13 14
REMARK H PARENT
REMARK Flexibility Score: inf
ROOT
ATOM      1  C   UNL     1       5.647   1.847   1.431  1.00  0.00     0.080 C 
ENDROOT
BRANCH   1   2
ATOM      2  C   UNL     1       5.075   0.621   2.055  1.00  0.00     0.130 C 
ATOM      3  C   UNL     1       5.847  -0.649   2.130  1.00  0.00     0.087 C 
ATOM      4  O   UNL     1       3.949   0.623   2.525  1.00  0.00    -0.300 OA
ENDBRANCH   1   2
BRANCH   1   5
ATOM      5  C   UNL     1       5.535   1.800  -0.080  1.00  0.00     0.043 C 
BRANCH   5   6
ATOM      6  C   UNL     1       6.668   1.081  -0.689  1.00  0.00    -0.044 A 
ATOM      7  C   UNL     1       7.993   1.473  -0.462  1.00  0.00     0.008 A 
ATOM      8  C   UNL     1       6.430  -0.006  -1.500  1.00  0.00     0.054 A 
ATOM      9  C   UNL     1       9.016   0.759  -1.059  1.00  0.00     0.051 A 
ATOM     10  C   UNL     1       7.468  -0.724  -2.101  1.00  0.00     0.166 A 
ATOM     11  C   UNL     1       8.771  -0.338  -1.879  1.00  0.00     0.165 A 
ATOM     12  O   UNL     1       7.491  -1.821  -2.936  1.00  0.00    -0.454 OA
ATOM     13  O   UNL     1       9.576  -1.216  -2.589  1.00  0.00    -0.454 OA
ATOM     14  C   UNL     1       8.810  -2.227  -3.200  1.00  0.00     0.468 C 
ENDBRANCH   5   6
ENDBRANCH   1   5
TORSDOF 3
ENDMDL
MODEL 3
REMARK VINA RESULT:      -7.0      1.303      5.225
REMARK SMILES CC(=O)CCc1ccc2c(c1)OCO2
REMARK SMILES IDX 4 1 2 2 1 3 3 4 5 5 6 6 7 7 11 8 8 9 10 10 9 11 12 12 14 13
REMARK SMILES IDX 13 14
REMARK H PARENT
REMARK Flexibility Score: inf
ROOT
ATOM      1  C   UNL     1       6.424   0.182  -0.774  1.00  0.00     0.080 C 
ENDROOT
BRANCH   1   2
ATOM      2  C   UNL     1       7.105  -0.476  -1.924  1.00  0.00     0.130 C 
ATOM      3  C   UNL     1       8.254   0.162  -2.621  1.00  0.00     0.087 C 
ATOM      4  O   UNL     1       6.736  -1.566  -2.332  1.00  0.00    -0.300 OA
ENDBRANCH   1   2
BRANCH   1   5
ATOM      5  C   UNL     1       6.785  -0.490   0.536  1.00  0.00     0.043 C 
BRANCH   5   6
ATOM      6  C   UNL     1       7.941   0.158   1.182  1.00  0.00    -0.044 A 
ATOM      7  C   UNL     1       7.807   1.356   1.893  1.00  0.00     0.008 A 
ATOM      8  C   UNL     1       9.186  -0.422   1.092  1.00  0.00     0.054 A 
ATOM      9  C   UNL     1       8.927   1.917   2.479  1.00  0.00     0.051 A 
ATOM     10  C   UNL     1      10.315   0.149   1.687  1.00  0.00     0.166 A 
ATOM     11  C   UNL     1      10.184   1.329   2.386  1.00  0.00     0.165 A 
ATOM     12  O   UNL     1      11.641  -0.226   1.739  1.00  0.00    -0.454 OA
ATOM     13  O   UNL     1      11.445   1.656   2.859  1.00  0.00    -0.454 OA
ATOM     14  C   UNL     1      12.381   0.651   2.549  1.00  0.00     0.468 C 
ENDBRANCH   5   6
ENDBRANCH   1   5
TORSDOF 3
ENDMDL
MODEL 4
REMARK VINA RESULT:      -7.0      2.817      5.460
REMARK SMILES CC(=O)CCc1ccc2c(c1)OCO2
REMARK SMILES IDX 4 1 2 2 1 3 3 4 5 5 6 6 7 7 11 8 8 9 10 10 9 11 12 12 14 13
REMARK SMILES IDX 13 14
REMARK H PARENT
REMARK Flexibility Score: inf
ROOT
ATOM      1  C   UNL     1       5.707   0.267   1.678  1.00  0.00     0.080 C 
ENDROOT
BRANCH   1   2
ATOM      2  C   UNL     1       5.100   1.391   0.912  1.00  0.00     0.130 C 
ATOM      3  C   UNL     1       5.439   1.635  -0.516  1.00  0.00     0.087 C 
ATOM      4  O   UNL     1       4.302   2.150   1.438  1.00  0.00    -0.300 OA
ENDBRANCH   1   2
BRANCH   1   5
ATOM      5  C   UNL     1       6.947  -0.265   0.988  1.00  0.00     0.043 C 
BRANCH   5   6
ATOM      6  C   UNL     1       8.180   0.269   1.592  1.00  0.00    -0.044 A 
ATOM      7  C   UNL     1       8.159   1.384   2.438  1.00  0.00     0.008 A 
ATOM      8  C   UNL     1       9.387  -0.337   1.328  1.00  0.00     0.054 A 
ATOM      9  C   UNL     1       9.348   1.840   2.977  1.00  0.00     0.051 A 
ATOM     10  C   UNL     1      10.587   0.127   1.877  1.00  0.00     0.166 A 
ATOM     11  C   UNL     1      10.567   1.225   2.708  1.00  0.00     0.165 A 
ATOM     12  O   UNL     1      11.895  -0.295   1.768  1.00  0.00    -0.454 OA
ATOM     13  O   UNL     1      11.877   1.456   3.097  1.00  0.00    -0.454 OA
ATOM     14  C   UNL     1      12.739   0.462   2.598  1.00  0.00     0.468 C 
ENDBRANCH   5   6
ENDBRANCH   1   5
TORSDOF 3
ENDMDL
MODEL 5
REMARK VINA RESULT:      -6.9      2.688      5.315
REMARK SMILES CC(=O)CCc1ccc2c(c1)OCO2
REMARK SMILES IDX 4 1 2 2 1 3 3 4 5 5 6 6 7 7 11 8 8 9 10 10 9 11 12 12 14 13
REMARK SMILES IDX 13 14
REMARK H PARENT
REMARK Flexibility Score: inf
ROOT
ATOM      1  C   UNL     1       5.833   0.959   0.338  1.00  0.00     0.080 C 
ENDROOT
BRANCH   1   2
ATOM      2  C   UNL     1       5.463   0.206   1.568  1.00  0.00     0.130 C 
ATOM      3  C   UNL     1       6.113  -1.086   1.918  1.00  0.00     0.087 C 
ATOM      4  O   UNL     1       4.609   0.630   2.330  1.00  0.00    -0.300 OA
ENDBRANCH   1   2
BRANCH   1   5
ATOM      5  C   UNL     1       6.712   2.150   0.665  1.00  0.00     0.043 C 
BRANCH   5   6
ATOM      6  C   UNL     1       8.110   1.748   0.902  1.00  0.00    -0.044 A 
ATOM      7  C   UNL     1       8.865   1.104  -0.085  1.00  0.00     0.008 A 
ATOM      8  C   UNL     1       8.699   2.010   2.118  1.00  0.00     0.054 A 
ATOM      9  C   UNL     1      10.173   0.752   0.194  1.00  0.00     0.051 A 
ATOM     10  C   UNL     1      10.022   1.652   2.395  1.00  0.00     0.166 A 
ATOM     11  C   UNL     1      10.765   1.017   1.425  1.00  0.00     0.165 A 
ATOM     12  O   UNL     1      10.822   1.799   3.508  1.00  0.00    -0.454 OA
ATOM     13  O   UNL     1      12.019   0.786   1.967  1.00  0.00    -0.454 OA
ATOM     14  C   UNL     1      12.127   1.347   3.254  1.00  0.00     0.468 C 
ENDBRANCH   5   6
ENDBRANCH   1   5
TORSDOF 3
ENDMDL
