@<TRIPOS>MOLECULE
/home/cewinharhar/GITHUB/reincatalyze/data/processed/docking_pred/2023-May-24-1506_sub9_nm5_bs15_s42_ex16_mel10_mts10000_k50_ec02_g099_lra3e-4_lrc3e-3/2368d29bb7bbfa5e31d33bb3936e2ea89938fe66_ligand_9.pdbqt
 14 15 0 0 0
SMALL
GASTEIGER

@<TRIPOS>ATOM
      1  C          6.4240    0.1820   -0.7740 C.3     1  UNL1        0.0800
      2  C          7.1050   -0.4760   -1.9240 C.2     1  UNL1        0.1300
      3  C          8.2540    0.1620   -2.6210 C.3     1  UNL1        0.0870
      4  O          6.7360   -1.5660   -2.3320 O.2     1  UNL1       -0.3000
      5  C          6.7850   -0.4900    0.5360 C.3     1  UNL1        0.0430
      6  C          7.9410    0.1580    1.1820 C.2     1  UNL1       -0.0440
      7  C          7.8070    1.3560    1.8930 C.2     1  UNL1        0.0080
      8  C          9.1860   -0.4220    1.0920 C.2     1  UNL1        0.0540
      9  C          8.9270    1.9170    2.4790 C.2     1  UNL1        0.0510
     10  C         10.3150    0.1490    1.6870 C.2     1  UNL1        0.1660
     11  C         10.1840    1.3290    2.3860 C.2     1  UNL1        0.1650
     12  O         11.6410   -0.2260    1.7390 O.2     1  UNL1       -0.4540
     13  O         11.4450    1.6560    2.8590 O.2     1  UNL1       -0.4540
     14  C         12.3810    0.6510    2.5490 C.3     1  UNL1        0.4680
@<TRIPOS>BOND
     1     3     2    1
     2     4     2    2
     3     2     1    1
     4     1     5    1
     5     5     6    1
     6     8     6    2
     7     8    10    1
     8     6     7    1
     9    10    12    1
    10    10    11    2
    11    12    14    1
    12     7     9    2
    13    11     9    1
    14    11    13    1
    15    14    13    1
