@<TRIPOS>MOLECULE
/home/cewinharhar/GITHUB/reincatalyze/data/processed/docking_pred/2023-May-24-1506_sub9_nm5_bs15_s42_ex16_mel10_mts10000_k50_ec02_g099_lra3e-4_lrc3e-3/2368d29bb7bbfa5e31d33bb3936e2ea89938fe66_ligand_9.pdbqt
 14 15 0 0 0
SMALL
GASTEIGER

@<TRIPOS>ATOM
      1  C          5.8330    0.9590    0.3380 C.3     1  UNL1        0.0800
      2  C          5.4630    0.2060    1.5680 C.2     1  UNL1        0.1300
      3  C          6.1130   -1.0860    1.9180 C.3     1  UNL1        0.0870
      4  O          4.6090    0.6300    2.3300 O.2     1  UNL1       -0.3000
      5  C          6.7120    2.1500    0.6650 C.3     1  UNL1        0.0430
      6  C          8.1100    1.7480    0.9020 C.2     1  UNL1       -0.0440
      7  C          8.8650    1.1040   -0.0850 C.2     1  UNL1        0.0080
      8  C          8.6990    2.0100    2.1180 C.2     1  UNL1        0.0540
      9  C         10.1730    0.7520    0.1940 C.2     1  UNL1        0.0510
     10  C         10.0220    1.6520    2.3950 C.2     1  UNL1        0.1660
     11  C         10.7650    1.0170    1.4250 C.2     1  UNL1        0.1650
     12  O         10.8220    1.7990    3.5080 O.2     1  UNL1       -0.4540
     13  O         12.0190    0.7860    1.9670 O.2     1  UNL1       -0.4540
     14  C         12.1270    1.3470    3.2540 C.3     1  UNL1        0.4680
@<TRIPOS>BOND
     1     7     9    1
     2     7     6    2
     3     9    11    2
     4     1     5    1
     5     1     2    1
     6     5     6    1
     7     6     8    1
     8    11    13    1
     9    11    10    1
    10     2     3    1
    11     2     4    2
    12    13    14    1
    13     8    10    2
    14    10    12    1
    15    14    12    1
