@<TRIPOS>MOLECULE
/home/cewinharhar/GITHUB/reincatalyze/data/processed/docking_pred/2023-May-24-1506_sub9_nm5_bs15_s42_ex16_mel10_mts10000_k50_ec02_g099_lra3e-4_lrc3e-3/25ea22f039de2039e6eb222be1b9c38742a73e8b_ligand_9.pdbqt
 14 15 0 0 0
SMALL
GASTEIGER

@<TRIPOS>ATOM
      1  C          6.3590    1.2400    0.9260 C.3     1  UNL1        0.0800
      2  C          5.6530    0.4010    1.9350 C.2     1  UNL1        0.1300
      3  C          6.2860   -0.8100    2.5230 C.3     1  UNL1        0.0870
      4  O          4.5280    0.6870    2.3100 O.2     1  UNL1       -0.3000
      5  C          5.8560    0.9540   -0.4750 C.3     1  UNL1        0.0430
      6  C          6.8060    0.1270   -1.2390 C.2     1  UNL1       -0.0440
      7  C          7.4990    0.6360   -2.3440 C.2     1  UNL1        0.0080
      8  C          7.0280   -1.1790   -0.8650 C.2     1  UNL1        0.0540
      9  C          8.3790   -0.1870   -3.0220 C.2     1  UNL1        0.0510
     10  C          7.9200   -2.0070   -1.5530 C.2     1  UNL1        0.1660
     11  C          8.6000   -1.5070   -2.6410 C.2     1  UNL1        0.1650
     12  O          8.3070   -3.3190   -1.3810 O.2     1  UNL1       -0.4540
     13  O          9.4010   -2.5330   -3.1190 O.2     1  UNL1       -0.4540
     14  C          9.3140   -3.6710   -2.2950 C.3     1  UNL1        0.4680
@<TRIPOS>BOND
     1    13    11    1
     2    13    14    1
     3     9    11    2
     4     9     7    1
     5    11    10    1
     6     7     6    2
     7    14    12    1
     8    10    12    1
     9    10     8    2
    10     6     8    1
    11     6     5    1
    12     5     1    1
    13     1     2    1
    14     2     4    2
    15     2     3    1
