@<TRIPOS>MOLECULE
/home/cewinharhar/GITHUB/reincatalyze/data/processed/docking_pred/2023-May-24-1506_sub9_nm5_bs15_s42_ex16_mel10_mts10000_k50_ec02_g099_lra3e-4_lrc3e-3/2734134eb9e7fe1a9a1e6734a306fe03ba38cdbb_ligand_9.pdbqt
 14 15 0 0 0
SMALL
GASTEIGER

@<TRIPOS>ATOM
      1  C          5.5030    1.9330    1.2500 C.3     1  UNL1        0.0800
      2  C          5.0730    0.7200    1.9990 C.2     1  UNL1        0.1300
      3  C          5.9720   -0.4520    2.1700 C.3     1  UNL1        0.0870
      4  O          3.9610    0.6540    2.4980 O.2     1  UNL1       -0.3000
      5  C          5.3800    1.7280   -0.2470 C.3     1  UNL1        0.0430
      6  C          6.5520    1.0260   -0.8010 C.2     1  UNL1       -0.0440
      7  C          7.8570    1.4570   -0.5370 C.2     1  UNL1        0.0080
      8  C          6.3700   -0.0820   -1.5960 C.2     1  UNL1        0.0540
      9  C          8.9180    0.7580   -1.0830 C.2     1  UNL1        0.0510
     10  C          7.4460   -0.7860   -2.1450 C.2     1  UNL1        0.1660
     11  C          8.7300   -0.3620   -1.8870 C.2     1  UNL1        0.1650
     12  O          7.5260   -1.8990   -2.9550 O.2     1  UNL1       -0.4540
     13  O          9.5810   -1.2330   -2.5490 O.2     1  UNL1       -0.4540
     14  C          8.8630   -2.2760   -3.1640 C.3     1  UNL1        0.4680
@<TRIPOS>BOND
     1    14    12    1
     2    14    13    1
     3    12    10    1
     4    13    11    1
     5    10    11    2
     6    10     8    1
     7    11     9    1
     8     8     6    2
     9     9     7    2
    10     6     7    1
    11     6     5    1
    12     5     1    1
    13     1     2    1
    14     2     3    1
    15     2     4    2
