MODEL 1
REMARK VINA RESULT:      -7.7      0.000      0.000
REMARK SMILES CC(=O)CCc1ccc2c(c1)OCO2
REMARK SMILES IDX 4 1 2 2 1 3 3 4 5 5 6 6 7 7 11 8 8 9 10 10 9 11 12 12 14 13
REMARK SMILES IDX 13 14
REMARK H PARENT
REMARK Flexibility Score: inf
ROOT
ATOM      1  C   UNL     1       5.503   1.933   1.250  1.00  0.00     0.080 C 
ENDROOT
BRANCH   1   2
ATOM      2  C   UNL     1       5.073   0.720   1.999  1.00  0.00     0.130 C 
ATOM      3  C   UNL     1       5.972  -0.452   2.170  1.00  0.00     0.087 C 
ATOM      4  O   UNL     1       3.961   0.654   2.498  1.00  0.00    -0.300 OA
ENDBRANCH   1   2
BRANCH   1   5
ATOM      5  C   UNL     1       5.380   1.728  -0.247  1.00  0.00     0.043 C 
BRANCH   5   6
ATOM      6  C   UNL     1       6.552   1.026  -0.801  1.00  0.00    -0.044 A 
ATOM      7  C   UNL     1       7.857   1.457  -0.537  1.00  0.00     0.008 A 
ATOM      8  C   UNL     1       6.370  -0.082  -1.596  1.00  0.00     0.054 A 
ATOM      9  C   UNL     1       8.918   0.758  -1.083  1.00  0.00     0.051 A 
ATOM     10  C   UNL     1       7.446  -0.786  -2.145  1.00  0.00     0.166 A 
ATOM     11  C   UNL     1       8.730  -0.362  -1.887  1.00  0.00     0.165 A 
ATOM     12  O   UNL     1       7.526  -1.899  -2.955  1.00  0.00    -0.454 OA
ATOM     13  O   UNL     1       9.581  -1.233  -2.549  1.00  0.00    -0.454 OA
ATOM     14  C   UNL     1       8.863  -2.276  -3.164  1.00  0.00     0.468 C 
ENDBRANCH   5   6
ENDBRANCH   1   5
TORSDOF 3
ENDMDL
MODEL 2
REMARK VINA RESULT:      -7.5      1.921      2.378
REMARK SMILES CC(=O)CCc1ccc2c(c1)OCO2
REMARK SMILES IDX 4 1 2 2 1 3 3 4 5 5 6 6 7 7 11 8 8 9 10 10 9 11 12 12 14 13
REMARK SMILES IDX 13 14
REMARK H PARENT
REMARK Flexibility Score: inf
ROOT
ATOM      1  C   UNL     1       5.736   1.360  -0.307  1.00  0.00     0.080 C 
ENDROOT
BRANCH   1   2
ATOM      2  C   UNL     1       5.120   1.295   1.048  1.00  0.00     0.130 C 
ATOM      3  C   UNL     1       5.436   0.194   1.997  1.00  0.00     0.087 C 
ATOM      4  O   UNL     1       4.333   2.150   1.421  1.00  0.00    -0.300 OA
ENDBRANCH   1   2
BRANCH   1   5
ATOM      5  C   UNL     1       7.231   1.121  -0.244  1.00  0.00     0.043 C 
BRANCH   5   6
ATOM      6  C   UNL     1       7.606  -0.167  -0.853  1.00  0.00    -0.044 A 
ATOM      7  C   UNL     1       7.683  -0.327  -2.241  1.00  0.00     0.008 A 
ATOM      8  C   UNL     1       7.890  -1.246  -0.046  1.00  0.00     0.054 A 
ATOM      9  C   UNL     1       8.041  -1.560  -2.756  1.00  0.00     0.051 A 
ATOM     10  C   UNL     1       8.251  -2.490  -0.572  1.00  0.00     0.166 A 
ATOM     11  C   UNL     1       8.327  -2.649  -1.938  1.00  0.00     0.165 A 
ATOM     12  O   UNL     1       8.576  -3.697   0.010  1.00  0.00    -0.454 OA
ATOM     13  O   UNL     1       8.701  -3.963  -2.169  1.00  0.00    -0.454 OA
ATOM     14  C   UNL     1       8.958  -4.638  -0.960  1.00  0.00     0.468 C 
ENDBRANCH   5   6
ENDBRANCH   1   5
TORSDOF 3
ENDMDL
MODEL 3
REMARK VINA RESULT:      -7.2      2.071      2.660
REMARK SMILES CC(=O)CCc1ccc2c(c1)OCO2
REMARK SMILES IDX 4 1 2 2 1 3 3 4 5 5 6 6 7 7 11 8 8 9 10 10 9 11 12 12 14 13
REMARK SMILES IDX 13 14
REMARK H PARENT
REMARK Flexibility Score: inf
ROOT
ATOM      1  C   UNL     1       5.379  -0.091   1.996  1.00  0.00     0.080 C 
ENDROOT
BRANCH   1   2
ATOM      2  C   UNL     1       4.584   1.146   1.758  1.00  0.00     0.130 C 
ATOM      3  C   UNL     1       4.954   2.119   0.695  1.00  0.00     0.087 C 
ATOM      4  O   UNL     1       3.599   1.399   2.433  1.00  0.00    -0.300 OA
ENDBRANCH   1   2
BRANCH   1   5
ATOM      5  C   UNL     1       6.838   0.115   1.642  1.00  0.00     0.043 C 
BRANCH   5   6
ATOM      6  C   UNL     1       7.274  -0.796   0.569  1.00  0.00    -0.044 A 
ATOM      7  C   UNL     1       7.137  -0.457  -0.782  1.00  0.00     0.008 A 
ATOM      8  C   UNL     1       7.832  -2.012   0.892  1.00  0.00     0.054 A 
ATOM      9  C   UNL     1       7.565  -1.352  -1.745  1.00  0.00     0.051 A 
ATOM     10  C   UNL     1       8.264  -2.913  -0.086  1.00  0.00     0.166 A 
ATOM     11  C   UNL     1       8.128  -2.581  -1.415  1.00  0.00     0.165 A 
ATOM     12  O   UNL     1       8.841  -4.164  -0.022  1.00  0.00    -0.454 OA
ATOM     13  O   UNL     1       8.632  -3.644  -2.148  1.00  0.00    -0.454 OA
ATOM     14  C   UNL     1       9.177  -4.630  -1.304  1.00  0.00     0.468 C 
ENDBRANCH   5   6
ENDBRANCH   1   5
TORSDOF 3
ENDMDL
MODEL 4
REMARK VINA RESULT:      -7.1      1.962      2.495
REMARK SMILES CC(=O)CCc1ccc2c(c1)OCO2
REMARK SMILES IDX 4 1 2 2 1 3 3 4 5 5 6 6 7 7 11 8 8 9 10 10 9 11 12 12 14 13
REMARK SMILES IDX 13 14
REMARK H PARENT
REMARK Flexibility Score: inf
ROOT
ATOM      1  C   UNL     1       6.774   0.859   1.383  1.00  0.00     0.080 C 
ENDROOT
BRANCH   1   2
ATOM      2  C   UNL     1       5.320   1.173   1.449  1.00  0.00     0.130 C 
ATOM      3  C   UNL     1       4.690   2.150   0.521  1.00  0.00     0.087 C 
ATOM      4  O   UNL     1       4.599   0.635   2.273  1.00  0.00    -0.300 OA
ENDBRANCH   1   2
BRANCH   1   5
ATOM      5  C   UNL     1       7.323   1.080  -0.012  1.00  0.00     0.043 C 
BRANCH   5   6
ATOM      6  C   UNL     1       7.657  -0.193  -0.676  1.00  0.00    -0.044 A 
ATOM      7  C   UNL     1       7.681  -0.309  -2.070  1.00  0.00     0.008 A 
ATOM      8  C   UNL     1       7.957  -1.301   0.084  1.00  0.00     0.054 A 
ATOM      9  C   UNL     1       8.003  -1.528  -2.637  1.00  0.00     0.051 A 
ATOM     10  C   UNL     1       8.282  -2.532  -0.494  1.00  0.00     0.166 A 
ATOM     11  C   UNL     1       8.305  -2.646  -1.866  1.00  0.00     0.165 A 
ATOM     12  O   UNL     1       8.612  -3.761   0.037  1.00  0.00    -0.454 OA
ATOM     13  O   UNL     1       8.653  -3.957  -2.153  1.00  0.00    -0.454 OA
ATOM     14  C   UNL     1       8.946  -4.674  -0.977  1.00  0.00     0.468 C 
ENDBRANCH   5   6
ENDBRANCH   1   5
TORSDOF 3
ENDMDL
MODEL 5
REMARK VINA RESULT:      -7.1      1.236      1.421
REMARK SMILES CC(=O)CCc1ccc2c(c1)OCO2
REMARK SMILES IDX 4 1 2 2 1 3 3 4 5 5 6 6 7 7 11 8 8 9 10 10 9 11 12 12 14 13
REMARK SMILES IDX 13 14
REMARK H PARENT
REMARK Flexibility Score: inf
ROOT
ATOM      1  C   UNL     1       6.339   1.303   0.901  1.00  0.00     0.080 C 
ENDROOT
BRANCH   1   2
ATOM      2  C   UNL     1       5.675   0.429   1.907  1.00  0.00     0.130 C 
ATOM      3  C   UNL     1       6.361  -0.756   2.487  1.00  0.00     0.087 C 
ATOM      4  O   UNL     1       4.539   0.662   2.287  1.00  0.00    -0.300 OA
ENDBRANCH   1   2
BRANCH   1   5
ATOM      5  C   UNL     1       5.836   1.011  -0.499  1.00  0.00     0.043 C 
BRANCH   5   6
ATOM      6  C   UNL     1       6.786   0.179  -1.259  1.00  0.00    -0.044 A 
ATOM      7  C   UNL     1       7.498   0.689  -2.351  1.00  0.00     0.008 A 
ATOM      8  C   UNL     1       6.988  -1.133  -0.892  1.00  0.00     0.054 A 
ATOM      9  C   UNL     1       8.377  -0.139  -3.025  1.00  0.00     0.051 A 
ATOM     10  C   UNL     1       7.879  -1.965  -1.577  1.00  0.00     0.166 A 
ATOM     11  C   UNL     1       8.578  -1.465  -2.652  1.00  0.00     0.165 A 
ATOM     12  O   UNL     1       8.249  -3.283  -1.411  1.00  0.00    -0.454 OA
ATOM     13  O   UNL     1       9.373  -2.495  -3.129  1.00  0.00    -0.454 OA
ATOM     14  C   UNL     1       9.263  -3.639  -2.316  1.00  0.00     0.468 C 
ENDBRANCH   5   6
ENDBRANCH   1   5
TORSDOF 3
ENDMDL
