@<TRIPOS>MOLECULE
/home/cewinharhar/GITHUB/reincatalyze/data/processed/docking_pred/2023-May-24-1506_sub9_nm5_bs15_s42_ex16_mel10_mts10000_k50_ec02_g099_lra3e-4_lrc3e-3/2b611616233e02901686b2fc0a6dd8ec9c570ff2_ligand_9.pdbqt
 14 15 0 0 0
SMALL
GASTEIGER

@<TRIPOS>ATOM
      1  C          6.6620    1.1430    1.1650 C.3     1  UNL1        0.0800
      2  C          5.2940    1.6650    0.8880 C.2     1  UNL1        0.1300
      3  C          4.9020    2.1490   -0.4620 C.3     1  UNL1        0.0870
      4  O          4.4510    1.7110    1.7690 O.2     1  UNL1       -0.3000
      5  C          7.5510    1.2540   -0.0580 C.3     1  UNL1        0.0430
      6  C          7.8010   -0.0620   -0.6730 C.2     1  UNL1       -0.0440
      7  C          7.7460   -0.2450   -2.0590 C.2     1  UNL1        0.0080
      8  C          8.1000   -1.1420    0.1260 C.2     1  UNL1        0.0540
      9  C          7.9910   -1.5030   -2.5800 C.2     1  UNL1        0.0510
     10  C          8.3470   -2.4120   -0.4060 C.2     1  UNL1        0.1660
     11  C          8.2920   -2.5930   -1.7700 C.2     1  UNL1        0.1650
     12  O          8.6590   -3.6260    0.1680 O.2     1  UNL1       -0.4540
     13  O          8.5750   -3.9290   -2.0080 O.2     1  UNL1       -0.4540
     14  C          8.9030   -4.6000   -0.8150 C.3     1  UNL1        0.4680
@<TRIPOS>BOND
     1     9     7    1
     2     9    11    2
     3     7     6    2
     4    13    11    1
     5    13    14    1
     6    11    10    1
     7    14    12    1
     8     6     5    1
     9     6     8    1
    10     3     2    1
    11    10     8    2
    12    10    12    1
    13     5     1    1
    14     2     1    1
    15     2     4    2
