MODEL 1
REMARK VINA RESULT:      -7.6      0.000      0.000
REMARK SMILES CC(=O)CCc1ccc2c(c1)OCO2
REMARK SMILES IDX 4 1 2 2 1 3 3 4 5 5 6 6 7 7 11 8 8 9 10 10 9 11 12 12 14 13
REMARK SMILES IDX 13 14
REMARK H PARENT
REMARK Flexibility Score: inf
ROOT
ATOM      1  C   UNL     1       5.548   1.909   1.278  1.00  0.00     0.080 C 
ENDROOT
BRANCH   1   2
ATOM      2  C   UNL     1       5.108   0.690   2.011  1.00  0.00     0.130 C 
ATOM      3  C   UNL     1       6.008  -0.481   2.190  1.00  0.00     0.087 C 
ATOM      4  O   UNL     1       3.988   0.617   2.490  1.00  0.00    -0.300 OA
ENDBRANCH   1   2
BRANCH   1   5
ATOM      5  C   UNL     1       5.417   1.727  -0.222  1.00  0.00     0.043 C 
BRANCH   5   6
ATOM      6  C   UNL     1       6.579   1.022  -0.791  1.00  0.00    -0.044 A 
ATOM      7  C   UNL     1       7.889   1.453  -0.547  1.00  0.00     0.008 A 
ATOM      8  C   UNL     1       6.385  -0.088  -1.580  1.00  0.00     0.054 A 
ATOM      9  C   UNL     1       8.941   0.752  -1.107  1.00  0.00     0.051 A 
ATOM     10  C   UNL     1       7.452  -0.795  -2.143  1.00  0.00     0.166 A 
ATOM     11  C   UNL     1       8.740  -0.371  -1.905  1.00  0.00     0.165 A 
ATOM     12  O   UNL     1       7.518  -1.910  -2.950  1.00  0.00    -0.454 OA
ATOM     13  O   UNL     1       9.580  -1.245  -2.577  1.00  0.00    -0.454 OA
ATOM     14  C   UNL     1       8.852  -2.289  -3.178  1.00  0.00     0.468 C 
ENDBRANCH   5   6
ENDBRANCH   1   5
TORSDOF 3
ENDMDL
MODEL 2
REMARK VINA RESULT:      -7.4      1.920      2.373
REMARK SMILES CC(=O)CCc1ccc2c(c1)OCO2
REMARK SMILES IDX 4 1 2 2 1 3 3 4 5 5 6 6 7 7 11 8 8 9 10 10 9 11 12 12 14 13
REMARK SMILES IDX 13 14
REMARK H PARENT
REMARK Flexibility Score: inf
ROOT
ATOM      1  C   UNL     1       5.784   1.404  -0.272  1.00  0.00     0.080 C 
ENDROOT
BRANCH   1   2
ATOM      2  C   UNL     1       5.121   1.294   1.057  1.00  0.00     0.130 C 
ATOM      3  C   UNL     1       5.389   0.152   1.971  1.00  0.00     0.087 C 
ATOM      4  O   UNL     1       4.332   2.145   1.436  1.00  0.00    -0.300 OA
ENDBRANCH   1   2
BRANCH   1   5
ATOM      5  C   UNL     1       7.269   1.117  -0.172  1.00  0.00     0.043 C 
BRANCH   5   6
ATOM      6  C   UNL     1       7.622  -0.168  -0.803  1.00  0.00    -0.044 A 
ATOM      7  C   UNL     1       7.650  -0.318  -2.194  1.00  0.00     0.008 A 
ATOM      8  C   UNL     1       7.935  -1.252  -0.015  1.00  0.00     0.054 A 
ATOM      9  C   UNL     1       7.989  -1.547  -2.730  1.00  0.00     0.051 A 
ATOM     10  C   UNL     1       8.277  -2.492  -0.561  1.00  0.00     0.166 A 
ATOM     11  C   UNL     1       8.304  -2.641  -1.930  1.00  0.00     0.165 A 
ATOM     12  O   UNL     1       8.623  -3.703   0.000  1.00  0.00    -0.454 OA
ATOM     13  O   UNL     1       8.670  -3.953  -2.183  1.00  0.00    -0.454 OA
ATOM     14  C   UNL     1       8.970  -4.637  -0.990  1.00  0.00     0.468 C 
ENDBRANCH   5   6
ENDBRANCH   1   5
TORSDOF 3
ENDMDL
MODEL 3
REMARK VINA RESULT:      -7.1      2.090      2.616
REMARK SMILES CC(=O)CCc1ccc2c(c1)OCO2
REMARK SMILES IDX 4 1 2 2 1 3 3 4 5 5 6 6 7 7 11 8 8 9 10 10 9 11 12 12 14 13
REMARK SMILES IDX 13 14
REMARK H PARENT
REMARK Flexibility Score: inf
ROOT
ATOM      1  C   UNL     1       5.600   0.006   1.935  1.00  0.00     0.080 C 
ENDROOT
BRANCH   1   2
ATOM      2  C   UNL     1       4.697   1.150   1.628  1.00  0.00     0.130 C 
ATOM      3  C   UNL     1       4.958   2.067   0.486  1.00  0.00     0.087 C 
ATOM      4  O   UNL     1       3.709   1.369   2.311  1.00  0.00    -0.300 OA
ENDBRANCH   1   2
BRANCH   1   5
ATOM      5  C   UNL     1       7.009   0.269   1.440  1.00  0.00     0.043 C 
BRANCH   5   6
ATOM      6  C   UNL     1       7.414  -0.700   0.405  1.00  0.00    -0.044 A 
ATOM      7  C   UNL     1       7.325  -0.396  -0.958  1.00  0.00     0.008 A 
ATOM      8  C   UNL     1       7.895  -1.934   0.777  1.00  0.00     0.054 A 
ATOM      9  C   UNL     1       7.721  -1.344  -1.884  1.00  0.00     0.051 A 
ATOM     10  C   UNL     1       8.294  -2.889  -0.163  1.00  0.00     0.166 A 
ATOM     11  C   UNL     1       8.206  -2.591  -1.505  1.00  0.00     0.165 A 
ATOM     12  O   UNL     1       8.797  -4.168  -0.048  1.00  0.00    -0.454 OA
ATOM     13  O   UNL     1       8.663  -3.704  -2.193  1.00  0.00    -0.454 OA
ATOM     14  C   UNL     1       9.132  -4.693  -1.307  1.00  0.00     0.468 C 
ENDBRANCH   5   6
ENDBRANCH   1   5
TORSDOF 3
ENDMDL
MODEL 4
REMARK VINA RESULT:      -7.1      1.247      1.454
REMARK SMILES CC(=O)CCc1ccc2c(c1)OCO2
REMARK SMILES IDX 4 1 2 2 1 3 3 4 5 5 6 6 7 7 11 8 8 9 10 10 9 11 12 12 14 13
REMARK SMILES IDX 13 14
REMARK H PARENT
REMARK Flexibility Score: inf
ROOT
ATOM      1  C   UNL     1       6.377   1.210   0.929  1.00  0.00     0.080 C 
ENDROOT
BRANCH   1   2
ATOM      2  C   UNL     1       5.659   0.385   1.941  1.00  0.00     0.130 C 
ATOM      3  C   UNL     1       6.269  -0.839   2.526  1.00  0.00     0.087 C 
ATOM      4  O   UNL     1       4.541   0.692   2.321  1.00  0.00    -0.300 OA
ENDBRANCH   1   2
BRANCH   1   5
ATOM      5  C   UNL     1       5.867   0.930  -0.471  1.00  0.00     0.043 C 
BRANCH   5   6
ATOM      6  C   UNL     1       6.814   0.105  -1.242  1.00  0.00    -0.044 A 
ATOM      7  C   UNL     1       7.496   0.617  -2.352  1.00  0.00     0.008 A 
ATOM      8  C   UNL     1       7.043  -1.200  -0.870  1.00  0.00     0.054 A 
ATOM      9  C   UNL     1       8.374  -0.203  -3.037  1.00  0.00     0.051 A 
ATOM     10  C   UNL     1       7.931  -2.025  -1.566  1.00  0.00     0.166 A 
ATOM     11  C   UNL     1       8.602  -1.522  -2.659  1.00  0.00     0.165 A 
ATOM     12  O   UNL     1       8.324  -3.336  -1.398  1.00  0.00    -0.454 OA
ATOM     13  O   UNL     1       9.402  -2.545  -3.143  1.00  0.00    -0.454 OA
ATOM     14  C   UNL     1       9.325  -3.684  -2.319  1.00  0.00     0.468 C 
ENDBRANCH   5   6
ENDBRANCH   1   5
TORSDOF 3
ENDMDL
MODEL 5
REMARK VINA RESULT:      -6.8      1.187      5.164
REMARK SMILES CC(=O)CCc1ccc2c(c1)OCO2
REMARK SMILES IDX 4 1 2 2 1 3 3 4 5 5 6 6 7 7 11 8 8 9 10 10 9 11 12 12 14 13
REMARK SMILES IDX 13 14
REMARK H PARENT
REMARK Flexibility Score: inf
ROOT
ATOM      1  C   UNL     1       8.348   0.189  -2.676  1.00  0.00     0.080 C 
ENDROOT
BRANCH   1   2
ATOM      2  C   UNL     1       8.058  -1.270  -2.766  1.00  0.00     0.130 C 
ATOM      3  C   UNL     1       9.131  -2.264  -3.032  1.00  0.00     0.087 C 
ATOM      4  O   UNL     1       6.922  -1.693  -2.622  1.00  0.00    -0.300 OA
ENDBRANCH   1   2
BRANCH   1   5
ATOM      5  C   UNL     1       8.876   0.561  -1.305  1.00  0.00     0.043 C 
BRANCH   5   6
ATOM      6  C   UNL     1       7.843   0.420  -0.264  1.00  0.00    -0.044 A 
ATOM      7  C   UNL     1       7.951  -0.537   0.752  1.00  0.00     0.008 A 
ATOM      8  C   UNL     1       6.742   1.246  -0.279  1.00  0.00     0.054 A 
ATOM      9  C   UNL     1       6.950  -0.623   1.703  1.00  0.00     0.051 A 
ATOM     10  C   UNL     1       5.733   1.156   0.685  1.00  0.00     0.166 A 
ATOM     11  C   UNL     1       5.838   0.213   1.684  1.00  0.00     0.165 A 
ATOM     12  O   UNL     1       4.558   1.849   0.883  1.00  0.00    -0.454 OA
ATOM     13  O   UNL     1       4.714   0.350   2.484  1.00  0.00    -0.454 OA
ATOM     14  C   UNL     1       3.921   1.435   2.065  1.00  0.00     0.468 C 
ENDBRANCH   5   6
ENDBRANCH   1   5
TORSDOF 3
ENDMDL
