@<TRIPOS>MOLECULE
/home/cewinharhar/GITHUB/reincatalyze/data/processed/docking_pred/2023-May-24-1506_sub9_nm5_bs15_s42_ex16_mel10_mts10000_k50_ec02_g099_lra3e-4_lrc3e-3/2cf69de7cf34ef354308742c6722c88054a527ce_ligand_9.pdbqt
 14 15 0 0 0
SMALL
GASTEIGER

@<TRIPOS>ATOM
      1  C          6.3770    1.2100    0.9290 C.3     1  UNL1        0.0800
      2  C          5.6590    0.3850    1.9410 C.2     1  UNL1        0.1300
      3  C          6.2690   -0.8390    2.5260 C.3     1  UNL1        0.0870
      4  O          4.5410    0.6920    2.3210 O.2     1  UNL1       -0.3000
      5  C          5.8670    0.9300   -0.4710 C.3     1  UNL1        0.0430
      6  C          6.8140    0.1050   -1.2420 C.2     1  UNL1       -0.0440
      7  C          7.4960    0.6170   -2.3520 C.2     1  UNL1        0.0080
      8  C          7.0430   -1.2000   -0.8700 C.2     1  UNL1        0.0540
      9  C          8.3740   -0.2030   -3.0370 C.2     1  UNL1        0.0510
     10  C          7.9310   -2.0250   -1.5660 C.2     1  UNL1        0.1660
     11  C          8.6020   -1.5220   -2.6590 C.2     1  UNL1        0.1650
     12  O          8.3240   -3.3360   -1.3980 O.2     1  UNL1       -0.4540
     13  O          9.4020   -2.5450   -3.1430 O.2     1  UNL1       -0.4540
     14  C          9.3250   -3.6840   -2.3190 C.3     1  UNL1        0.4680
@<TRIPOS>BOND
     1    13    11    1
     2    13    14    1
     3     9    11    2
     4     9     7    1
     5    11    10    1
     6     7     6    2
     7    14    12    1
     8    10    12    1
     9    10     8    2
    10     6     8    1
    11     6     5    1
    12     5     1    1
    13     1     2    1
    14     2     4    2
    15     2     3    1
