@<TRIPOS>MOLECULE
/home/cewinharhar/GITHUB/reincatalyze/data/processed/docking_pred/2023-May-24-1506_sub9_nm5_bs15_s42_ex16_mel10_mts10000_k50_ec02_g099_lra3e-4_lrc3e-3/2cf69de7cf34ef354308742c6722c88054a527ce_ligand_9.pdbqt
 14 15 0 0 0
SMALL
GASTEIGER

@<TRIPOS>ATOM
      1  C          5.7840    1.4040   -0.2720 C.3     1  UNL1        0.0800
      2  C          5.1210    1.2940    1.0570 C.2     1  UNL1        0.1300
      3  C          5.3890    0.1520    1.9710 C.3     1  UNL1        0.0870
      4  O          4.3320    2.1450    1.4360 O.2     1  UNL1       -0.3000
      5  C          7.2690    1.1170   -0.1720 C.3     1  UNL1        0.0430
      6  C          7.6220   -0.1680   -0.8030 C.2     1  UNL1       -0.0440
      7  C          7.6500   -0.3180   -2.1940 C.2     1  UNL1        0.0080
      8  C          7.9350   -1.2520   -0.0150 C.2     1  UNL1        0.0540
      9  C          7.9890   -1.5470   -2.7300 C.2     1  UNL1        0.0510
     10  C          8.2770   -2.4920   -0.5610 C.2     1  UNL1        0.1660
     11  C          8.3040   -2.6410   -1.9300 C.2     1  UNL1        0.1650
     12  O          8.6230   -3.7030    0.0000 O.2     1  UNL1       -0.4540
     13  O          8.6700   -3.9530   -2.1830 O.2     1  UNL1       -0.4540
     14  C          8.9700   -4.6370   -0.9900 C.3     1  UNL1        0.4680
@<TRIPOS>BOND
     1     9     7    1
     2     9    11    2
     3     7     6    2
     4    13    11    1
     5    13    14    1
     6    11    10    1
     7    14    12    1
     8     6     5    1
     9     6     8    1
    10    10     8    2
    11    10    12    1
    12     1     5    1
    13     1     2    1
    14     2     4    2
    15     2     3    1
