@<TRIPOS>MOLECULE
/home/cewinharhar/GITHUB/reincatalyze/data/processed/docking_pred/2023-May-24-1506_sub9_nm5_bs15_s42_ex16_mel10_mts10000_k50_ec02_g099_lra3e-4_lrc3e-3/2cf69de7cf34ef354308742c6722c88054a527ce_ligand_9.pdbqt
 14 15 0 0 0
SMALL
GASTEIGER

@<TRIPOS>ATOM
      1  C          5.5480    1.9090    1.2780 C.3     1  UNL1        0.0800
      2  C          5.1080    0.6900    2.0110 C.2     1  UNL1        0.1300
      3  C          6.0080   -0.4810    2.1900 C.3     1  UNL1        0.0870
      4  O          3.9880    0.6170    2.4900 O.2     1  UNL1       -0.3000
      5  C          5.4170    1.7270   -0.2220 C.3     1  UNL1        0.0430
      6  C          6.5790    1.0220   -0.7910 C.2     1  UNL1       -0.0440
      7  C          7.8890    1.4530   -0.5470 C.2     1  UNL1        0.0080
      8  C          6.3850   -0.0880   -1.5800 C.2     1  UNL1        0.0540
      9  C          8.9410    0.7520   -1.1070 C.2     1  UNL1        0.0510
     10  C          7.4520   -0.7950   -2.1430 C.2     1  UNL1        0.1660
     11  C          8.7400   -0.3710   -1.9050 C.2     1  UNL1        0.1650
     12  O          7.5180   -1.9100   -2.9500 O.2     1  UNL1       -0.4540
     13  O          9.5800   -1.2450   -2.5770 O.2     1  UNL1       -0.4540
     14  C          8.8520   -2.2890   -3.1780 C.3     1  UNL1        0.4680
@<TRIPOS>BOND
     1    14    12    1
     2    14    13    1
     3    12    10    1
     4    13    11    1
     5    10    11    2
     6    10     8    1
     7    11     9    1
     8     8     6    2
     9     9     7    2
    10     6     7    1
    11     6     5    1
    12     5     1    1
    13     1     2    1
    14     2     3    1
    15     2     4    2
