@<TRIPOS>MOLECULE
/home/cewinharhar/GITHUB/reincatalyze/data/processed/docking_pred/2023-May-24-1506_sub9_nm5_bs15_s42_ex16_mel10_mts10000_k50_ec02_g099_lra3e-4_lrc3e-3/2cf69de7cf34ef354308742c6722c88054a527ce_ligand_9.pdbqt
 14 15 0 0 0
SMALL
GASTEIGER

@<TRIPOS>ATOM
      1  C          5.6000    0.0060    1.9350 C.3     1  UNL1        0.0800
      2  C          4.6970    1.1500    1.6280 C.2     1  UNL1        0.1300
      3  C          4.9580    2.0670    0.4860 C.3     1  UNL1        0.0870
      4  O          3.7090    1.3690    2.3110 O.2     1  UNL1       -0.3000
      5  C          7.0090    0.2690    1.4400 C.3     1  UNL1        0.0430
      6  C          7.4140   -0.7000    0.4050 C.2     1  UNL1       -0.0440
      7  C          7.3250   -0.3960   -0.9580 C.2     1  UNL1        0.0080
      8  C          7.8950   -1.9340    0.7770 C.2     1  UNL1        0.0540
      9  C          7.7210   -1.3440   -1.8840 C.2     1  UNL1        0.0510
     10  C          8.2940   -2.8890   -0.1630 C.2     1  UNL1        0.1660
     11  C          8.2060   -2.5910   -1.5050 C.2     1  UNL1        0.1650
     12  O          8.7970   -4.1680   -0.0480 O.2     1  UNL1       -0.4540
     13  O          8.6630   -3.7040   -2.1930 O.2     1  UNL1       -0.4540
     14  C          9.1320   -4.6930   -1.3070 C.3     1  UNL1        0.4680
@<TRIPOS>BOND
     1    13    11    1
     2    13    14    1
     3     9    11    2
     4     9     7    1
     5    11    10    1
     6    14    12    1
     7     7     6    2
     8    10    12    1
     9    10     8    2
    10     6     8    1
    11     6     5    1
    12     3     2    1
    13     5     1    1
    14     2     1    1
    15     2     4    2
