@<TRIPOS>MOLECULE
/home/cewinharhar/GITHUB/reincatalyze/data/processed/docking_pred/2023-May-24-1506_sub9_nm5_bs15_s42_ex16_mel10_mts10000_k50_ec02_g099_lra3e-4_lrc3e-3/2d2d9026ea33a6842fa37a74e1533968fe9c5ac5_ligand_9.pdbqt
 14 15 0 0 0
SMALL
GASTEIGER

@<TRIPOS>ATOM
      1  C          6.7130    0.6500    1.3320 C.3     1  UNL1        0.0800
      2  C          5.3450    1.2380    1.3800 C.2     1  UNL1        0.1300
      3  C          4.8490    2.1500    0.3150 C.3     1  UNL1        0.0870
      4  O          4.5860    0.9850    2.3030 O.2     1  UNL1       -0.3000
      5  C          7.3690    0.8930   -0.0120 C.3     1  UNL1        0.0430
      6  C          7.7030   -0.3700   -0.6940 C.2     1  UNL1       -0.0440
      7  C          7.7340   -0.4640   -2.0900 C.2     1  UNL1        0.0080
      8  C          7.9960   -1.4900    0.0510 C.2     1  UNL1        0.0540
      9  C          8.0550   -1.6760   -2.6740 C.2     1  UNL1        0.0510
     10  C          8.3210   -2.7130   -0.5440 C.2     1  UNL1        0.1660
     11  C          8.3500   -2.8060   -1.9180 C.2     1  UNL1        0.1650
     12  O          8.6450   -3.9510   -0.0320 O.2     1  UNL1       -0.4540
     13  O          8.6970   -4.1130   -2.2230 O.2     1  UNL1       -0.4540
     14  C          8.9810   -4.8490   -1.0580 C.3     1  UNL1        0.4680
@<TRIPOS>BOND
     1     9     7    1
     2     9    11    2
     3    13    11    1
     4    13    14    1
     5     7     6    2
     6    11    10    1
     7    14    12    1
     8     6     5    1
     9     6     8    1
    10    10    12    1
    11    10     8    2
    12     5     1    1
    13     3     2    1
    14     1     2    1
    15     2     4    2
