MODEL 1
REMARK VINA RESULT:      -7.7      0.000      0.000
REMARK SMILES CC(=O)CCc1ccc2c(c1)OCO2
REMARK SMILES IDX 4 1 2 2 1 3 3 4 5 5 6 6 7 7 11 8 8 9 10 10 9 11 12 12 14 13
REMARK SMILES IDX 13 14
REMARK H PARENT
REMARK Flexibility Score: inf
ROOT
ATOM      1  C   UNL     1       5.494   1.909   1.249  1.00  0.00     0.080 C 
ENDROOT
BRANCH   1   2
ATOM      2  C   UNL     1       5.029   0.705   1.993  1.00  0.00     0.130 C 
ATOM      3  C   UNL     1       5.872  -0.514   2.112  1.00  0.00     0.087 C 
ATOM      4  O   UNL     1       3.933   0.686   2.531  1.00  0.00    -0.300 OA
ENDBRANCH   1   2
BRANCH   1   5
ATOM      5  C   UNL     1       5.375   1.709  -0.249  1.00  0.00     0.043 C 
BRANCH   5   6
ATOM      6  C   UNL     1       6.552   1.015  -0.803  1.00  0.00    -0.044 A 
ATOM      7  C   UNL     1       7.854   1.454  -0.538  1.00  0.00     0.008 A 
ATOM      8  C   UNL     1       6.378  -0.093  -1.600  1.00  0.00     0.054 A 
ATOM      9  C   UNL     1       8.920   0.763  -1.084  1.00  0.00     0.051 A 
ATOM     10  C   UNL     1       7.458  -0.790  -2.150  1.00  0.00     0.166 A 
ATOM     11  C   UNL     1       8.740  -0.358  -1.890  1.00  0.00     0.165 A 
ATOM     12  O   UNL     1       7.546  -1.901  -2.960  1.00  0.00    -0.454 OA
ATOM     13  O   UNL     1       9.597  -1.223  -2.552  1.00  0.00    -0.454 OA
ATOM     14  C   UNL     1       8.885  -2.269  -3.169  1.00  0.00     0.468 C 
ENDBRANCH   5   6
ENDBRANCH   1   5
TORSDOF 3
ENDMDL
MODEL 2
REMARK VINA RESULT:      -7.4      1.876      2.341
REMARK SMILES CC(=O)CCc1ccc2c(c1)OCO2
REMARK SMILES IDX 4 1 2 2 1 3 3 4 5 5 6 6 7 7 11 8 8 9 10 10 9 11 12 12 14 13
REMARK SMILES IDX 13 14
REMARK H PARENT
REMARK Flexibility Score: inf
ROOT
ATOM      1  C   UNL     1       5.750   1.408  -0.277  1.00  0.00     0.080 C 
ENDROOT
BRANCH   1   2
ATOM      2  C   UNL     1       5.136   1.280   1.074  1.00  0.00     0.130 C 
ATOM      3  C   UNL     1       5.390   0.097   1.939  1.00  0.00     0.087 C 
ATOM      4  O   UNL     1       4.400   2.150   1.512  1.00  0.00    -0.300 OA
ENDBRANCH   1   2
BRANCH   1   5
ATOM      5  C   UNL     1       7.244   1.152  -0.229  1.00  0.00     0.043 C 
BRANCH   5   6
ATOM      6  C   UNL     1       7.599  -0.130  -0.862  1.00  0.00    -0.044 A 
ATOM      7  C   UNL     1       7.610  -0.282  -2.253  1.00  0.00     0.008 A 
ATOM      8  C   UNL     1       7.933  -1.209  -0.076  1.00  0.00     0.054 A 
ATOM      9  C   UNL     1       7.953  -1.509  -2.791  1.00  0.00     0.051 A 
ATOM     10  C   UNL     1       8.280  -2.448  -0.625  1.00  0.00     0.166 A 
ATOM     11  C   UNL     1       8.289  -2.599  -1.994  1.00  0.00     0.165 A 
ATOM     12  O   UNL     1       8.644  -3.654  -0.066  1.00  0.00    -0.454 OA
ATOM     13  O   UNL     1       8.664  -3.909  -2.250  1.00  0.00    -0.454 OA
ATOM     14  C   UNL     1       8.986  -4.587  -1.059  1.00  0.00     0.468 C 
ENDBRANCH   5   6
ENDBRANCH   1   5
TORSDOF 3
ENDMDL
MODEL 3
REMARK VINA RESULT:      -7.2      2.056      2.633
REMARK SMILES CC(=O)CCc1ccc2c(c1)OCO2
REMARK SMILES IDX 4 1 2 2 1 3 3 4 5 5 6 6 7 7 11 8 8 9 10 10 9 11 12 12 14 13
REMARK SMILES IDX 13 14
REMARK H PARENT
REMARK Flexibility Score: inf
ROOT
ATOM      1  C   UNL     1       5.388  -0.083   2.026  1.00  0.00     0.080 C 
ENDROOT
BRANCH   1   2
ATOM      2  C   UNL     1       4.544   1.118   1.771  1.00  0.00     0.130 C 
ATOM      3  C   UNL     1       4.899   2.115   0.726  1.00  0.00     0.087 C 
ATOM      4  O   UNL     1       3.529   1.319   2.419  1.00  0.00    -0.300 OA
ENDBRANCH   1   2
BRANCH   1   5
ATOM      5  C   UNL     1       6.829   0.163   1.624  1.00  0.00     0.043 C 
BRANCH   5   6
ATOM      6  C   UNL     1       7.262  -0.754   0.554  1.00  0.00    -0.044 A 
ATOM      7  C   UNL     1       7.129  -0.418  -0.798  1.00  0.00     0.008 A 
ATOM      8  C   UNL     1       7.813  -1.972   0.881  1.00  0.00     0.054 A 
ATOM      9  C   UNL     1       7.554  -1.318  -1.758  1.00  0.00     0.051 A 
ATOM     10  C   UNL     1       8.241  -2.879  -0.094  1.00  0.00     0.166 A 
ATOM     11  C   UNL     1       8.110  -2.549  -1.424  1.00  0.00     0.165 A 
ATOM     12  O   UNL     1       8.811  -4.132  -0.025  1.00  0.00    -0.454 OA
ATOM     13  O   UNL     1       8.608  -3.617  -2.153  1.00  0.00    -0.454 OA
ATOM     14  C   UNL     1       9.146  -4.604  -1.305  1.00  0.00     0.468 C 
ENDBRANCH   5   6
ENDBRANCH   1   5
TORSDOF 3
ENDMDL
MODEL 4
REMARK VINA RESULT:      -7.1      1.258      1.483
REMARK SMILES CC(=O)CCc1ccc2c(c1)OCO2
REMARK SMILES IDX 4 1 2 2 1 3 3 4 5 5 6 6 7 7 11 8 8 9 10 10 9 11 12 12 14 13
REMARK SMILES IDX 13 14
REMARK H PARENT
REMARK Flexibility Score: inf
ROOT
ATOM      1  C   UNL     1       6.382   1.218   0.862  1.00  0.00     0.080 C 
ENDROOT
BRANCH   1   2
ATOM      2  C   UNL     1       5.668   0.425   1.902  1.00  0.00     0.130 C 
ATOM      3  C   UNL     1       6.266  -0.801   2.495  1.00  0.00     0.087 C 
ATOM      4  O   UNL     1       4.565   0.761   2.299  1.00  0.00    -0.300 OA
ENDBRANCH   1   2
BRANCH   1   5
ATOM      5  C   UNL     1       5.869   0.894  -0.526  1.00  0.00     0.043 C 
BRANCH   5   6
ATOM      6  C   UNL     1       6.829   0.074  -1.286  1.00  0.00    -0.044 A 
ATOM      7  C   UNL     1       7.541   0.597  -2.372  1.00  0.00     0.008 A 
ATOM      8  C   UNL     1       7.041  -1.237  -0.927  1.00  0.00     0.054 A 
ATOM      9  C   UNL     1       8.430  -0.219  -3.047  1.00  0.00     0.051 A 
ATOM     10  C   UNL     1       7.942  -2.058  -1.612  1.00  0.00     0.166 A 
ATOM     11  C   UNL     1       8.642  -1.545  -2.682  1.00  0.00     0.165 A 
ATOM     12  O   UNL     1       8.323  -3.374  -1.453  1.00  0.00    -0.454 OA
ATOM     13  O   UNL     1       9.447  -2.566  -3.161  1.00  0.00    -0.454 OA
ATOM     14  C   UNL     1       9.344  -3.716  -2.355  1.00  0.00     0.468 C 
ENDBRANCH   5   6
ENDBRANCH   1   5
TORSDOF 3
ENDMDL
MODEL 5
REMARK VINA RESULT:      -7.0      1.996      2.590
REMARK SMILES CC(=O)CCc1ccc2c(c1)OCO2
REMARK SMILES IDX 4 1 2 2 1 3 3 4 5 5 6 6 7 7 11 8 8 9 10 10 9 11 12 12 14 13
REMARK SMILES IDX 13 14
REMARK H PARENT
REMARK Flexibility Score: inf
ROOT
ATOM      1  C   UNL     1       6.713   0.650   1.332  1.00  0.00     0.080 C 
ENDROOT
BRANCH   1   2
ATOM      2  C   UNL     1       5.345   1.238   1.380  1.00  0.00     0.130 C 
ATOM      3  C   UNL     1       4.849   2.150   0.315  1.00  0.00     0.087 C 
ATOM      4  O   UNL     1       4.586   0.985   2.303  1.00  0.00    -0.300 OA
ENDBRANCH   1   2
BRANCH   1   5
ATOM      5  C   UNL     1       7.369   0.893  -0.012  1.00  0.00     0.043 C 
BRANCH   5   6
ATOM      6  C   UNL     1       7.703  -0.370  -0.694  1.00  0.00    -0.044 A 
ATOM      7  C   UNL     1       7.734  -0.464  -2.090  1.00  0.00     0.008 A 
ATOM      8  C   UNL     1       7.996  -1.490   0.051  1.00  0.00     0.054 A 
ATOM      9  C   UNL     1       8.055  -1.676  -2.674  1.00  0.00     0.051 A 
ATOM     10  C   UNL     1       8.321  -2.713  -0.544  1.00  0.00     0.166 A 
ATOM     11  C   UNL     1       8.350  -2.806  -1.918  1.00  0.00     0.165 A 
ATOM     12  O   UNL     1       8.645  -3.951  -0.032  1.00  0.00    -0.454 OA
ATOM     13  O   UNL     1       8.697  -4.113  -2.223  1.00  0.00    -0.454 OA
ATOM     14  C   UNL     1       8.981  -4.849  -1.058  1.00  0.00     0.468 C 
ENDBRANCH   5   6
ENDBRANCH   1   5
TORSDOF 3
ENDMDL
