@<TRIPOS>MOLECULE
/home/cewinharhar/GITHUB/reincatalyze/data/processed/docking_pred/2023-May-24-1506_sub9_nm5_bs15_s42_ex16_mel10_mts10000_k50_ec02_g099_lra3e-4_lrc3e-3/30246d56752cb6be0208f58fab85103c625ac011_ligand_9.pdbqt
 14 15 0 0 0
SMALL
GASTEIGER

@<TRIPOS>ATOM
      1  C          5.7750    1.4860   -0.2030 C.3     1  UNL1        0.0800
      2  C          5.0760    1.3100    1.1000 C.2     1  UNL1        0.1300
      3  C          5.3020    0.1110    1.9520 C.3     1  UNL1        0.0870
      4  O          4.2910    2.1500    1.5100 O.2     1  UNL1       -0.3000
      5  C          7.2530    1.1740   -0.0810 C.3     1  UNL1        0.0430
      6  C          7.5950   -0.1100   -0.7200 C.2     1  UNL1       -0.0440
      7  C          7.5730   -0.2660   -2.1100 C.2     1  UNL1        0.0080
      8  C          7.9480   -1.1870    0.0610 C.2     1  UNL1        0.0540
      9  C          7.9040   -1.4940   -2.6530 C.2     1  UNL1        0.0510
     10  C          8.2830   -2.4260   -0.4930 C.2     1  UNL1        0.1660
     11  C          8.2600   -2.5810   -1.8610 C.2     1  UNL1        0.1650
     12  O          8.6620   -3.6310    0.0610 O.2     1  UNL1       -0.4540
     13  O          8.6300   -3.8910   -2.1220 O.2     1  UNL1       -0.4540
     14  C          8.9810   -4.5660   -0.9380 C.3     1  UNL1        0.4680
@<TRIPOS>BOND
     1     9     7    1
     2     9    11    2
     3    13    11    1
     4    13    14    1
     5     7     6    2
     6    11    10    1
     7    14    12    1
     8     6     5    1
     9     6     8    1
    10    10     8    2
    11    10    12    1
    12     1     5    1
    13     1     2    1
    14     2     4    2
    15     2     3    1
