@<TRIPOS>MOLECULE
/home/cewinharhar/GITHUB/reincatalyze/data/processed/docking_pred/2023-May-24-1506_sub9_nm5_bs15_s42_ex16_mel10_mts10000_k50_ec02_g099_lra3e-4_lrc3e-3/306d1dfeb5e1085b4f3e24b09348dc81ae645662_ligand_9.pdbqt
 14 15 0 0 0
SMALL
GASTEIGER

@<TRIPOS>ATOM
      1  C          5.5550    1.8910    1.2950 C.3     1  UNL1        0.0800
      2  C          5.1160    0.6670    2.0230 C.2     1  UNL1        0.1300
      3  C          6.0140   -0.5070    2.1880 C.3     1  UNL1        0.0870
      4  O          3.9980    0.5930    2.5070 O.2     1  UNL1       -0.3000
      5  C          5.4160    1.7190   -0.2040 C.3     1  UNL1        0.0430
      6  C          6.5790    1.0220   -0.7840 C.2     1  UNL1       -0.0440
      7  C          7.8870    1.4610   -0.5520 C.2     1  UNL1        0.0080
      8  C          6.3840   -0.0900   -1.5720 C.2     1  UNL1        0.0540
      9  C          8.9390    0.7660   -1.1210 C.2     1  UNL1        0.0510
     10  C          7.4510   -0.7890   -2.1450 C.2     1  UNL1        0.1660
     11  C          8.7390   -0.3570   -1.9180 C.2     1  UNL1        0.1650
     12  O          7.5180   -1.9040   -2.9530 O.2     1  UNL1       -0.4540
     13  O          9.5780   -1.2260   -2.5980 O.2     1  UNL1       -0.4540
     14  C          8.8510   -2.2740   -3.1930 C.3     1  UNL1        0.4680
@<TRIPOS>BOND
     1    14    12    1
     2    14    13    1
     3    12    10    1
     4    13    11    1
     5    10    11    2
     6    10     8    1
     7    11     9    1
     8     8     6    2
     9     9     7    2
    10     6     7    1
    11     6     5    1
    12     5     1    1
    13     1     2    1
    14     2     3    1
    15     2     4    2
