@<TRIPOS>MOLECULE
/home/cewinharhar/GITHUB/reincatalyze/data/processed/docking_pred/2023-May-24-1506_sub9_nm5_bs15_s42_ex16_mel10_mts10000_k50_ec02_g099_lra3e-4_lrc3e-3/306d1dfeb5e1085b4f3e24b09348dc81ae645662_ligand_9.pdbqt
 14 15 0 0 0
SMALL
GASTEIGER

@<TRIPOS>ATOM
      1  C          6.7900    0.6490    1.2600 C.3     1  UNL1        0.0800
      2  C          5.3710    1.0600    1.4480 C.2     1  UNL1        0.1300
      3  C          4.7600    2.1500    0.6400 C.3     1  UNL1        0.0870
      4  O          4.6640    0.5110    2.2770 O.2     1  UNL1       -0.3000
      5  C          7.2400    0.8600   -0.1720 C.3     1  UNL1        0.0430
      6  C          7.6600   -0.4030   -0.8040 C.2     1  UNL1       -0.0440
      7  C          7.7780   -0.5230   -2.1940 C.2     1  UNL1        0.0080
      8  C          7.9480   -1.4960   -0.0190 C.2     1  UNL1        0.0540
      9  C          8.1780   -1.7330   -2.7310 C.2     1  UNL1        0.0510
     10  C          8.3530   -2.7170   -0.5670 C.2     1  UNL1        0.1660
     11  C          8.4680   -2.8370   -1.9340 C.2     1  UNL1        0.1650
     12  O          8.6900   -3.9320   -0.0090 O.2     1  UNL1       -0.4540
     13  O          8.8790   -4.1360   -2.1900 O.2     1  UNL1       -0.4540
     14  C          9.1200   -4.8370   -0.9930 C.3     1  UNL1        0.4680
@<TRIPOS>BOND
     1     9     7    1
     2     9    11    2
     3     7     6    2
     4    13    11    1
     5    13    14    1
     6    11    10    1
     7    14    12    1
     8     6     5    1
     9     6     8    1
    10    10     8    2
    11    10    12    1
    12     5     1    1
    13     3     2    1
    14     1     2    1
    15     2     4    2
