MODEL 1
REMARK VINA RESULT:      -7.6      0.000      0.000
REMARK SMILES CC(=O)CCc1ccc2c(c1)OCO2
REMARK SMILES IDX 4 1 2 2 1 3 3 4 5 5 6 6 7 7 11 8 8 9 10 10 9 11 12 12 14 13
REMARK SMILES IDX 13 14
REMARK H PARENT
REMARK Flexibility Score: inf
ROOT
ATOM      1  C   UNL     1       5.555   1.891   1.295  1.00  0.00     0.080 C 
ENDROOT
BRANCH   1   2
ATOM      2  C   UNL     1       5.116   0.667   2.023  1.00  0.00     0.130 C 
ATOM      3  C   UNL     1       6.014  -0.507   2.188  1.00  0.00     0.087 C 
ATOM      4  O   UNL     1       3.998   0.593   2.507  1.00  0.00    -0.300 OA
ENDBRANCH   1   2
BRANCH   1   5
ATOM      5  C   UNL     1       5.416   1.719  -0.204  1.00  0.00     0.043 C 
BRANCH   5   6
ATOM      6  C   UNL     1       6.579   1.022  -0.784  1.00  0.00    -0.044 A 
ATOM      7  C   UNL     1       7.887   1.461  -0.552  1.00  0.00     0.008 A 
ATOM      8  C   UNL     1       6.384  -0.090  -1.572  1.00  0.00     0.054 A 
ATOM      9  C   UNL     1       8.939   0.766  -1.121  1.00  0.00     0.051 A 
ATOM     10  C   UNL     1       7.451  -0.789  -2.145  1.00  0.00     0.166 A 
ATOM     11  C   UNL     1       8.739  -0.357  -1.918  1.00  0.00     0.165 A 
ATOM     12  O   UNL     1       7.518  -1.904  -2.953  1.00  0.00    -0.454 OA
ATOM     13  O   UNL     1       9.578  -1.226  -2.598  1.00  0.00    -0.454 OA
ATOM     14  C   UNL     1       8.851  -2.274  -3.193  1.00  0.00     0.468 C 
ENDBRANCH   5   6
ENDBRANCH   1   5
TORSDOF 3
ENDMDL
MODEL 2
REMARK VINA RESULT:      -7.5      1.905      2.361
REMARK SMILES CC(=O)CCc1ccc2c(c1)OCO2
REMARK SMILES IDX 4 1 2 2 1 3 3 4 5 5 6 6 7 7 11 8 8 9 10 10 9 11 12 12 14 13
REMARK SMILES IDX 13 14
REMARK H PARENT
REMARK Flexibility Score: inf
ROOT
ATOM      1  C   UNL     1       5.716   1.388  -0.310  1.00  0.00     0.080 C 
ENDROOT
BRANCH   1   2
ATOM      2  C   UNL     1       5.136   1.291   1.058  1.00  0.00     0.130 C 
ATOM      3  C   UNL     1       5.456   0.156   1.964  1.00  0.00     0.087 C 
ATOM      4  O   UNL     1       4.374   2.148   1.478  1.00  0.00    -0.300 OA
ENDBRANCH   1   2
BRANCH   1   5
ATOM      5  C   UNL     1       7.216   1.167  -0.289  1.00  0.00     0.043 C 
BRANCH   5   6
ATOM      6  C   UNL     1       7.586  -0.128  -0.885  1.00  0.00    -0.044 A 
ATOM      7  C   UNL     1       7.670  -0.300  -2.272  1.00  0.00     0.008 A 
ATOM      8  C   UNL     1       7.862  -1.202  -0.069  1.00  0.00     0.054 A 
ATOM      9  C   UNL     1       8.023  -1.539  -2.775  1.00  0.00     0.051 A 
ATOM     10  C   UNL     1       8.219  -2.452  -0.582  1.00  0.00     0.166 A 
ATOM     11  C   UNL     1       8.300  -2.622  -1.946  1.00  0.00     0.165 A 
ATOM     12  O   UNL     1       8.535  -3.656   0.011  1.00  0.00    -0.454 OA
ATOM     13  O   UNL     1       8.669  -3.940  -2.165  1.00  0.00    -0.454 OA
ATOM     14  C   UNL     1       8.917  -4.606  -0.950  1.00  0.00     0.468 C 
ENDBRANCH   5   6
ENDBRANCH   1   5
TORSDOF 3
ENDMDL
MODEL 3
REMARK VINA RESULT:      -7.2      2.103      2.647
REMARK SMILES CC(=O)CCc1ccc2c(c1)OCO2
REMARK SMILES IDX 4 1 2 2 1 3 3 4 5 5 6 6 7 7 11 8 8 9 10 10 9 11 12 12 14 13
REMARK SMILES IDX 13 14
REMARK H PARENT
REMARK Flexibility Score: inf
ROOT
ATOM      1  C   UNL     1       5.563  -0.005   1.944  1.00  0.00     0.080 C 
ENDROOT
BRANCH   1   2
ATOM      2  C   UNL     1       4.674   1.149   1.630  1.00  0.00     0.130 C 
ATOM      3  C   UNL     1       4.987   2.099   0.529  1.00  0.00     0.087 C 
ATOM      4  O   UNL     1       3.656   1.349   2.273  1.00  0.00    -0.300 OA
ENDBRANCH   1   2
BRANCH   1   5
ATOM      5  C   UNL     1       6.977   0.243   1.459  1.00  0.00     0.043 C 
BRANCH   5   6
ATOM      6  C   UNL     1       7.378  -0.728   0.425  1.00  0.00    -0.044 A 
ATOM      7  C   UNL     1       7.257  -0.438  -0.939  1.00  0.00     0.008 A 
ATOM      8  C   UNL     1       7.887  -1.951   0.798  1.00  0.00     0.054 A 
ATOM      9  C   UNL     1       7.650  -1.387  -1.865  1.00  0.00     0.051 A 
ATOM     10  C   UNL     1       8.284  -2.907  -0.142  1.00  0.00     0.166 A 
ATOM     11  C   UNL     1       8.164  -2.623  -1.484  1.00  0.00     0.165 A 
ATOM     12  O   UNL     1       8.811  -4.176  -0.027  1.00  0.00    -0.454 OA
ATOM     13  O   UNL     1       8.625  -3.734  -2.172  1.00  0.00    -0.454 OA
ATOM     14  C   UNL     1       9.129  -4.707  -1.288  1.00  0.00     0.468 C 
ENDBRANCH   5   6
ENDBRANCH   1   5
TORSDOF 3
ENDMDL
MODEL 4
REMARK VINA RESULT:      -7.1      1.262      1.475
REMARK SMILES CC(=O)CCc1ccc2c(c1)OCO2
REMARK SMILES IDX 4 1 2 2 1 3 3 4 5 5 6 6 7 7 11 8 8 9 10 10 9 11 12 12 14 13
REMARK SMILES IDX 13 14
REMARK H PARENT
REMARK Flexibility Score: inf
ROOT
ATOM      1  C   UNL     1       6.392   1.169   0.963  1.00  0.00     0.080 C 
ENDROOT
BRANCH   1   2
ATOM      2  C   UNL     1       5.645   0.343   1.952  1.00  0.00     0.130 C 
ATOM      3  C   UNL     1       6.234  -0.886   2.547  1.00  0.00     0.087 C 
ATOM      4  O   UNL     1       4.518   0.654   2.304  1.00  0.00    -0.300 OA
ENDBRANCH   1   2
BRANCH   1   5
ATOM      5  C   UNL     1       5.893   0.926  -0.447  1.00  0.00     0.043 C 
BRANCH   5   6
ATOM      6  C   UNL     1       6.830   0.093  -1.223  1.00  0.00    -0.044 A 
ATOM      7  C   UNL     1       7.494   0.592  -2.349  1.00  0.00     0.008 A 
ATOM      8  C   UNL     1       7.066  -1.207  -0.838  1.00  0.00     0.054 A 
ATOM      9  C   UNL     1       8.363  -0.235  -3.037  1.00  0.00     0.051 A 
ATOM     10  C   UNL     1       7.946  -2.039  -1.536  1.00  0.00     0.166 A 
ATOM     11  C   UNL     1       8.599  -1.549  -2.645  1.00  0.00     0.165 A 
ATOM     12  O   UNL     1       8.344  -3.347  -1.358  1.00  0.00    -0.454 OA
ATOM     13  O   UNL     1       9.394  -2.577  -3.129  1.00  0.00    -0.454 OA
ATOM     14  C   UNL     1       9.331  -3.706  -2.290  1.00  0.00     0.468 C 
ENDBRANCH   5   6
ENDBRANCH   1   5
TORSDOF 3
ENDMDL
MODEL 5
REMARK VINA RESULT:      -7.0      2.006      2.581
REMARK SMILES CC(=O)CCc1ccc2c(c1)OCO2
REMARK SMILES IDX 4 1 2 2 1 3 3 4 5 5 6 6 7 7 11 8 8 9 10 10 9 11 12 12 14 13
REMARK SMILES IDX 13 14
REMARK H PARENT
REMARK Flexibility Score: inf
ROOT
ATOM      1  C   UNL     1       6.790   0.649   1.260  1.00  0.00     0.080 C 
ENDROOT
BRANCH   1   2
ATOM      2  C   UNL     1       5.371   1.060   1.448  1.00  0.00     0.130 C 
ATOM      3  C   UNL     1       4.760   2.150   0.640  1.00  0.00     0.087 C 
ATOM      4  O   UNL     1       4.664   0.511   2.277  1.00  0.00    -0.300 OA
ENDBRANCH   1   2
BRANCH   1   5
ATOM      5  C   UNL     1       7.240   0.860  -0.172  1.00  0.00     0.043 C 
BRANCH   5   6
ATOM      6  C   UNL     1       7.660  -0.403  -0.804  1.00  0.00    -0.044 A 
ATOM      7  C   UNL     1       7.778  -0.523  -2.194  1.00  0.00     0.008 A 
ATOM      8  C   UNL     1       7.948  -1.496  -0.019  1.00  0.00     0.054 A 
ATOM      9  C   UNL     1       8.178  -1.733  -2.731  1.00  0.00     0.051 A 
ATOM     10  C   UNL     1       8.353  -2.717  -0.567  1.00  0.00     0.166 A 
ATOM     11  C   UNL     1       8.468  -2.837  -1.934  1.00  0.00     0.165 A 
ATOM     12  O   UNL     1       8.690  -3.932  -0.009  1.00  0.00    -0.454 OA
ATOM     13  O   UNL     1       8.879  -4.136  -2.190  1.00  0.00    -0.454 OA
ATOM     14  C   UNL     1       9.120  -4.837  -0.993  1.00  0.00     0.468 C 
ENDBRANCH   5   6
ENDBRANCH   1   5
TORSDOF 3
ENDMDL
