MODEL 1
REMARK VINA RESULT:      -7.2      0.000      0.000
REMARK SMILES CC(=O)CCc1ccc2c(c1)OCO2
REMARK SMILES IDX 4 1 2 2 1 3 3 4 5 5 6 6 7 7 11 8 8 9 10 10 9 11 12 12 14 13
REMARK SMILES IDX 13 14
REMARK H PARENT
REMARK Flexibility Score: inf
ROOT
ATOM      1  C   UNL     1       6.128   1.656   1.548  1.00  0.00     0.080 C 
ENDROOT
BRANCH   1   2
ATOM      2  C   UNL     1       5.496   0.444   2.139  1.00  0.00     0.130 C 
ATOM      3  C   UNL     1       6.267  -0.809   2.360  1.00  0.00     0.087 C 
ATOM      4  O   UNL     1       4.319   0.444   2.461  1.00  0.00    -0.300 OA
ENDBRANCH   1   2
BRANCH   1   5
ATOM      5  C   UNL     1       5.929   1.704   0.046  1.00  0.00     0.043 C 
BRANCH   5   6
ATOM      6  C   UNL     1       6.965   0.935  -0.667  1.00  0.00    -0.044 A 
ATOM      7  C   UNL     1       8.289   1.383  -0.742  1.00  0.00     0.008 A 
ATOM      8  C   UNL     1       6.635  -0.254  -1.276  1.00  0.00     0.054 A 
ATOM      9  C   UNL     1       9.219   0.619  -1.424  1.00  0.00     0.051 A 
ATOM     10  C   UNL     1       7.578  -1.023  -1.963  1.00  0.00     0.166 A 
ATOM     11  C   UNL     1       8.881  -0.583  -2.038  1.00  0.00     0.165 A 
ATOM     12  O   UNL     1       7.500  -2.221  -2.642  1.00  0.00    -0.454 OA
ATOM     13  O   UNL     1       9.583  -1.530  -2.768  1.00  0.00    -0.454 OA
ATOM     14  C   UNL     1       8.766  -2.629  -3.092  1.00  0.00     0.468 C 
ENDBRANCH   5   6
ENDBRANCH   1   5
TORSDOF 3
ENDMDL
MODEL 2
REMARK VINA RESULT:      -7.2      1.167      1.218
REMARK SMILES CC(=O)CCc1ccc2c(c1)OCO2
REMARK SMILES IDX 4 1 2 2 1 3 3 4 5 5 6 6 7 7 11 8 8 9 10 10 9 11 12 12 14 13
REMARK SMILES IDX 13 14
REMARK H PARENT
REMARK Flexibility Score: inf
ROOT
ATOM      1  C   UNL     1       6.382   1.218   0.929  1.00  0.00     0.080 C 
ENDROOT
BRANCH   1   2
ATOM      2  C   UNL     1       5.660   0.383   1.928  1.00  0.00     0.130 C 
ATOM      3  C   UNL     1       6.266  -0.849   2.501  1.00  0.00     0.087 C 
ATOM      4  O   UNL     1       4.541   0.688   2.309  1.00  0.00    -0.300 OA
ENDBRANCH   1   2
BRANCH   1   5
ATOM      5  C   UNL     1       5.879   0.953  -0.477  1.00  0.00     0.043 C 
BRANCH   5   6
ATOM      6  C   UNL     1       6.823   0.123  -1.247  1.00  0.00    -0.044 A 
ATOM      7  C   UNL     1       7.516   0.634  -2.350  1.00  0.00     0.008 A 
ATOM      8  C   UNL     1       7.037  -1.186  -0.879  1.00  0.00     0.054 A 
ATOM      9  C   UNL     1       8.389  -0.192  -3.035  1.00  0.00     0.051 A 
ATOM     10  C   UNL     1       7.922  -2.016  -1.574  1.00  0.00     0.166 A 
ATOM     11  C   UNL     1       8.603  -1.515  -2.661  1.00  0.00     0.165 A 
ATOM     12  O   UNL     1       8.302  -3.331  -1.410  1.00  0.00    -0.454 OA
ATOM     13  O   UNL     1       9.396  -2.543  -3.146  1.00  0.00    -0.454 OA
ATOM     14  C   UNL     1       9.304  -3.685  -2.328  1.00  0.00     0.468 C 
ENDBRANCH   5   6
ENDBRANCH   1   5
TORSDOF 3
ENDMDL
MODEL 3
REMARK VINA RESULT:      -7.0      1.791      2.307
REMARK SMILES CC(=O)CCc1ccc2c(c1)OCO2
REMARK SMILES IDX 4 1 2 2 1 3 3 4 5 5 6 6 7 7 11 8 8 9 10 10 9 11 12 12 14 13
REMARK SMILES IDX 13 14
REMARK H PARENT
REMARK Flexibility Score: inf
ROOT
ATOM      1  C   UNL     1       5.993   1.222  -0.176  1.00  0.00     0.080 C 
ENDROOT
BRANCH   1   2
ATOM      2  C   UNL     1       5.921   1.183   1.311  1.00  0.00     0.130 C 
ATOM      3  C   UNL     1       5.315   0.033   2.034  1.00  0.00     0.087 C 
ATOM      4  O   UNL     1       6.361   2.102   1.984  1.00  0.00    -0.300 OA
ENDBRANCH   1   2
BRANCH   1   5
ATOM      5  C   UNL     1       7.428   1.152  -0.660  1.00  0.00     0.043 C 
BRANCH   5   6
ATOM      6  C   UNL     1       7.770  -0.192  -1.159  1.00  0.00    -0.044 A 
ATOM      7  C   UNL     1       7.894  -0.456  -2.528  1.00  0.00     0.008 A 
ATOM      8  C   UNL     1       7.978  -1.219  -0.267  1.00  0.00     0.054 A 
ATOM      9  C   UNL     1       8.219  -1.736  -2.938  1.00  0.00     0.051 A 
ATOM     10  C   UNL     1       8.307  -2.512  -0.686  1.00  0.00     0.166 A 
ATOM     11  C   UNL     1       8.428  -2.772  -2.033  1.00  0.00     0.165 A 
ATOM     12  O   UNL     1       8.558  -3.685  -0.007  1.00  0.00    -0.454 OA
ATOM     13  O   UNL     1       8.755  -4.114  -2.154  1.00  0.00    -0.454 OA
ATOM     14  C   UNL     1       8.937  -4.708  -0.891  1.00  0.00     0.468 C 
ENDBRANCH   5   6
ENDBRANCH   1   5
TORSDOF 3
ENDMDL
MODEL 4
REMARK VINA RESULT:      -6.6      2.043      2.612
REMARK SMILES CC(=O)CCc1ccc2c(c1)OCO2
REMARK SMILES IDX 4 1 2 2 1 3 3 4 5 5 6 6 7 7 11 8 8 9 10 10 9 11 12 12 14 13
REMARK SMILES IDX 13 14
REMARK H PARENT
REMARK Flexibility Score: inf
ROOT
ATOM      1  C   UNL     1       6.159  -0.402   2.333  1.00  0.00     0.080 C 
ENDROOT
BRANCH   1   2
ATOM      2  C   UNL     1       5.117   0.562   1.881  1.00  0.00     0.130 C 
ATOM      3  C   UNL     1       5.311   1.415   0.678  1.00  0.00     0.087 C 
ATOM      4  O   UNL     1       4.066   0.680   2.490  1.00  0.00    -0.300 OA
ENDBRANCH   1   2
BRANCH   1   5
ATOM      5  C   UNL     1       7.496  -0.112   1.681  1.00  0.00     0.043 C 
BRANCH   5   6
ATOM      6  C   UNL     1       7.780  -1.045   0.576  1.00  0.00    -0.044 A 
ATOM      7  C   UNL     1       7.619  -0.667  -0.762  1.00  0.00     0.008 A 
ATOM      8  C   UNL     1       8.215  -2.321   0.855  1.00  0.00     0.054 A 
ATOM      9  C   UNL     1       7.901  -1.586  -1.757  1.00  0.00     0.051 A 
ATOM     10  C   UNL     1       8.500  -3.245  -0.154  1.00  0.00     0.166 A 
ATOM     11  C   UNL     1       8.341  -2.875  -1.471  1.00  0.00     0.165 A 
ATOM     12  O   UNL     1       8.939  -4.552  -0.135  1.00  0.00    -0.454 OA
ATOM     13  O   UNL     1       8.690  -3.973  -2.242  1.00  0.00    -0.454 OA
ATOM     14  C   UNL     1       9.162  -5.028  -1.438  1.00  0.00     0.468 C 
ENDBRANCH   5   6
ENDBRANCH   1   5
TORSDOF 3
ENDMDL
MODEL 5
REMARK VINA RESULT:      -6.4      2.106      2.549
REMARK SMILES CC(=O)CCc1ccc2c(c1)OCO2
REMARK SMILES IDX 4 1 2 2 1 3 3 4 5 5 6 6 7 7 11 8 8 9 10 10 9 11 12 12 14 13
REMARK SMILES IDX 13 14
REMARK H PARENT
REMARK Flexibility Score: inf
ROOT
ATOM      1  C   UNL     1       5.760   1.053  -0.334  1.00  0.00     0.080 C 
ENDROOT
BRANCH   1   2
ATOM      2  C   UNL     1       5.703   1.268   1.139  1.00  0.00     0.130 C 
ATOM      3  C   UNL     1       4.843   0.431   2.017  1.00  0.00     0.087 C 
ATOM      4  O   UNL     1       6.365   2.145   1.670  1.00  0.00    -0.300 OA
ENDBRANCH   1   2
BRANCH   1   5
ATOM      5  C   UNL     1       7.185   0.837  -0.804  1.00  0.00     0.043 C 
BRANCH   5   6
ATOM      6  C   UNL     1       7.654  -0.531  -0.518  1.00  0.00    -0.044 A 
ATOM      7  C   UNL     1       7.864  -0.975   0.792  1.00  0.00     0.008 A 
ATOM      8  C   UNL     1       7.891  -1.401  -1.558  1.00  0.00     0.054 A 
ATOM      9  C   UNL     1       8.304  -2.270   0.999  1.00  0.00     0.051 A 
ATOM     10  C   UNL     1       8.334  -2.710  -1.343  1.00  0.00     0.166 A 
ATOM     11  C   UNL     1       8.543  -3.147  -0.054  1.00  0.00     0.165 A 
ATOM     12  O   UNL     1       8.638  -3.751  -2.195  1.00  0.00    -0.454 OA
ATOM     13  O   UNL     1       8.973  -4.462  -0.142  1.00  0.00    -0.454 OA
ATOM     14  C   UNL     1       8.961  -4.913  -1.475  1.00  0.00     0.468 C 
ENDBRANCH   5   6
ENDBRANCH   1   5
TORSDOF 3
ENDMDL
