@<TRIPOS>MOLECULE
/home/cewinharhar/GITHUB/reincatalyze/data/processed/docking_pred/2023-May-24-1506_sub9_nm5_bs15_s42_ex16_mel10_mts10000_k50_ec02_g099_lra3e-4_lrc3e-3/31018d4d3337f577513d0037205f1d699057d88b_ligand_9.pdbqt
 14 15 0 0 0
SMALL
GASTEIGER

@<TRIPOS>ATOM
      1  C          6.1590   -0.4020    2.3330 C.3     1  UNL1        0.0800
      2  C          5.1170    0.5620    1.8810 C.2     1  UNL1        0.1300
      3  C          5.3110    1.4150    0.6780 C.3     1  UNL1        0.0870
      4  O          4.0660    0.6800    2.4900 O.2     1  UNL1       -0.3000
      5  C          7.4960   -0.1120    1.6810 C.3     1  UNL1        0.0430
      6  C          7.7800   -1.0450    0.5760 C.2     1  UNL1       -0.0440
      7  C          7.6190   -0.6670   -0.7620 C.2     1  UNL1        0.0080
      8  C          8.2150   -2.3210    0.8550 C.2     1  UNL1        0.0540
      9  C          7.9010   -1.5860   -1.7570 C.2     1  UNL1        0.0510
     10  C          8.5000   -3.2450   -0.1540 C.2     1  UNL1        0.1660
     11  C          8.3410   -2.8750   -1.4710 C.2     1  UNL1        0.1650
     12  O          8.9390   -4.5520   -0.1350 O.2     1  UNL1       -0.4540
     13  O          8.6900   -3.9730   -2.2420 O.2     1  UNL1       -0.4540
     14  C          9.1620   -5.0280   -1.4380 C.3     1  UNL1        0.4680
@<TRIPOS>BOND
     1    13    11    1
     2    13    14    1
     3     9    11    2
     4     9     7    1
     5    11    10    1
     6    14    12    1
     7     7     6    2
     8    10    12    1
     9    10     8    2
    10     6     8    1
    11     6     5    1
    12     3     2    1
    13     5     1    1
    14     2     1    1
    15     2     4    2
