@<TRIPOS>MOLECULE
/home/cewinharhar/GITHUB/reincatalyze/data/processed/docking_pred/2023-May-24-1506_sub9_nm5_bs15_s42_ex16_mel10_mts10000_k50_ec02_g099_lra3e-4_lrc3e-3/3109bb1a4c888d48ff6ee722b945383cff227a99_ligand_9.pdbqt
 14 15 0 0 0
SMALL
GASTEIGER

@<TRIPOS>ATOM
      1  C          5.6530    0.1000    1.9370 C.3     1  UNL1        0.0800
      2  C          4.7280    1.2180    1.6030 C.2     1  UNL1        0.1300
      3  C          5.0010    2.1470    0.4740 C.3     1  UNL1        0.0870
      4  O          3.7110    1.4050    2.2520 O.2     1  UNL1       -0.3000
      5  C          7.0490    0.3630    1.4060 C.3     1  UNL1        0.0430
      6  C          7.4390   -0.6240    0.3840 C.2     1  UNL1       -0.0440
      7  C          7.3670   -0.3310   -0.9830 C.2     1  UNL1        0.0080
      8  C          7.8890   -1.8660    0.7710 C.2     1  UNL1        0.0540
      9  C          7.7470   -1.2970   -1.8970 C.2     1  UNL1        0.0510
     10  C          8.2730   -2.8380   -0.1580 C.2     1  UNL1        0.1660
     11  C          8.2010   -2.5510   -1.5030 C.2     1  UNL1        0.1650
     12  O          8.7460   -4.1270   -0.0270 O.2     1  UNL1       -0.4540
     13  O          8.6370   -3.6810   -2.1770 O.2     1  UNL1       -0.4540
     14  C          9.0780   -4.6710   -1.2790 C.3     1  UNL1        0.4680
@<TRIPOS>BOND
     1    13    11    1
     2    13    14    1
     3     9    11    2
     4     9     7    1
     5    11    10    1
     6    14    12    1
     7     7     6    2
     8    10    12    1
     9    10     8    2
    10     6     8    1
    11     6     5    1
    12     3     2    1
    13     5     1    1
    14     2     1    1
    15     2     4    2
