@<TRIPOS>MOLECULE
/home/cewinharhar/GITHUB/reincatalyze/data/processed/docking_pred/2023-May-24-1506_sub9_nm5_bs15_s42_ex16_mel10_mts10000_k50_ec02_g099_lra3e-4_lrc3e-3/3109bb1a4c888d48ff6ee722b945383cff227a99_ligand_9.pdbqt
 14 15 0 0 0
SMALL
GASTEIGER

@<TRIPOS>ATOM
      1  C          6.3930    1.2170    0.9360 C.3     1  UNL1        0.0800
      2  C          5.6670    0.3740    1.9260 C.2     1  UNL1        0.1300
      3  C          6.2670   -0.8670    2.4840 C.3     1  UNL1        0.0870
      4  O          4.5490    0.6800    2.3090 O.2     1  UNL1       -0.3000
      5  C          5.8880    0.9720   -0.4720 C.3     1  UNL1        0.0430
      6  C          6.8190    0.1330   -1.2480 C.2     1  UNL1       -0.0440
      7  C          7.4930    0.6300   -2.3690 C.2     1  UNL1        0.0080
      8  C          7.0410   -1.1710   -0.8680 C.2     1  UNL1        0.0540
      9  C          8.3560   -0.2030   -3.0580 C.2     1  UNL1        0.0510
     10  C          7.9150   -2.0100   -1.5670 C.2     1  UNL1        0.1660
     11  C          8.5770   -1.5220   -2.6710 C.2     1  UNL1        0.1650
     12  O          8.2980   -3.3220   -1.3920 O.2     1  UNL1       -0.4540
     13  O          9.3630   -2.5550   -3.1560 O.2     1  UNL1       -0.4540
     14  C          9.2860   -3.6870   -2.3220 C.3     1  UNL1        0.4680
@<TRIPOS>BOND
     1    13    11    1
     2    13    14    1
     3     9    11    2
     4     9     7    1
     5    11    10    1
     6     7     6    2
     7    14    12    1
     8    10    12    1
     9    10     8    2
    10     6     8    1
    11     6     5    1
    12     5     1    1
    13     1     2    1
    14     2     4    2
    15     2     3    1
