@<TRIPOS>MOLECULE
/home/cewinharhar/GITHUB/reincatalyze/data/processed/docking_pred/2023-May-24-1506_sub9_nm5_bs15_s42_ex16_mel10_mts10000_k50_ec02_g099_lra3e-4_lrc3e-3/3109bb1a4c888d48ff6ee722b945383cff227a99_ligand_9.pdbqt
 14 15 0 0 0
SMALL
GASTEIGER

@<TRIPOS>ATOM
      1  C          5.5260    1.9380    1.2670 C.3     1  UNL1        0.0800
      2  C          5.0970    0.7210    2.0120 C.2     1  UNL1        0.1300
      3  C          6.0030   -0.4440    2.1930 C.3     1  UNL1        0.0870
      4  O          3.9800    0.6460    2.4970 O.2     1  UNL1       -0.3000
      5  C          5.3960    1.7410   -0.2300 C.3     1  UNL1        0.0430
      6  C          6.5640    1.0400   -0.7930 C.2     1  UNL1       -0.0440
      7  C          7.8710    1.4770   -0.5440 C.2     1  UNL1        0.0080
      8  C          6.3780   -0.0720   -1.5810 C.2     1  UNL1        0.0540
      9  C          8.9280    0.7790   -1.0990 C.2     1  UNL1        0.0510
     10  C          7.4510   -0.7750   -2.1390 C.2     1  UNL1        0.1660
     11  C          8.7360   -0.3460   -1.8950 C.2     1  UNL1        0.1650
     12  O          7.5260   -1.8920   -2.9440 O.2     1  UNL1       -0.4540
     13  O          9.5830   -1.2170   -2.5620 O.2     1  UNL1       -0.4540
     14  C          8.8610   -2.2650   -3.1650 C.3     1  UNL1        0.4680
@<TRIPOS>BOND
     1    14    12    1
     2    14    13    1
     3    12    10    1
     4    13    11    1
     5    10    11    2
     6    10     8    1
     7    11     9    1
     8     8     6    2
     9     9     7    2
    10     6     7    1
    11     6     5    1
    12     5     1    1
    13     1     2    1
    14     2     3    1
    15     2     4    2
