@<TRIPOS>MOLECULE
/home/cewinharhar/GITHUB/reincatalyze/data/processed/docking_pred/2023-May-24-1506_sub9_nm5_bs15_s42_ex16_mel10_mts10000_k50_ec02_g099_lra3e-4_lrc3e-3/3110d36e974f17e9d190d2a4a051583463654b40_ligand_9.pdbqt
 14 15 0 0 0
SMALL
GASTEIGER

@<TRIPOS>ATOM
      1  C          5.4390   -0.1030    1.9480 C.3     1  UNL1        0.0800
      2  C          4.6610    1.1360    1.6660 C.2     1  UNL1        0.1300
      3  C          5.0520    2.0730    0.5790 C.3     1  UNL1        0.0870
      4  O          3.6730    1.4190    2.3240 O.2     1  UNL1       -0.3000
      5  C          6.9040    0.0780    1.6070 C.3     1  UNL1        0.0430
      6  C          7.3320   -0.8370    0.5340 C.2     1  UNL1       -0.0440
      7  C          7.2070   -0.4920   -0.8170 C.2     1  UNL1        0.0080
      8  C          7.8720   -2.0610    0.8560 C.2     1  UNL1        0.0540
      9  C          7.6270   -1.3900   -1.7810 C.2     1  UNL1        0.0510
     10  C          8.2960   -2.9660   -0.1220 C.2     1  UNL1        0.1660
     11  C          8.1710   -2.6280   -1.4510 C.2     1  UNL1        0.1650
     12  O          8.8550   -4.2240   -0.0590 O.2     1  UNL1       -0.4540
     13  O          8.6630   -3.6960   -2.1850 O.2     1  UNL1       -0.4540
     14  C          9.1900   -4.6920   -1.3400 C.3     1  UNL1        0.4680
@<TRIPOS>BOND
     1    13    11    1
     2    13    14    1
     3     9    11    2
     4     9     7    1
     5    11    10    1
     6    14    12    1
     7     7     6    2
     8    10    12    1
     9    10     8    2
    10     6     8    1
    11     6     5    1
    12     3     2    1
    13     5     1    1
    14     2     1    1
    15     2     4    2
