MODEL 1
REMARK VINA RESULT:      -7.7      0.000      0.000
REMARK SMILES CC(=O)CCc1ccc2c(c1)OCO2
REMARK SMILES IDX 4 1 2 2 1 3 3 4 5 5 6 6 7 7 11 8 8 9 10 10 9 11 12 12 14 13
REMARK SMILES IDX 13 14
REMARK H PARENT
REMARK Flexibility Score: inf
ROOT
ATOM      1  C   UNL     1       5.509   1.926   1.249  1.00  0.00     0.080 C 
ENDROOT
BRANCH   1   2
ATOM      2  C   UNL     1       5.026   0.727   1.990  1.00  0.00     0.130 C 
ATOM      3  C   UNL     1       5.856  -0.500   2.116  1.00  0.00     0.087 C 
ATOM      4  O   UNL     1       3.925   0.718   2.518  1.00  0.00    -0.300 OA
ENDBRANCH   1   2
BRANCH   1   5
ATOM      5  C   UNL     1       5.390   1.731  -0.249  1.00  0.00     0.043 C 
BRANCH   5   6
ATOM      6  C   UNL     1       6.562   1.030  -0.804  1.00  0.00    -0.044 A 
ATOM      7  C   UNL     1       7.867   1.460  -0.540  1.00  0.00     0.008 A 
ATOM      8  C   UNL     1       6.379  -0.078  -1.600  1.00  0.00     0.054 A 
ATOM      9  C   UNL     1       8.928   0.762  -1.087  1.00  0.00     0.051 A 
ATOM     10  C   UNL     1       7.455  -0.781  -2.151  1.00  0.00     0.166 A 
ATOM     11  C   UNL     1       8.740  -0.358  -1.893  1.00  0.00     0.165 A 
ATOM     12  O   UNL     1       7.534  -1.894  -2.962  1.00  0.00    -0.454 OA
ATOM     13  O   UNL     1       9.590  -1.229  -2.556  1.00  0.00    -0.454 OA
ATOM     14  C   UNL     1       8.871  -2.271  -3.171  1.00  0.00     0.468 C 
ENDBRANCH   5   6
ENDBRANCH   1   5
TORSDOF 3
ENDMDL
MODEL 2
REMARK VINA RESULT:      -7.5      1.903      2.356
REMARK SMILES CC(=O)CCc1ccc2c(c1)OCO2
REMARK SMILES IDX 4 1 2 2 1 3 3 4 5 5 6 6 7 7 11 8 8 9 10 10 9 11 12 12 14 13
REMARK SMILES IDX 13 14
REMARK H PARENT
REMARK Flexibility Score: inf
ROOT
ATOM      1  C   UNL     1       5.716   1.388  -0.310  1.00  0.00     0.080 C 
ENDROOT
BRANCH   1   2
ATOM      2  C   UNL     1       5.136   1.291   1.058  1.00  0.00     0.130 C 
ATOM      3  C   UNL     1       5.456   0.156   1.964  1.00  0.00     0.087 C 
ATOM      4  O   UNL     1       4.374   2.148   1.478  1.00  0.00    -0.300 OA
ENDBRANCH   1   2
BRANCH   1   5
ATOM      5  C   UNL     1       7.216   1.167  -0.289  1.00  0.00     0.043 C 
BRANCH   5   6
ATOM      6  C   UNL     1       7.586  -0.128  -0.885  1.00  0.00    -0.044 A 
ATOM      7  C   UNL     1       7.670  -0.300  -2.272  1.00  0.00     0.008 A 
ATOM      8  C   UNL     1       7.862  -1.202  -0.069  1.00  0.00     0.054 A 
ATOM      9  C   UNL     1       8.023  -1.539  -2.775  1.00  0.00     0.051 A 
ATOM     10  C   UNL     1       8.219  -2.452  -0.582  1.00  0.00     0.166 A 
ATOM     11  C   UNL     1       8.300  -2.622  -1.946  1.00  0.00     0.165 A 
ATOM     12  O   UNL     1       8.535  -3.656   0.011  1.00  0.00    -0.454 OA
ATOM     13  O   UNL     1       8.669  -3.940  -2.165  1.00  0.00    -0.454 OA
ATOM     14  C   UNL     1       8.917  -4.606  -0.950  1.00  0.00     0.468 C 
ENDBRANCH   5   6
ENDBRANCH   1   5
TORSDOF 3
ENDMDL
MODEL 3
REMARK VINA RESULT:      -7.2      2.084      2.611
REMARK SMILES CC(=O)CCc1ccc2c(c1)OCO2
REMARK SMILES IDX 4 1 2 2 1 3 3 4 5 5 6 6 7 7 11 8 8 9 10 10 9 11 12 12 14 13
REMARK SMILES IDX 13 14
REMARK H PARENT
REMARK Flexibility Score: inf
ROOT
ATOM      1  C   UNL     1       5.547   0.018   1.966  1.00  0.00     0.080 C 
ENDROOT
BRANCH   1   2
ATOM      2  C   UNL     1       4.652   1.165   1.649  1.00  0.00     0.130 C 
ATOM      3  C   UNL     1       4.948   2.101   0.532  1.00  0.00     0.087 C 
ATOM      4  O   UNL     1       3.642   1.371   2.303  1.00  0.00    -0.300 OA
ENDBRANCH   1   2
BRANCH   1   5
ATOM      5  C   UNL     1       6.962   0.275   1.485  1.00  0.00     0.043 C 
BRANCH   5   6
ATOM      6  C   UNL     1       7.367  -0.685   0.442  1.00  0.00    -0.044 A 
ATOM      7  C   UNL     1       7.258  -0.377  -0.919  1.00  0.00     0.008 A 
ATOM      8  C   UNL     1       7.868  -1.915   0.804  1.00  0.00     0.054 A 
ATOM      9  C   UNL     1       7.655  -1.317  -1.853  1.00  0.00     0.051 A 
ATOM     10  C   UNL     1       8.268  -2.861  -0.145  1.00  0.00     0.166 A 
ATOM     11  C   UNL     1       8.160  -2.559  -1.484  1.00  0.00     0.165 A 
ATOM     12  O   UNL     1       8.788  -4.133  -0.041  1.00  0.00    -0.454 OA
ATOM     13  O   UNL     1       8.623  -3.664  -2.182  1.00  0.00    -0.454 OA
ATOM     14  C   UNL     1       9.115  -4.649  -1.305  1.00  0.00     0.468 C 
ENDBRANCH   5   6
ENDBRANCH   1   5
TORSDOF 3
ENDMDL
MODEL 4
REMARK VINA RESULT:      -7.1      1.254      1.461
REMARK SMILES CC(=O)CCc1ccc2c(c1)OCO2
REMARK SMILES IDX 4 1 2 2 1 3 3 4 5 5 6 6 7 7 11 8 8 9 10 10 9 11 12 12 14 13
REMARK SMILES IDX 13 14
REMARK H PARENT
REMARK Flexibility Score: inf
ROOT
ATOM      1  C   UNL     1       6.349   1.246   0.867  1.00  0.00     0.080 C 
ENDROOT
BRANCH   1   2
ATOM      2  C   UNL     1       5.661   0.434   1.909  1.00  0.00     0.130 C 
ATOM      3  C   UNL     1       6.279  -0.794   2.476  1.00  0.00     0.087 C 
ATOM      4  O   UNL     1       4.562   0.757   2.330  1.00  0.00    -0.300 OA
ENDBRANCH   1   2
BRANCH   1   5
ATOM      5  C   UNL     1       5.836   0.911  -0.520  1.00  0.00     0.043 C 
BRANCH   5   6
ATOM      6  C   UNL     1       6.803   0.097  -1.278  1.00  0.00    -0.044 A 
ATOM      7  C   UNL     1       7.520   0.628  -2.357  1.00  0.00     0.008 A 
ATOM      8  C   UNL     1       7.016  -1.215  -0.924  1.00  0.00     0.054 A 
ATOM      9  C   UNL     1       8.415  -0.183  -3.031  1.00  0.00     0.051 A 
ATOM     10  C   UNL     1       7.923  -2.031  -1.608  1.00  0.00     0.166 A 
ATOM     11  C   UNL     1       8.627  -1.510  -2.671  1.00  0.00     0.165 A 
ATOM     12  O   UNL     1       8.306  -3.346  -1.453  1.00  0.00    -0.454 OA
ATOM     13  O   UNL     1       9.438  -2.527  -3.151  1.00  0.00    -0.454 OA
ATOM     14  C   UNL     1       9.333  -3.681  -2.351  1.00  0.00     0.468 C 
ENDBRANCH   5   6
ENDBRANCH   1   5
TORSDOF 3
ENDMDL
MODEL 5
REMARK VINA RESULT:      -7.1      1.971      2.536
REMARK SMILES CC(=O)CCc1ccc2c(c1)OCO2
REMARK SMILES IDX 4 1 2 2 1 3 3 4 5 5 6 6 7 7 11 8 8 9 10 10 9 11 12 12 14 13
REMARK SMILES IDX 13 14
REMARK H PARENT
REMARK Flexibility Score: inf
ROOT
ATOM      1  C   UNL     1       6.887   0.902   1.200  1.00  0.00     0.080 C 
ENDROOT
BRANCH   1   2
ATOM      2  C   UNL     1       5.426   1.158   1.343  1.00  0.00     0.130 C 
ATOM      3  C   UNL     1       4.719   2.144   0.484  1.00  0.00     0.087 C 
ATOM      4  O   UNL     1       4.764   0.562   2.177  1.00  0.00    -0.300 OA
ENDBRANCH   1   2
BRANCH   1   5
ATOM      5  C   UNL     1       7.335   1.060  -0.239  1.00  0.00     0.043 C 
BRANCH   5   6
ATOM      6  C   UNL     1       7.696  -0.234  -0.844  1.00  0.00    -0.044 A 
ATOM      7  C   UNL     1       7.806  -0.390  -2.231  1.00  0.00     0.008 A 
ATOM      8  C   UNL     1       7.937  -1.322  -0.035  1.00  0.00     0.054 A 
ATOM      9  C   UNL     1       8.149  -1.629  -2.741  1.00  0.00     0.051 A 
ATOM     10  C   UNL     1       8.284  -2.572  -0.557  1.00  0.00     0.166 A 
ATOM     11  C   UNL     1       8.391  -2.726  -1.921  1.00  0.00     0.165 A 
ATOM     12  O   UNL     1       8.568  -3.788   0.028  1.00  0.00    -0.454 OA
ATOM     13  O   UNL     1       8.743  -4.048  -2.148  1.00  0.00    -0.454 OA
ATOM     14  C   UNL     1       8.954  -4.733  -0.937  1.00  0.00     0.468 C 
ENDBRANCH   5   6
ENDBRANCH   1   5
TORSDOF 3
ENDMDL
