@<TRIPOS>MOLECULE
/home/cewinharhar/GITHUB/reincatalyze/data/processed/docking_pred/2023-May-24-1506_sub9_nm5_bs15_s42_ex16_mel10_mts10000_k50_ec02_g099_lra3e-4_lrc3e-3/31638bda67923b1bb66f4f033a77b51352de91e4_ligand_9.pdbqt
 14 15 0 0 0
SMALL
GASTEIGER

@<TRIPOS>ATOM
      1  C          5.6040    2.1490    1.3780 C.3     1  UNL1        0.0800
      2  C          4.8380    1.0780    2.0730 C.2     1  UNL1        0.1300
      3  C          5.3500   -0.3160    2.1630 C.3     1  UNL1        0.0870
      4  O          3.7590    1.3150    2.5930 O.2     1  UNL1       -0.3000
      5  C          5.4900    2.0180   -0.1280 C.3     1  UNL1        0.0430
      6  C          6.6080    1.2430   -0.6950 C.2     1  UNL1       -0.0440
      7  C          7.9410    1.6060   -0.4690 C.2     1  UNL1        0.0080
      8  C          6.3470    0.1320   -1.4650 C.2     1  UNL1        0.0540
      9  C          8.9480    0.8400   -1.0270 C.2     1  UNL1        0.0510
     10  C          7.3690   -0.6390   -2.0250 C.2     1  UNL1        0.1660
     11  C          8.6810   -0.2820   -1.8050 C.2     1  UNL1        0.1650
     12  O          7.3680   -1.7700   -2.8150 O.2     1  UNL1       -0.4540
     13  O          9.4660   -1.2110   -2.4690 O.2     1  UNL1       -0.4540
     14  C          8.6770   -2.2230   -3.0470 C.3     1  UNL1        0.4680
@<TRIPOS>BOND
     1    14    12    1
     2    14    13    1
     3    12    10    1
     4    13    11    1
     5    10    11    2
     6    10     8    1
     7    11     9    1
     8     8     6    2
     9     9     7    2
    10     6     7    1
    11     6     5    1
    12     5     1    1
    13     1     2    1
    14     2     3    1
    15     2     4    2
