@<TRIPOS>MOLECULE
/home/cewinharhar/GITHUB/reincatalyze/data/processed/docking_pred/2023-May-24-1506_sub9_nm5_bs15_s42_ex16_mel10_mts10000_k50_ec02_g099_lra3e-4_lrc3e-3/31638bda67923b1bb66f4f033a77b51352de91e4_ligand_9.pdbqt
 14 15 0 0 0
SMALL
GASTEIGER

@<TRIPOS>ATOM
      1  C          5.4350    1.3990    0.3350 C.3     1  UNL1        0.0800
      2  C          5.2490    1.2140    1.8010 C.2     1  UNL1        0.1300
      3  C          6.3600    0.7540    2.6770 C.3     1  UNL1        0.0870
      4  O          4.1710    1.4340    2.3290 O.2     1  UNL1       -0.3000
      5  C          6.9040    1.4080   -0.0370 C.3     1  UNL1        0.0430
      6  C          7.2990    0.1710   -0.7340 C.2     1  UNL1       -0.0440
      7  C          7.2590    0.0720   -2.1300 C.2     1  UNL1        0.0080
      8  C          7.7200   -0.9180   -0.0060 C.2     1  UNL1        0.0540
      9  C          7.6420   -1.1140   -2.7290 C.2     1  UNL1        0.0510
     10  C          8.1070   -2.1150   -0.6170 C.2     1  UNL1        0.1660
     11  C          8.0670   -2.2140   -1.9900 C.2     1  UNL1        0.1650
     12  O          8.5560   -3.3210   -0.1210 O.2     1  UNL1       -0.4540
     13  O          8.4980   -3.4910   -2.3120 O.2     1  UNL1       -0.4540
     14  C          8.9040   -4.1960   -1.1630 C.3     1  UNL1        0.4680
@<TRIPOS>BOND
     1     9     7    1
     2     9    11    2
     3    13    11    1
     4    13    14    1
     5     7     6    2
     6    11    10    1
     7    14    12    1
     8     6     5    1
     9     6     8    1
    10    10    12    1
    11    10     8    2
    12     5     1    1
    13     1     2    1
    14     2     4    2
    15     2     3    1
