@<TRIPOS>MOLECULE
/home/cewinharhar/GITHUB/reincatalyze/data/processed/docking_pred/2023-May-24-1506_sub9_nm5_bs15_s42_ex16_mel10_mts10000_k50_ec02_g099_lra3e-4_lrc3e-3/31de0aabf4a391366091aaa04775d5537fef7eaf_ligand_9.pdbqt
 14 15 0 0 0
SMALL
GASTEIGER

@<TRIPOS>ATOM
      1  C          5.7430    1.1920   -0.3580 C.3     1  UNL1        0.0800
      2  C          5.2550    1.1860    1.0500 C.2     1  UNL1        0.1300
      3  C          5.4630    0.0140    1.9430 C.3     1  UNL1        0.0870
      4  O          4.6670    2.1490    1.5140 O.2     1  UNL1       -0.3000
      5  C          7.2500    1.0480   -0.4190 C.3     1  UNL1        0.0430
      6  C          7.6530   -0.2480   -0.9950 C.2     1  UNL1       -0.0440
      7  C          7.7510   -0.4360   -2.3780 C.2     1  UNL1        0.0080
      8  C          7.9440   -1.3040   -0.1610 C.2     1  UNL1        0.0540
      9  C          8.1340   -1.6740   -2.8610 C.2     1  UNL1        0.0510
     10  C          8.3310   -2.5530   -0.6540 C.2     1  UNL1        0.1660
     11  C          8.4270   -2.7400   -2.0150 C.2     1  UNL1        0.1650
     12  O          8.6680   -3.7420   -0.0420 O.2     1  UNL1       -0.4540
     13  O          8.8250   -4.0530   -2.2130 O.2     1  UNL1       -0.4540
     14  C          9.0770   -4.6970   -0.9870 C.3     1  UNL1        0.4680
@<TRIPOS>BOND
     1     9     7    1
     2     9    11    2
     3     7     6    2
     4    13    11    1
     5    13    14    1
     6    11    10    1
     7     6     5    1
     8     6     8    1
     9    14    12    1
    10    10     8    2
    11    10    12    1
    12     5     1    1
    13     1     2    1
    14     2     4    2
    15     2     3    1
