@<TRIPOS>MOLECULE
/home/cewinharhar/GITHUB/reincatalyze/data/processed/docking_pred/2023-May-24-1506_sub9_nm5_bs15_s42_ex16_mel10_mts10000_k50_ec02_g099_lra3e-4_lrc3e-3/31de0aabf4a391366091aaa04775d5537fef7eaf_ligand_9.pdbqt
 14 15 0 0 0
SMALL
GASTEIGER

@<TRIPOS>ATOM
      1  C          5.5480    1.8900    1.2910 C.3     1  UNL1        0.0800
      2  C          5.1050    0.6680    2.0190 C.2     1  UNL1        0.1300
      3  C          5.9970   -0.5120    2.1790 C.3     1  UNL1        0.0870
      4  O          3.9890    0.5990    2.5080 O.2     1  UNL1       -0.3000
      5  C          5.4130    1.7170   -0.2080 C.3     1  UNL1        0.0430
      6  C          6.5760    1.0210   -0.7860 C.2     1  UNL1       -0.0440
      7  C          7.8840    1.4610   -0.5520 C.2     1  UNL1        0.0080
      8  C          6.3850   -0.0920   -1.5730 C.2     1  UNL1        0.0540
      9  C          8.9370    0.7680   -1.1190 C.2     1  UNL1        0.0510
     10  C          7.4530   -0.7900   -2.1440 C.2     1  UNL1        0.1660
     11  C          8.7400   -0.3570   -1.9150 C.2     1  UNL1        0.1650
     12  O          7.5220   -1.9060   -2.9510 O.2     1  UNL1       -0.4540
     13  O          9.5820   -1.2240   -2.5930 O.2     1  UNL1       -0.4540
     14  C          8.8570   -2.2740   -3.1880 C.3     1  UNL1        0.4680
@<TRIPOS>BOND
     1    14    12    1
     2    14    13    1
     3    12    10    1
     4    13    11    1
     5    10    11    2
     6    10     8    1
     7    11     9    1
     8     8     6    2
     9     9     7    2
    10     6     7    1
    11     6     5    1
    12     5     1    1
    13     1     2    1
    14     2     3    1
    15     2     4    2
