@<TRIPOS>MOLECULE
/home/cewinharhar/GITHUB/reincatalyze/data/processed/docking_pred/2023-May-24-1506_sub9_nm5_bs15_s42_ex16_mel10_mts10000_k50_ec02_g099_lra3e-4_lrc3e-3/32925d028e6f827171d23f19599134de0355568e_ligand_9.pdbqt
 14 15 0 0 0
SMALL
GASTEIGER

@<TRIPOS>ATOM
      1  C          5.5420    1.9130    1.2750 C.3     1  UNL1        0.0800
      2  C          5.1170    0.6920    2.0150 C.2     1  UNL1        0.1300
      3  C          6.0250   -0.4740    2.1830 C.3     1  UNL1        0.0870
      4  O          4.0040    0.6130    2.5080 O.2     1  UNL1       -0.3000
      5  C          5.4100    1.7230   -0.2230 C.3     1  UNL1        0.0430
      6  C          6.5770    1.0210   -0.7890 C.2     1  UNL1       -0.0440
      7  C          7.8840    1.4500   -0.5340 C.2     1  UNL1        0.0080
      8  C          6.3870   -0.0840   -1.5860 C.2     1  UNL1        0.0540
      9  C          8.9400    0.7510   -1.0910 C.2     1  UNL1        0.0510
     10  C          7.4570   -0.7870   -2.1470 C.2     1  UNL1        0.1660
     11  C          8.7440   -0.3660   -1.8980 C.2     1  UNL1        0.1650
     12  O          7.5290   -1.8980   -2.9610 O.2     1  UNL1       -0.4540
     13  O          9.5880   -1.2360   -2.5700 O.2     1  UNL1       -0.4540
     14  C          8.8630   -2.2760   -3.1820 C.3     1  UNL1        0.4680
@<TRIPOS>BOND
     1    14    12    1
     2    14    13    1
     3    12    10    1
     4    13    11    1
     5    10    11    2
     6    10     8    1
     7    11     9    1
     8     8     6    2
     9     9     7    2
    10     6     7    1
    11     6     5    1
    12     5     1    1
    13     1     2    1
    14     2     3    1
    15     2     4    2
