@<TRIPOS>MOLECULE
/home/cewinharhar/GITHUB/reincatalyze/data/processed/docking_pred/2023-May-24-1506_sub9_nm5_bs15_s42_ex16_mel10_mts10000_k50_ec02_g099_lra3e-4_lrc3e-3/32925d028e6f827171d23f19599134de0355568e_ligand_9.pdbqt
 14 15 0 0 0
SMALL
GASTEIGER

@<TRIPOS>ATOM
      1  C          6.8250    0.7760    1.3830 C.3     1  UNL1        0.0800
      2  C          5.3750    1.0920    1.5100 C.2     1  UNL1        0.1300
      3  C          4.7310    2.1470    0.6840 C.3     1  UNL1        0.0870
      4  O          4.6700    0.4880    2.3020 O.2     1  UNL1       -0.3000
      5  C          7.3130    0.9880   -0.0370 C.3     1  UNL1        0.0430
      6  C          7.6580   -0.2870   -0.6920 C.2     1  UNL1       -0.0440
      7  C          7.6870   -0.4110   -2.0860 C.2     1  UNL1        0.0080
      8  C          7.9630   -1.3880    0.0760 C.2     1  UNL1        0.0540
      9  C          8.0190   -1.6320   -2.6440 C.2     1  UNL1        0.0510
     10  C          8.2990   -2.6200   -0.4930 C.2     1  UNL1        0.1660
     11  C          8.3260   -2.7430   -1.8650 C.2     1  UNL1        0.1650
     12  O          8.6360   -3.8430    0.0450 O.2     1  UNL1       -0.4540
     13  O          8.6850   -4.0520   -2.1430 O.2     1  UNL1       -0.4540
     14  C          8.9790   -4.7600   -0.9620 C.3     1  UNL1        0.4680
@<TRIPOS>BOND
     1     9     7    1
     2     9    11    2
     3    13    11    1
     4    13    14    1
     5     7     6    2
     6    11    10    1
     7    14    12    1
     8     6     5    1
     9     6     8    1
    10    10    12    1
    11    10     8    2
    12     5     1    1
    13     3     2    1
    14     1     2    1
    15     2     4    2
