@<TRIPOS>MOLECULE
/home/cewinharhar/GITHUB/reincatalyze/data/processed/docking_pred/2023-May-24-1506_sub9_nm5_bs15_s42_ex16_mel10_mts10000_k50_ec02_g099_lra3e-4_lrc3e-3/32925d028e6f827171d23f19599134de0355568e_ligand_9.pdbqt
 14 15 0 0 0
SMALL
GASTEIGER

@<TRIPOS>ATOM
      1  C          5.4560   -0.0470    1.9900 C.3     1  UNL1        0.0800
      2  C          4.6000    1.1480    1.7440 C.2     1  UNL1        0.1300
      3  C          4.9210    2.1300    0.6750 C.3     1  UNL1        0.0870
      4  O          3.6050    1.3560    2.4190 O.2     1  UNL1       -0.3000
      5  C          6.8860    0.2000    1.5520 C.3     1  UNL1        0.0430
      6  C          7.3050   -0.7420    0.5000 C.2     1  UNL1       -0.0440
      7  C          7.1520   -0.4400   -0.8580 C.2     1  UNL1        0.0080
      8  C          7.8650   -1.9500    0.8490 C.2     1  UNL1        0.0540
      9  C          7.5650   -1.3620   -1.8020 C.2     1  UNL1        0.0510
     10  C          8.2820   -2.8790   -0.1090 C.2     1  UNL1        0.1660
     11  C          8.1300   -2.5830   -1.4450 C.2     1  UNL1        0.1650
     12  O          8.8570   -4.1290   -0.0180 O.2     1  UNL1       -0.4540
     13  O          8.6210   -3.6680   -2.1550 O.2     1  UNL1       -0.4540
     14  C          9.1750   -4.6310   -1.2910 C.3     1  UNL1        0.4680
@<TRIPOS>BOND
     1    13    11    1
     2    13    14    1
     3     9    11    2
     4     9     7    1
     5    11    10    1
     6    14    12    1
     7     7     6    2
     8    10    12    1
     9    10     8    2
    10     6     8    1
    11     6     5    1
    12     3     2    1
    13     5     1    1
    14     2     1    1
    15     2     4    2
