MODEL 1
REMARK VINA RESULT:      -7.7      0.000      0.000
REMARK SMILES CC(=O)CCc1ccc2c(c1)OCO2
REMARK SMILES IDX 4 1 2 2 1 3 3 4 5 5 6 6 7 7 11 8 8 9 10 10 9 11 12 12 14 13
REMARK SMILES IDX 13 14
REMARK H PARENT
REMARK Flexibility Score: inf
ROOT
ATOM      1  C   UNL     1       5.542   1.913   1.275  1.00  0.00     0.080 C 
ENDROOT
BRANCH   1   2
ATOM      2  C   UNL     1       5.117   0.692   2.015  1.00  0.00     0.130 C 
ATOM      3  C   UNL     1       6.025  -0.474   2.183  1.00  0.00     0.087 C 
ATOM      4  O   UNL     1       4.004   0.613   2.508  1.00  0.00    -0.300 OA
ENDBRANCH   1   2
BRANCH   1   5
ATOM      5  C   UNL     1       5.410   1.723  -0.223  1.00  0.00     0.043 C 
BRANCH   5   6
ATOM      6  C   UNL     1       6.577   1.021  -0.789  1.00  0.00    -0.044 A 
ATOM      7  C   UNL     1       7.884   1.450  -0.534  1.00  0.00     0.008 A 
ATOM      8  C   UNL     1       6.387  -0.084  -1.586  1.00  0.00     0.054 A 
ATOM      9  C   UNL     1       8.940   0.751  -1.091  1.00  0.00     0.051 A 
ATOM     10  C   UNL     1       7.457  -0.787  -2.147  1.00  0.00     0.166 A 
ATOM     11  C   UNL     1       8.744  -0.366  -1.898  1.00  0.00     0.165 A 
ATOM     12  O   UNL     1       7.529  -1.898  -2.961  1.00  0.00    -0.454 OA
ATOM     13  O   UNL     1       9.588  -1.236  -2.570  1.00  0.00    -0.454 OA
ATOM     14  C   UNL     1       8.863  -2.276  -3.182  1.00  0.00     0.468 C 
ENDBRANCH   5   6
ENDBRANCH   1   5
TORSDOF 3
ENDMDL
MODEL 2
REMARK VINA RESULT:      -7.4      1.980      2.477
REMARK SMILES CC(=O)CCc1ccc2c(c1)OCO2
REMARK SMILES IDX 4 1 2 2 1 3 3 4 5 5 6 6 7 7 11 8 8 9 10 10 9 11 12 12 14 13
REMARK SMILES IDX 13 14
REMARK H PARENT
REMARK Flexibility Score: inf
ROOT
ATOM      1  C   UNL     1       5.744   1.150  -0.309  1.00  0.00     0.080 C 
ENDROOT
BRANCH   1   2
ATOM      2  C   UNL     1       5.236   1.160   1.092  1.00  0.00     0.130 C 
ATOM      3  C   UNL     1       5.366  -0.028   1.978  1.00  0.00     0.087 C 
ATOM      4  O   UNL     1       4.693   2.150   1.554  1.00  0.00    -0.300 OA
ENDBRANCH   1   2
BRANCH   1   5
ATOM      5  C   UNL     1       7.250   0.981  -0.346  1.00  0.00     0.043 C 
BRANCH   5   6
ATOM      6  C   UNL     1       7.640  -0.317  -0.924  1.00  0.00    -0.044 A 
ATOM      7  C   UNL     1       7.711  -0.513  -2.308  1.00  0.00     0.008 A 
ATOM      8  C   UNL     1       7.946  -1.370  -0.091  1.00  0.00     0.054 A 
ATOM      9  C   UNL     1       8.084  -1.753  -2.792  1.00  0.00     0.051 A 
ATOM     10  C   UNL     1       8.323  -2.622  -0.586  1.00  0.00     0.166 A 
ATOM     11  C   UNL     1       8.392  -2.815  -1.948  1.00  0.00     0.165 A 
ATOM     12  O   UNL     1       8.670  -3.808   0.025  1.00  0.00    -0.454 OA
ATOM     13  O   UNL     1       8.785  -4.129  -2.147  1.00  0.00    -0.454 OA
ATOM     14  C   UNL     1       9.060  -4.768  -0.923  1.00  0.00     0.468 C 
ENDBRANCH   5   6
ENDBRANCH   1   5
TORSDOF 3
ENDMDL
MODEL 3
REMARK VINA RESULT:      -7.2      2.074      2.644
REMARK SMILES CC(=O)CCc1ccc2c(c1)OCO2
REMARK SMILES IDX 4 1 2 2 1 3 3 4 5 5 6 6 7 7 11 8 8 9 10 10 9 11 12 12 14 13
REMARK SMILES IDX 13 14
REMARK H PARENT
REMARK Flexibility Score: inf
ROOT
ATOM      1  C   UNL     1       5.456  -0.047   1.990  1.00  0.00     0.080 C 
ENDROOT
BRANCH   1   2
ATOM      2  C   UNL     1       4.600   1.148   1.744  1.00  0.00     0.130 C 
ATOM      3  C   UNL     1       4.921   2.130   0.675  1.00  0.00     0.087 C 
ATOM      4  O   UNL     1       3.605   1.356   2.419  1.00  0.00    -0.300 OA
ENDBRANCH   1   2
BRANCH   1   5
ATOM      5  C   UNL     1       6.886   0.200   1.552  1.00  0.00     0.043 C 
BRANCH   5   6
ATOM      6  C   UNL     1       7.305  -0.742   0.500  1.00  0.00    -0.044 A 
ATOM      7  C   UNL     1       7.152  -0.440  -0.858  1.00  0.00     0.008 A 
ATOM      8  C   UNL     1       7.865  -1.950   0.849  1.00  0.00     0.054 A 
ATOM      9  C   UNL     1       7.565  -1.362  -1.802  1.00  0.00     0.051 A 
ATOM     10  C   UNL     1       8.282  -2.879  -0.109  1.00  0.00     0.166 A 
ATOM     11  C   UNL     1       8.130  -2.583  -1.445  1.00  0.00     0.165 A 
ATOM     12  O   UNL     1       8.857  -4.129  -0.018  1.00  0.00    -0.454 OA
ATOM     13  O   UNL     1       8.621  -3.668  -2.155  1.00  0.00    -0.454 OA
ATOM     14  C   UNL     1       9.175  -4.631  -1.291  1.00  0.00     0.468 C 
ENDBRANCH   5   6
ENDBRANCH   1   5
TORSDOF 3
ENDMDL
MODEL 4
REMARK VINA RESULT:      -7.1      1.244      1.447
REMARK SMILES CC(=O)CCc1ccc2c(c1)OCO2
REMARK SMILES IDX 4 1 2 2 1 3 3 4 5 5 6 6 7 7 11 8 8 9 10 10 9 11 12 12 14 13
REMARK SMILES IDX 13 14
REMARK H PARENT
REMARK Flexibility Score: inf
ROOT
ATOM      1  C   UNL     1       6.354   1.235   0.889  1.00  0.00     0.080 C 
ENDROOT
BRANCH   1   2
ATOM      2  C   UNL     1       5.662   0.411   1.919  1.00  0.00     0.130 C 
ATOM      3  C   UNL     1       6.288  -0.809   2.493  1.00  0.00     0.087 C 
ATOM      4  O   UNL     1       4.552   0.717   2.324  1.00  0.00    -0.300 OA
ENDBRANCH   1   2
BRANCH   1   5
ATOM      5  C   UNL     1       5.839   0.924  -0.502  1.00  0.00     0.043 C 
BRANCH   5   6
ATOM      6  C   UNL     1       6.797   0.109  -1.270  1.00  0.00    -0.044 A 
ATOM      7  C   UNL     1       7.496   0.634  -2.363  1.00  0.00     0.008 A 
ATOM      8  C   UNL     1       7.020  -1.201  -0.910  1.00  0.00     0.054 A 
ATOM      9  C   UNL     1       8.383  -0.178  -3.045  1.00  0.00     0.051 A 
ATOM     10  C   UNL     1       7.919  -2.018  -1.603  1.00  0.00     0.166 A 
ATOM     11  C   UNL     1       8.606  -1.502  -2.680  1.00  0.00     0.165 A 
ATOM     12  O   UNL     1       8.309  -3.331  -1.445  1.00  0.00    -0.454 OA
ATOM     13  O   UNL     1       9.412  -2.519  -3.165  1.00  0.00    -0.454 OA
ATOM     14  C   UNL     1       9.323  -3.668  -2.356  1.00  0.00     0.468 C 
ENDBRANCH   5   6
ENDBRANCH   1   5
TORSDOF 3
ENDMDL
MODEL 5
REMARK VINA RESULT:      -7.0      1.999      2.540
REMARK SMILES CC(=O)CCc1ccc2c(c1)OCO2
REMARK SMILES IDX 4 1 2 2 1 3 3 4 5 5 6 6 7 7 11 8 8 9 10 10 9 11 12 12 14 13
REMARK SMILES IDX 13 14
REMARK H PARENT
REMARK Flexibility Score: inf
ROOT
ATOM      1  C   UNL     1       6.825   0.776   1.383  1.00  0.00     0.080 C 
ENDROOT
BRANCH   1   2
ATOM      2  C   UNL     1       5.375   1.092   1.510  1.00  0.00     0.130 C 
ATOM      3  C   UNL     1       4.731   2.147   0.684  1.00  0.00     0.087 C 
ATOM      4  O   UNL     1       4.670   0.488   2.302  1.00  0.00    -0.300 OA
ENDBRANCH   1   2
BRANCH   1   5
ATOM      5  C   UNL     1       7.313   0.988  -0.037  1.00  0.00     0.043 C 
BRANCH   5   6
ATOM      6  C   UNL     1       7.658  -0.287  -0.692  1.00  0.00    -0.044 A 
ATOM      7  C   UNL     1       7.687  -0.411  -2.086  1.00  0.00     0.008 A 
ATOM      8  C   UNL     1       7.963  -1.388   0.076  1.00  0.00     0.054 A 
ATOM      9  C   UNL     1       8.019  -1.632  -2.644  1.00  0.00     0.051 A 
ATOM     10  C   UNL     1       8.299  -2.620  -0.493  1.00  0.00     0.166 A 
ATOM     11  C   UNL     1       8.326  -2.743  -1.865  1.00  0.00     0.165 A 
ATOM     12  O   UNL     1       8.636  -3.843   0.045  1.00  0.00    -0.454 OA
ATOM     13  O   UNL     1       8.685  -4.052  -2.143  1.00  0.00    -0.454 OA
ATOM     14  C   UNL     1       8.979  -4.760  -0.962  1.00  0.00     0.468 C 
ENDBRANCH   5   6
ENDBRANCH   1   5
TORSDOF 3
ENDMDL
