@<TRIPOS>MOLECULE
/home/cewinharhar/GITHUB/reincatalyze/data/processed/docking_pred/2023-May-24-1506_sub9_nm5_bs15_s42_ex16_mel10_mts10000_k50_ec02_g099_lra3e-4_lrc3e-3/32925d028e6f827171d23f19599134de0355568e_ligand_9.pdbqt
 14 15 0 0 0
SMALL
GASTEIGER

@<TRIPOS>ATOM
      1  C          5.7440    1.1500   -0.3090 C.3     1  UNL1        0.0800
      2  C          5.2360    1.1600    1.0920 C.2     1  UNL1        0.1300
      3  C          5.3660   -0.0280    1.9780 C.3     1  UNL1        0.0870
      4  O          4.6930    2.1500    1.5540 O.2     1  UNL1       -0.3000
      5  C          7.2500    0.9810   -0.3460 C.3     1  UNL1        0.0430
      6  C          7.6400   -0.3170   -0.9240 C.2     1  UNL1       -0.0440
      7  C          7.7110   -0.5130   -2.3080 C.2     1  UNL1        0.0080
      8  C          7.9460   -1.3700   -0.0910 C.2     1  UNL1        0.0540
      9  C          8.0840   -1.7530   -2.7920 C.2     1  UNL1        0.0510
     10  C          8.3230   -2.6220   -0.5860 C.2     1  UNL1        0.1660
     11  C          8.3920   -2.8150   -1.9480 C.2     1  UNL1        0.1650
     12  O          8.6700   -3.8080    0.0250 O.2     1  UNL1       -0.4540
     13  O          8.7850   -4.1290   -2.1470 O.2     1  UNL1       -0.4540
     14  C          9.0600   -4.7680   -0.9230 C.3     1  UNL1        0.4680
@<TRIPOS>BOND
     1     9     7    1
     2     9    11    2
     3     7     6    2
     4    13    11    1
     5    13    14    1
     6    11    10    1
     7     6     5    1
     8     6     8    1
     9    14    12    1
    10    10     8    2
    11    10    12    1
    12     5     1    1
    13     1     2    1
    14     2     4    2
    15     2     3    1
