@<TRIPOS>MOLECULE
/home/cewinharhar/GITHUB/reincatalyze/data/processed/docking_pred/2023-May-24-1506_sub9_nm5_bs15_s42_ex16_mel10_mts10000_k50_ec02_g099_lra3e-4_lrc3e-3/367438b83e07ec58543242b49c62b5ced391bd04_ligand_9.pdbqt
 14 15 0 0 0
SMALL
GASTEIGER

@<TRIPOS>ATOM
      1  C          5.5080    1.9020    1.2860 C.3     1  UNL1        0.0800
      2  C          5.0550    0.6720    1.9960 C.2     1  UNL1        0.1300
      3  C          5.9410   -0.5120    2.1490 C.3     1  UNL1        0.0870
      4  O          3.9350    0.6020    2.4740 O.2     1  UNL1       -0.3000
      5  C          5.3940    1.7430   -0.2170 C.3     1  UNL1        0.0430
      6  C          6.5560    1.0350   -0.7810 C.2     1  UNL1       -0.0440
      7  C          7.8670    1.4520   -0.5210 C.2     1  UNL1        0.0080
      8  C          6.3600   -0.0660   -1.5840 C.2     1  UNL1        0.0540
      9  C          8.9180    0.7480   -1.0780 C.2     1  UNL1        0.0510
     10  C          7.4270   -0.7760   -2.1430 C.2     1  UNL1        0.1660
     11  C          8.7170   -0.3650   -1.8890 C.2     1  UNL1        0.1650
     12  O          7.4930   -1.8840   -2.9610 O.2     1  UNL1       -0.4540
     13  O          9.5560   -1.2390   -2.5610 O.2     1  UNL1       -0.4540
     14  C          8.8250   -2.2710   -3.1800 C.3     1  UNL1        0.4680
@<TRIPOS>BOND
     1    14    12    1
     2    14    13    1
     3    12    10    1
     4    13    11    1
     5    10    11    2
     6    10     8    1
     7    11     9    1
     8     8     6    2
     9     9     7    2
    10     6     7    1
    11     6     5    1
    12     5     1    1
    13     1     2    1
    14     2     3    1
    15     2     4    2
