MODEL 1
REMARK VINA RESULT:      -7.6      0.000      0.000
REMARK SMILES CC(=O)CCc1ccc2c(c1)OCO2
REMARK SMILES IDX 4 1 2 2 1 3 3 4 5 5 6 6 7 7 11 8 8 9 10 10 9 11 12 12 14 13
REMARK SMILES IDX 13 14
REMARK H PARENT
REMARK Flexibility Score: inf
ROOT
ATOM      1  C   UNL     1       5.508   1.902   1.286  1.00  0.00     0.080 C 
ENDROOT
BRANCH   1   2
ATOM      2  C   UNL     1       5.055   0.672   1.996  1.00  0.00     0.130 C 
ATOM      3  C   UNL     1       5.941  -0.512   2.149  1.00  0.00     0.087 C 
ATOM      4  O   UNL     1       3.935   0.602   2.474  1.00  0.00    -0.300 OA
ENDBRANCH   1   2
BRANCH   1   5
ATOM      5  C   UNL     1       5.394   1.743  -0.217  1.00  0.00     0.043 C 
BRANCH   5   6
ATOM      6  C   UNL     1       6.556   1.035  -0.781  1.00  0.00    -0.044 A 
ATOM      7  C   UNL     1       7.867   1.452  -0.521  1.00  0.00     0.008 A 
ATOM      8  C   UNL     1       6.360  -0.066  -1.584  1.00  0.00     0.054 A 
ATOM      9  C   UNL     1       8.918   0.748  -1.078  1.00  0.00     0.051 A 
ATOM     10  C   UNL     1       7.427  -0.776  -2.143  1.00  0.00     0.166 A 
ATOM     11  C   UNL     1       8.717  -0.365  -1.889  1.00  0.00     0.165 A 
ATOM     12  O   UNL     1       7.493  -1.884  -2.961  1.00  0.00    -0.454 OA
ATOM     13  O   UNL     1       9.556  -1.239  -2.561  1.00  0.00    -0.454 OA
ATOM     14  C   UNL     1       8.825  -2.271  -3.180  1.00  0.00     0.468 C 
ENDBRANCH   5   6
ENDBRANCH   1   5
TORSDOF 3
ENDMDL
MODEL 2
REMARK VINA RESULT:      -7.4      1.937      2.354
REMARK SMILES CC(=O)CCc1ccc2c(c1)OCO2
REMARK SMILES IDX 4 1 2 2 1 3 3 4 5 5 6 6 7 7 11 8 8 9 10 10 9 11 12 12 14 13
REMARK SMILES IDX 13 14
REMARK H PARENT
REMARK Flexibility Score: inf
ROOT
ATOM      1  C   UNL     1       5.712   1.380  -0.192  1.00  0.00     0.080 C 
ENDROOT
BRANCH   1   2
ATOM      2  C   UNL     1       5.019   1.221   1.117  1.00  0.00     0.130 C 
ATOM      3  C   UNL     1       5.286   0.059   2.006  1.00  0.00     0.087 C 
ATOM      4  O   UNL     1       4.205   2.046   1.499  1.00  0.00    -0.300 OA
ENDBRANCH   1   2
BRANCH   1   5
ATOM      5  C   UNL     1       7.197   1.101  -0.066  1.00  0.00     0.043 C 
BRANCH   5   6
ATOM      6  C   UNL     1       7.571  -0.167  -0.718  1.00  0.00    -0.044 A 
ATOM      7  C   UNL     1       7.620  -0.289  -2.111  1.00  0.00     0.008 A 
ATOM      8  C   UNL     1       7.885  -1.264   0.053  1.00  0.00     0.054 A 
ATOM      9  C   UNL     1       7.979  -1.503  -2.667  1.00  0.00     0.051 A 
ATOM     10  C   UNL     1       8.249  -2.489  -0.514  1.00  0.00     0.166 A 
ATOM     11  C   UNL     1       8.295  -2.610  -1.885  1.00  0.00     0.165 A 
ATOM     12  O   UNL     1       8.599  -3.707   0.028  1.00  0.00    -0.454 OA
ATOM     13  O   UNL     1       8.679  -3.913  -2.159  1.00  0.00    -0.454 OA
ATOM     14  C   UNL     1       8.970  -4.617  -0.976  1.00  0.00     0.468 C 
ENDBRANCH   5   6
ENDBRANCH   1   5
TORSDOF 3
ENDMDL
MODEL 3
REMARK VINA RESULT:      -7.3      2.075      2.632
REMARK SMILES CC(=O)CCc1ccc2c(c1)OCO2
REMARK SMILES IDX 4 1 2 2 1 3 3 4 5 5 6 6 7 7 11 8 8 9 10 10 9 11 12 12 14 13
REMARK SMILES IDX 13 14
REMARK H PARENT
REMARK Flexibility Score: inf
ROOT
ATOM      1  C   UNL     1       5.420  -0.055   2.010  1.00  0.00     0.080 C 
ENDROOT
BRANCH   1   2
ATOM      2  C   UNL     1       4.527   1.108   1.746  1.00  0.00     0.130 C 
ATOM      3  C   UNL     1       4.821   2.088   0.667  1.00  0.00     0.087 C 
ATOM      4  O   UNL     1       3.523   1.291   2.414  1.00  0.00    -0.300 OA
ENDBRANCH   1   2
BRANCH   1   5
ATOM      5  C   UNL     1       6.838   0.225   1.554  1.00  0.00     0.043 C 
BRANCH   5   6
ATOM      6  C   UNL     1       7.271  -0.717   0.506  1.00  0.00    -0.044 A 
ATOM      7  C   UNL     1       7.149  -0.407  -0.854  1.00  0.00     0.008 A 
ATOM      8  C   UNL     1       7.811  -1.932   0.861  1.00  0.00     0.054 A 
ATOM      9  C   UNL     1       7.573  -1.329  -1.793  1.00  0.00     0.051 A 
ATOM     10  C   UNL     1       8.238  -2.861  -0.093  1.00  0.00     0.166 A 
ATOM     11  C   UNL     1       8.118  -2.557  -1.430  1.00  0.00     0.165 A 
ATOM     12  O   UNL     1       8.799  -4.117   0.004  1.00  0.00    -0.454 OA
ATOM     13  O   UNL     1       8.613  -3.643  -2.134  1.00  0.00    -0.454 OA
ATOM     14  C   UNL     1       9.138  -4.617  -1.263  1.00  0.00     0.468 C 
ENDBRANCH   5   6
ENDBRANCH   1   5
TORSDOF 3
ENDMDL
MODEL 4
REMARK VINA RESULT:      -7.0      1.265      1.486
REMARK SMILES CC(=O)CCc1ccc2c(c1)OCO2
REMARK SMILES IDX 4 1 2 2 1 3 3 4 5 5 6 6 7 7 11 8 8 9 10 10 9 11 12 12 14 13
REMARK SMILES IDX 13 14
REMARK H PARENT
REMARK Flexibility Score: inf
ROOT
ATOM      1  C   UNL     1       6.376   1.187   0.933  1.00  0.00     0.080 C 
ENDROOT
BRANCH   1   2
ATOM      2  C   UNL     1       5.642   0.372   1.940  1.00  0.00     0.130 C 
ATOM      3  C   UNL     1       6.247  -0.841   2.554  1.00  0.00     0.087 C 
ATOM      4  O   UNL     1       4.515   0.678   2.293  1.00  0.00    -0.300 OA
ENDBRANCH   1   2
BRANCH   1   5
ATOM      5  C   UNL     1       5.872   0.912  -0.470  1.00  0.00     0.043 C 
BRANCH   5   6
ATOM      6  C   UNL     1       6.821   0.088  -1.240  1.00  0.00    -0.044 A 
ATOM      7  C   UNL     1       7.505   0.600  -2.349  1.00  0.00     0.008 A 
ATOM      8  C   UNL     1       7.049  -1.217  -0.868  1.00  0.00     0.054 A 
ATOM      9  C   UNL     1       8.384  -0.220  -3.032  1.00  0.00     0.051 A 
ATOM     10  C   UNL     1       7.940  -2.042  -1.562  1.00  0.00     0.166 A 
ATOM     11  C   UNL     1       8.612  -1.539  -2.653  1.00  0.00     0.165 A 
ATOM     12  O   UNL     1       8.333  -3.352  -1.393  1.00  0.00    -0.454 OA
ATOM     13  O   UNL     1       9.413  -2.562  -3.137  1.00  0.00    -0.454 OA
ATOM     14  C   UNL     1       9.335  -3.701  -2.313  1.00  0.00     0.468 C 
ENDBRANCH   5   6
ENDBRANCH   1   5
TORSDOF 3
ENDMDL
MODEL 5
REMARK VINA RESULT:      -6.9      1.251      1.750
REMARK SMILES CC(=O)CCc1ccc2c(c1)OCO2
REMARK SMILES IDX 4 1 2 2 1 3 3 4 5 5 6 6 7 7 11 8 8 9 10 10 9 11 12 12 14 13
REMARK SMILES IDX 13 14
REMARK H PARENT
REMARK Flexibility Score: inf
ROOT
ATOM      1  C   UNL     1       5.276  -0.113   1.958  1.00  0.00     0.080 C 
ENDROOT
BRANCH   1   2
ATOM      2  C   UNL     1       4.425   1.093   1.758  1.00  0.00     0.130 C 
ATOM      3  C   UNL     1       4.704   2.073   0.674  1.00  0.00     0.087 C 
ATOM      4  O   UNL     1       3.469   1.312   2.482  1.00  0.00    -0.300 OA
ENDBRANCH   1   2
BRANCH   1   5
ATOM      5  C   UNL     1       6.750   0.243   1.937  1.00  0.00     0.043 C 
BRANCH   5   6
ATOM      6  C   UNL     1       7.369  -0.071   0.637  1.00  0.00    -0.044 A 
ATOM      7  C   UNL     1       7.878   0.934  -0.194  1.00  0.00     0.008 A 
ATOM      8  C   UNL     1       7.456  -1.380   0.221  1.00  0.00     0.054 A 
ATOM      9  C   UNL     1       8.449   0.579  -1.403  1.00  0.00     0.051 A 
ATOM     10  C   UNL     1       8.034  -1.733  -1.002  1.00  0.00     0.166 A 
ATOM     11  C   UNL     1       8.534  -0.745  -1.821  1.00  0.00     0.165 A 
ATOM     12  O   UNL     1       8.236  -2.943  -1.632  1.00  0.00    -0.454 OA
ATOM     13  O   UNL     1       9.039  -1.375  -2.947  1.00  0.00    -0.454 OA
ATOM     14  C   UNL     1       8.953  -2.775  -2.828  1.00  0.00     0.468 C 
ENDBRANCH   5   6
ENDBRANCH   1   5
TORSDOF 3
ENDMDL
