@<TRIPOS>MOLECULE
/home/cewinharhar/GITHUB/reincatalyze/data/processed/docking_pred/2023-May-24-1506_sub9_nm5_bs15_s42_ex16_mel10_mts10000_k50_ec02_g099_lra3e-4_lrc3e-3/367438b83e07ec58543242b49c62b5ced391bd04_ligand_9.pdbqt
 14 15 0 0 0
SMALL
GASTEIGER

@<TRIPOS>ATOM
      1  C          5.4200   -0.0550    2.0100 C.3     1  UNL1        0.0800
      2  C          4.5270    1.1080    1.7460 C.2     1  UNL1        0.1300
      3  C          4.8210    2.0880    0.6670 C.3     1  UNL1        0.0870
      4  O          3.5230    1.2910    2.4140 O.2     1  UNL1       -0.3000
      5  C          6.8380    0.2250    1.5540 C.3     1  UNL1        0.0430
      6  C          7.2710   -0.7170    0.5060 C.2     1  UNL1       -0.0440
      7  C          7.1490   -0.4070   -0.8540 C.2     1  UNL1        0.0080
      8  C          7.8110   -1.9320    0.8610 C.2     1  UNL1        0.0540
      9  C          7.5730   -1.3290   -1.7930 C.2     1  UNL1        0.0510
     10  C          8.2380   -2.8610   -0.0930 C.2     1  UNL1        0.1660
     11  C          8.1180   -2.5570   -1.4300 C.2     1  UNL1        0.1650
     12  O          8.7990   -4.1170    0.0040 O.2     1  UNL1       -0.4540
     13  O          8.6130   -3.6430   -2.1340 O.2     1  UNL1       -0.4540
     14  C          9.1380   -4.6170   -1.2630 C.3     1  UNL1        0.4680
@<TRIPOS>BOND
     1    13    11    1
     2    13    14    1
     3     9    11    2
     4     9     7    1
     5    11    10    1
     6    14    12    1
     7     7     6    2
     8    10    12    1
     9    10     8    2
    10     6     8    1
    11     6     5    1
    12     3     2    1
    13     5     1    1
    14     2     1    1
    15     2     4    2
