@<TRIPOS>MOLECULE
/home/cewinharhar/GITHUB/reincatalyze/data/processed/docking_pred/2023-May-24-1506_sub9_nm5_bs15_s42_ex16_mel10_mts10000_k50_ec02_g099_lra3e-4_lrc3e-3/367438b83e07ec58543242b49c62b5ced391bd04_ligand_9.pdbqt
 14 15 0 0 0
SMALL
GASTEIGER

@<TRIPOS>ATOM
      1  C          5.7120    1.3800   -0.1920 C.3     1  UNL1        0.0800
      2  C          5.0190    1.2210    1.1170 C.2     1  UNL1        0.1300
      3  C          5.2860    0.0590    2.0060 C.3     1  UNL1        0.0870
      4  O          4.2050    2.0460    1.4990 O.2     1  UNL1       -0.3000
      5  C          7.1970    1.1010   -0.0660 C.3     1  UNL1        0.0430
      6  C          7.5710   -0.1670   -0.7180 C.2     1  UNL1       -0.0440
      7  C          7.6200   -0.2890   -2.1110 C.2     1  UNL1        0.0080
      8  C          7.8850   -1.2640    0.0530 C.2     1  UNL1        0.0540
      9  C          7.9790   -1.5030   -2.6670 C.2     1  UNL1        0.0510
     10  C          8.2490   -2.4890   -0.5140 C.2     1  UNL1        0.1660
     11  C          8.2950   -2.6100   -1.8850 C.2     1  UNL1        0.1650
     12  O          8.5990   -3.7070    0.0280 O.2     1  UNL1       -0.4540
     13  O          8.6790   -3.9130   -2.1590 O.2     1  UNL1       -0.4540
     14  C          8.9700   -4.6170   -0.9760 C.3     1  UNL1        0.4680
@<TRIPOS>BOND
     1     9     7    1
     2     9    11    2
     3    13    11    1
     4    13    14    1
     5     7     6    2
     6    11    10    1
     7    14    12    1
     8     6     5    1
     9     6     8    1
    10    10    12    1
    11    10     8    2
    12     1     5    1
    13     1     2    1
    14     2     4    2
    15     2     3    1
