@<TRIPOS>MOLECULE
/home/cewinharhar/GITHUB/reincatalyze/data/processed/docking_pred/2023-May-24-1506_sub9_nm5_bs15_s42_ex16_mel10_mts10000_k50_ec02_g099_lra3e-4_lrc3e-3/37aabdb081a78d2f2d4d4e560ab17afff45a2586_ligand_9.pdbqt
 14 15 0 0 0
SMALL
GASTEIGER

@<TRIPOS>ATOM
      1  C          6.7160    0.6210    1.4070 C.3     1  UNL1        0.0800
      2  C          5.3160    1.1240    1.4860 C.2     1  UNL1        0.1300
      3  C          4.8000    2.1490    0.5390 C.3     1  UNL1        0.0870
      4  O          4.5470    0.7060    2.3360 O.2     1  UNL1       -0.3000
      5  C          7.3210    0.8890    0.0430 C.3     1  UNL1        0.0430
      6  C          7.6990   -0.3600   -0.6420 C.2     1  UNL1       -0.0440
      7  C          7.7760   -0.4360   -2.0380 C.2     1  UNL1        0.0080
      8  C          7.9870   -1.4840    0.0980 C.2     1  UNL1        0.0540
      9  C          8.1370   -1.6350   -2.6250 C.2     1  UNL1        0.0510
     10  C          8.3520   -2.6940   -0.5010 C.2     1  UNL1        0.1660
     11  C          8.4270   -2.7700   -1.8740 C.2     1  UNL1        0.1650
     12  O          8.6800   -3.9330    0.0070 O.2     1  UNL1       -0.4540
     13  O          8.8050   -4.0670   -2.1830 O.2     1  UNL1       -0.4540
     14  C          9.0640   -4.8120   -1.0180 C.3     1  UNL1        0.4680
@<TRIPOS>BOND
     1     9     7    1
     2     9    11    2
     3    13    11    1
     4    13    14    1
     5     7     6    2
     6    11    10    1
     7    14    12    1
     8     6     5    1
     9     6     8    1
    10    10    12    1
    11    10     8    2
    12     5     1    1
    13     3     2    1
    14     1     2    1
    15     2     4    2
