MODEL 1
REMARK VINA RESULT:      -7.6      0.000      0.000
REMARK SMILES CC(=O)CCc1ccc2c(c1)OCO2
REMARK SMILES IDX 4 1 2 2 1 3 3 4 5 5 6 6 7 7 11 8 8 9 10 10 9 11 12 12 14 13
REMARK SMILES IDX 13 14
REMARK H PARENT
REMARK Flexibility Score: inf
ROOT
ATOM      1  C   UNL     1       5.517   1.915   1.265  1.00  0.00     0.080 C 
ENDROOT
BRANCH   1   2
ATOM      2  C   UNL     1       5.073   0.699   2.002  1.00  0.00     0.130 C 
ATOM      3  C   UNL     1       5.964  -0.479   2.173  1.00  0.00     0.087 C 
ATOM      4  O   UNL     1       3.956   0.635   2.490  1.00  0.00    -0.300 OA
ENDBRANCH   1   2
BRANCH   1   5
ATOM      5  C   UNL     1       5.391   1.727  -0.234  1.00  0.00     0.043 C 
BRANCH   5   6
ATOM      6  C   UNL     1       6.560   1.027  -0.796  1.00  0.00    -0.044 A 
ATOM      7  C   UNL     1       7.866   1.465  -0.549  1.00  0.00     0.008 A 
ATOM      8  C   UNL     1       6.374  -0.087  -1.582  1.00  0.00     0.054 A 
ATOM      9  C   UNL     1       8.924   0.767  -1.103  1.00  0.00     0.051 A 
ATOM     10  C   UNL     1       7.447  -0.790  -2.139  1.00  0.00     0.166 A 
ATOM     11  C   UNL     1       8.732  -0.359  -1.898  1.00  0.00     0.165 A 
ATOM     12  O   UNL     1       7.522  -1.908  -2.943  1.00  0.00    -0.454 OA
ATOM     13  O   UNL     1       9.579  -1.231  -2.564  1.00  0.00    -0.454 OA
ATOM     14  C   UNL     1       8.858  -2.280  -3.165  1.00  0.00     0.468 C 
ENDBRANCH   5   6
ENDBRANCH   1   5
TORSDOF 3
ENDMDL
MODEL 2
REMARK VINA RESULT:      -7.5      1.911      2.361
REMARK SMILES CC(=O)CCc1ccc2c(c1)OCO2
REMARK SMILES IDX 4 1 2 2 1 3 3 4 5 5 6 6 7 7 11 8 8 9 10 10 9 11 12 12 14 13
REMARK SMILES IDX 13 14
REMARK H PARENT
REMARK Flexibility Score: inf
ROOT
ATOM      1  C   UNL     1       5.734   1.373  -0.259  1.00  0.00     0.080 C 
ENDROOT
BRANCH   1   2
ATOM      2  C   UNL     1       5.104   1.266   1.087  1.00  0.00     0.130 C 
ATOM      3  C   UNL     1       5.379   0.115   1.988  1.00  0.00     0.087 C 
ATOM      4  O   UNL     1       4.337   2.125   1.490  1.00  0.00    -0.300 OA
ENDBRANCH   1   2
BRANCH   1   5
ATOM      5  C   UNL     1       7.227   1.119  -0.190  1.00  0.00     0.043 C 
BRANCH   5   6
ATOM      6  C   UNL     1       7.593  -0.164  -0.815  1.00  0.00    -0.044 A 
ATOM      7  C   UNL     1       7.645  -0.312  -2.206  1.00  0.00     0.008 A 
ATOM      8  C   UNL     1       7.895  -1.248  -0.023  1.00  0.00     0.054 A 
ATOM      9  C   UNL     1       7.996  -1.540  -2.737  1.00  0.00     0.051 A 
ATOM     10  C   UNL     1       8.250  -2.487  -0.564  1.00  0.00     0.166 A 
ATOM     11  C   UNL     1       8.300  -2.634  -1.933  1.00  0.00     0.165 A 
ATOM     12  O   UNL     1       8.588  -3.697   0.002  1.00  0.00    -0.454 OA
ATOM     13  O   UNL     1       8.674  -3.946  -2.181  1.00  0.00    -0.454 OA
ATOM     14  C   UNL     1       8.955  -4.630  -0.983  1.00  0.00     0.468 C 
ENDBRANCH   5   6
ENDBRANCH   1   5
TORSDOF 3
ENDMDL
MODEL 3
REMARK VINA RESULT:      -7.2      2.052      2.627
REMARK SMILES CC(=O)CCc1ccc2c(c1)OCO2
REMARK SMILES IDX 4 1 2 2 1 3 3 4 5 5 6 6 7 7 11 8 8 9 10 10 9 11 12 12 14 13
REMARK SMILES IDX 13 14
REMARK H PARENT
REMARK Flexibility Score: inf
ROOT
ATOM      1  C   UNL     1       5.401  -0.062   2.029  1.00  0.00     0.080 C 
ENDROOT
BRANCH   1   2
ATOM      2  C   UNL     1       4.552   1.134   1.770  1.00  0.00     0.130 C 
ATOM      3  C   UNL     1       4.893   2.119   0.709  1.00  0.00     0.087 C 
ATOM      4  O   UNL     1       3.544   1.341   2.426  1.00  0.00    -0.300 OA
ENDBRANCH   1   2
BRANCH   1   5
ATOM      5  C   UNL     1       6.839   0.185   1.621  1.00  0.00     0.043 C 
BRANCH   5   6
ATOM      6  C   UNL     1       7.270  -0.735   0.554  1.00  0.00    -0.044 A 
ATOM      7  C   UNL     1       7.152  -0.396  -0.799  1.00  0.00     0.008 A 
ATOM      8  C   UNL     1       7.806  -1.959   0.884  1.00  0.00     0.054 A 
ATOM      9  C   UNL     1       7.574  -1.300  -1.757  1.00  0.00     0.051 A 
ATOM     10  C   UNL     1       8.232  -2.870  -0.088  1.00  0.00     0.166 A 
ATOM     11  C   UNL     1       8.115  -2.537  -1.419  1.00  0.00     0.165 A 
ATOM     12  O   UNL     1       8.788  -4.129  -0.016  1.00  0.00    -0.454 OA
ATOM     13  O   UNL     1       8.608  -3.611  -2.145  1.00  0.00    -0.454 OA
ATOM     14  C   UNL     1       9.129  -4.603  -1.294  1.00  0.00     0.468 C 
ENDBRANCH   5   6
ENDBRANCH   1   5
TORSDOF 3
ENDMDL
MODEL 4
REMARK VINA RESULT:      -7.1      1.260      1.473
REMARK SMILES CC(=O)CCc1ccc2c(c1)OCO2
REMARK SMILES IDX 4 1 2 2 1 3 3 4 5 5 6 6 7 7 11 8 8 9 10 10 9 11 12 12 14 13
REMARK SMILES IDX 13 14
REMARK H PARENT
REMARK Flexibility Score: inf
ROOT
ATOM      1  C   UNL     1       6.381   1.174   0.962  1.00  0.00     0.080 C 
ENDROOT
BRANCH   1   2
ATOM      2  C   UNL     1       5.640   0.351   1.958  1.00  0.00     0.130 C 
ATOM      3  C   UNL     1       6.232  -0.876   2.553  1.00  0.00     0.087 C 
ATOM      4  O   UNL     1       4.515   0.663   2.316  1.00  0.00    -0.300 OA
ENDBRANCH   1   2
BRANCH   1   5
ATOM      5  C   UNL     1       5.875   0.924  -0.444  1.00  0.00     0.043 C 
BRANCH   5   6
ATOM      6  C   UNL     1       6.814   0.098  -1.224  1.00  0.00    -0.044 A 
ATOM      7  C   UNL     1       7.473   0.603  -2.351  1.00  0.00     0.008 A 
ATOM      8  C   UNL     1       7.058  -1.202  -0.843  1.00  0.00     0.054 A 
ATOM      9  C   UNL     1       8.344  -0.218  -3.043  1.00  0.00     0.051 A 
ATOM     10  C   UNL     1       7.940  -2.028  -1.546  1.00  0.00     0.166 A 
ATOM     11  C   UNL     1       8.588  -1.532  -2.656  1.00  0.00     0.165 A 
ATOM     12  O   UNL     1       8.344  -3.334  -1.372  1.00  0.00    -0.454 OA
ATOM     13  O   UNL     1       9.386  -2.555  -3.144  1.00  0.00    -0.454 OA
ATOM     14  C   UNL     1       9.331  -3.686  -2.308  1.00  0.00     0.468 C 
ENDBRANCH   5   6
ENDBRANCH   1   5
TORSDOF 3
ENDMDL
MODEL 5
REMARK VINA RESULT:      -7.1      2.007      2.559
REMARK SMILES CC(=O)CCc1ccc2c(c1)OCO2
REMARK SMILES IDX 4 1 2 2 1 3 3 4 5 5 6 6 7 7 11 8 8 9 10 10 9 11 12 12 14 13
REMARK SMILES IDX 13 14
REMARK H PARENT
REMARK Flexibility Score: inf
ROOT
ATOM      1  C   UNL     1       6.716   0.621   1.407  1.00  0.00     0.080 C 
ENDROOT
BRANCH   1   2
ATOM      2  C   UNL     1       5.316   1.124   1.486  1.00  0.00     0.130 C 
ATOM      3  C   UNL     1       4.800   2.149   0.539  1.00  0.00     0.087 C 
ATOM      4  O   UNL     1       4.547   0.706   2.336  1.00  0.00    -0.300 OA
ENDBRANCH   1   2
BRANCH   1   5
ATOM      5  C   UNL     1       7.321   0.889   0.043  1.00  0.00     0.043 C 
BRANCH   5   6
ATOM      6  C   UNL     1       7.699  -0.360  -0.642  1.00  0.00    -0.044 A 
ATOM      7  C   UNL     1       7.776  -0.436  -2.038  1.00  0.00     0.008 A 
ATOM      8  C   UNL     1       7.987  -1.484   0.098  1.00  0.00     0.054 A 
ATOM      9  C   UNL     1       8.137  -1.635  -2.625  1.00  0.00     0.051 A 
ATOM     10  C   UNL     1       8.352  -2.694  -0.501  1.00  0.00     0.166 A 
ATOM     11  C   UNL     1       8.427  -2.770  -1.874  1.00  0.00     0.165 A 
ATOM     12  O   UNL     1       8.680  -3.933   0.007  1.00  0.00    -0.454 OA
ATOM     13  O   UNL     1       8.805  -4.067  -2.183  1.00  0.00    -0.454 OA
ATOM     14  C   UNL     1       9.064  -4.812  -1.018  1.00  0.00     0.468 C 
ENDBRANCH   5   6
ENDBRANCH   1   5
TORSDOF 3
ENDMDL
