MODEL 1
REMARK VINA RESULT:      -7.6      0.000      0.000
REMARK SMILES CC(=O)CCc1ccc2c(c1)OCO2
REMARK SMILES IDX 4 1 2 2 1 3 3 4 5 5 6 6 7 7 11 8 8 9 10 10 9 11 12 12 14 13
REMARK SMILES IDX 13 14
REMARK H PARENT
REMARK Flexibility Score: inf
ROOT
ATOM      1  C   UNL     1       5.553   1.799   1.187  1.00  0.00     0.080 C 
ENDROOT
BRANCH   1   2
ATOM      2  C   UNL     1       5.090   0.608   1.952  1.00  0.00     0.130 C 
ATOM      3  C   UNL     1       5.905  -0.634   2.032  1.00  0.00     0.087 C 
ATOM      4  O   UNL     1       4.020   0.617   2.539  1.00  0.00    -0.300 OA
ENDBRANCH   1   2
BRANCH   1   5
ATOM      5  C   UNL     1       5.444   1.570  -0.307  1.00  0.00     0.043 C 
BRANCH   5   6
ATOM      6  C   UNL     1       6.685   1.003  -0.865  1.00  0.00    -0.044 A 
ATOM      7  C   UNL     1       7.945   1.466  -0.468  1.00  0.00     0.008 A 
ATOM      8  C   UNL     1       6.615  -0.007  -1.797  1.00  0.00     0.054 A 
ATOM      9  C   UNL     1       9.075   0.895  -1.026  1.00  0.00     0.051 A 
ATOM     10  C   UNL     1       7.760  -0.581  -2.357  1.00  0.00     0.166 A 
ATOM     11  C   UNL     1       9.000  -0.126  -1.968  1.00  0.00     0.165 A 
ATOM     12  O   UNL     1       7.952  -1.580  -3.287  1.00  0.00    -0.454 OA
ATOM     13  O   UNL     1       9.938  -0.864  -2.674  1.00  0.00    -0.454 OA
ATOM     14  C   UNL     1       9.318  -1.859  -3.454  1.00  0.00     0.468 C 
ENDBRANCH   5   6
ENDBRANCH   1   5
TORSDOF 3
ENDMDL
MODEL 2
REMARK VINA RESULT:      -7.4      0.983      1.849
REMARK SMILES CC(=O)CCc1ccc2c(c1)OCO2
REMARK SMILES IDX 4 1 2 2 1 3 3 4 5 5 6 6 7 7 11 8 8 9 10 10 9 11 12 12 14 13
REMARK SMILES IDX 13 14
REMARK H PARENT
REMARK Flexibility Score: inf
ROOT
ATOM      1  C   UNL     1       6.033   1.395   1.154  1.00  0.00     0.080 C 
ENDROOT
BRANCH   1   2
ATOM      2  C   UNL     1       5.493   0.308   2.017  1.00  0.00     0.130 C 
ATOM      3  C   UNL     1       6.279  -0.920   2.311  1.00  0.00     0.087 C 
ATOM      4  O   UNL     1       4.380   0.394   2.511  1.00  0.00    -0.300 OA
ENDBRANCH   1   2
BRANCH   1   5
ATOM      5  C   UNL     1       5.664   1.178  -0.300  1.00  0.00     0.043 C 
BRANCH   5   6
ATOM      6  C   UNL     1       6.767   0.561  -1.057  1.00  0.00    -0.044 A 
ATOM      7  C   UNL     1       6.596  -0.640  -1.756  1.00  0.00     0.008 A 
ATOM      8  C   UNL     1       8.000   1.173  -1.088  1.00  0.00     0.054 A 
ATOM      9  C   UNL     1       7.667  -1.171  -2.450  1.00  0.00     0.051 A 
ATOM     10  C   UNL     1       9.080   0.632  -1.792  1.00  0.00     0.166 A 
ATOM     11  C   UNL     1       8.912  -0.550  -2.478  1.00  0.00     0.165 A 
ATOM     12  O   UNL     1      10.384   1.042  -1.973  1.00  0.00    -0.454 OA
ATOM     13  O   UNL     1      10.129  -0.844  -3.073  1.00  0.00    -0.454 OA
ATOM     14  C   UNL     1      11.064   0.185  -2.854  1.00  0.00     0.468 C 
ENDBRANCH   5   6
ENDBRANCH   1   5
TORSDOF 3
ENDMDL
MODEL 3
REMARK VINA RESULT:      -7.3      2.097      2.542
REMARK SMILES CC(=O)CCc1ccc2c(c1)OCO2
REMARK SMILES IDX 4 1 2 2 1 3 3 4 5 5 6 6 7 7 11 8 8 9 10 10 9 11 12 12 14 13
REMARK SMILES IDX 13 14
REMARK H PARENT
REMARK Flexibility Score: inf
ROOT
ATOM      1  C   UNL     1       5.625   1.329  -0.302  1.00  0.00     0.080 C 
ENDROOT
BRANCH   1   2
ATOM      2  C   UNL     1       5.113   1.246   1.094  1.00  0.00     0.130 C 
ATOM      3  C   UNL     1       5.418   0.083   1.970  1.00  0.00     0.087 C 
ATOM      4  O   UNL     1       4.422   2.137   1.562  1.00  0.00    -0.300 OA
ENDBRANCH   1   2
BRANCH   1   5
ATOM      5  C   UNL     1       7.132   1.170  -0.345  1.00  0.00     0.043 C 
BRANCH   5   6
ATOM      6  C   UNL     1       7.528  -0.131  -0.915  1.00  0.00    -0.044 A 
ATOM      7  C   UNL     1       7.603  -0.333  -2.298  1.00  0.00     0.008 A 
ATOM      8  C   UNL     1       7.835  -1.178  -0.076  1.00  0.00     0.054 A 
ATOM      9  C   UNL     1       7.981  -1.575  -2.775  1.00  0.00     0.051 A 
ATOM     10  C   UNL     1       8.217  -2.431  -0.563  1.00  0.00     0.166 A 
ATOM     11  C   UNL     1       8.290  -2.632  -1.924  1.00  0.00     0.165 A 
ATOM     12  O   UNL     1       8.567  -3.613   0.055  1.00  0.00    -0.454 OA
ATOM     13  O   UNL     1       8.688  -3.946  -2.115  1.00  0.00    -0.454 OA
ATOM     14  C   UNL     1       8.962  -4.577  -0.887  1.00  0.00     0.468 C 
ENDBRANCH   5   6
ENDBRANCH   1   5
TORSDOF 3
ENDMDL
MODEL 4
REMARK VINA RESULT:      -7.3      1.267      2.318
REMARK SMILES CC(=O)CCc1ccc2c(c1)OCO2
REMARK SMILES IDX 4 1 2 2 1 3 3 4 5 5 6 6 7 7 11 8 8 9 10 10 9 11 12 12 14 13
REMARK SMILES IDX 13 14
REMARK H PARENT
REMARK Flexibility Score: inf
ROOT
ATOM      1  C   UNL     1       5.775  -0.542   1.676  1.00  0.00     0.080 C 
ENDROOT
BRANCH   1   2
ATOM      2  C   UNL     1       4.970   0.709   1.739  1.00  0.00     0.130 C 
ATOM      3  C   UNL     1       5.232   1.853   0.825  1.00  0.00     0.087 C 
ATOM      4  O   UNL     1       4.066   0.833   2.550  1.00  0.00    -0.300 OA
ENDBRANCH   1   2
BRANCH   1   5
ATOM      5  C   UNL     1       7.239  -0.243   1.421  1.00  0.00     0.043 C 
BRANCH   5   6
ATOM      6  C   UNL     1       7.580  -0.360  -0.008  1.00  0.00    -0.044 A 
ATOM      7  C   UNL     1       6.908  -1.253  -0.851  1.00  0.00     0.008 A 
ATOM      8  C   UNL     1       8.580   0.424  -0.537  1.00  0.00     0.054 A 
ATOM      9  C   UNL     1       7.271  -1.319  -2.184  1.00  0.00     0.051 A 
ATOM     10  C   UNL     1       8.942   0.354  -1.886  1.00  0.00     0.166 A 
ATOM     11  C   UNL     1       8.282  -0.525  -2.716  1.00  0.00     0.165 A 
ATOM     12  O   UNL     1       9.887   1.016  -2.641  1.00  0.00    -0.454 OA
ATOM     13  O   UNL     1       8.841  -0.382  -3.976  1.00  0.00    -0.454 OA
ATOM     14  C   UNL     1       9.799   0.649  -3.993  1.00  0.00     0.468 C 
ENDBRANCH   5   6
ENDBRANCH   1   5
TORSDOF 3
ENDMDL
MODEL 5
REMARK VINA RESULT:      -7.1      2.222      2.807
REMARK SMILES CC(=O)CCc1ccc2c(c1)OCO2
REMARK SMILES IDX 4 1 2 2 1 3 3 4 5 5 6 6 7 7 11 8 8 9 10 10 9 11 12 12 14 13
REMARK SMILES IDX 13 14
REMARK H PARENT
REMARK Flexibility Score: inf
ROOT
ATOM      1  C   UNL     1       5.417  -0.061   2.018  1.00  0.00     0.080 C 
ENDROOT
BRANCH   1   2
ATOM      2  C   UNL     1       4.574   1.140   1.768  1.00  0.00     0.130 C 
ATOM      3  C   UNL     1       4.912   2.124   0.705  1.00  0.00     0.087 C 
ATOM      4  O   UNL     1       3.573   1.354   2.434  1.00  0.00    -0.300 OA
ENDBRANCH   1   2
BRANCH   1   5
ATOM      5  C   UNL     1       6.857   0.182   1.610  1.00  0.00     0.043 C 
BRANCH   5   6
ATOM      6  C   UNL     1       7.286  -0.740   0.543  1.00  0.00    -0.044 A 
ATOM      7  C   UNL     1       7.163  -0.404  -0.810  1.00  0.00     0.008 A 
ATOM      8  C   UNL     1       7.825  -1.962   0.874  1.00  0.00     0.054 A 
ATOM      9  C   UNL     1       7.583  -1.309  -1.767  1.00  0.00     0.051 A 
ATOM     10  C   UNL     1       8.249  -2.874  -0.097  1.00  0.00     0.166 A 
ATOM     11  C   UNL     1       8.127  -2.544  -1.429  1.00  0.00     0.165 A 
ATOM     12  O   UNL     1       8.808  -4.132  -0.025  1.00  0.00    -0.454 OA
ATOM     13  O   UNL     1       8.619  -3.618  -2.154  1.00  0.00    -0.454 OA
ATOM     14  C   UNL     1       9.144  -4.609  -1.303  1.00  0.00     0.468 C 
ENDBRANCH   5   6
ENDBRANCH   1   5
TORSDOF 3
ENDMDL
