@<TRIPOS>MOLECULE
/home/cewinharhar/GITHUB/reincatalyze/data/processed/docking_pred/2023-May-24-1506_sub9_nm5_bs15_s42_ex16_mel10_mts10000_k50_ec02_g099_lra3e-4_lrc3e-3/3b11ad51370e6150fddf32b3aa65dd5e24197163_ligand_9.pdbqt
 14 15 0 0 0
SMALL
GASTEIGER

@<TRIPOS>ATOM
      1  C          6.0330    1.3950    1.1540 C.3     1  UNL1        0.0800
      2  C          5.4930    0.3080    2.0170 C.2     1  UNL1        0.1300
      3  C          6.2790   -0.9200    2.3110 C.3     1  UNL1        0.0870
      4  O          4.3800    0.3940    2.5110 O.2     1  UNL1       -0.3000
      5  C          5.6640    1.1780   -0.3000 C.3     1  UNL1        0.0430
      6  C          6.7670    0.5610   -1.0570 C.2     1  UNL1       -0.0440
      7  C          6.5960   -0.6400   -1.7560 C.2     1  UNL1        0.0080
      8  C          8.0000    1.1730   -1.0880 C.2     1  UNL1        0.0540
      9  C          7.6670   -1.1710   -2.4500 C.2     1  UNL1        0.0510
     10  C          9.0800    0.6320   -1.7920 C.2     1  UNL1        0.1660
     11  C          8.9120   -0.5500   -2.4780 C.2     1  UNL1        0.1650
     12  O         10.3840    1.0420   -1.9730 O.2     1  UNL1       -0.4540
     13  O         10.1290   -0.8440   -3.0730 O.2     1  UNL1       -0.4540
     14  C         11.0640    0.1850   -2.8540 C.3     1  UNL1        0.4680
@<TRIPOS>BOND
     1    13    14    1
     2    13    11    1
     3    14    12    1
     4    11     9    2
     5    11    10    1
     6     9     7    1
     7    12    10    1
     8    10     8    2
     9     7     6    2
    10     8     6    1
    11     6     5    1
    12     5     1    1
    13     1     2    1
    14     2     3    1
    15     2     4    2
