@<TRIPOS>MOLECULE
/home/cewinharhar/GITHUB/reincatalyze/data/processed/docking_pred/2023-May-24-1506_sub9_nm5_bs15_s42_ex16_mel10_mts10000_k50_ec02_g099_lra3e-4_lrc3e-3/3b11ad51370e6150fddf32b3aa65dd5e24197163_ligand_9.pdbqt
 14 15 0 0 0
SMALL
GASTEIGER

@<TRIPOS>ATOM
      1  C          5.6250    1.3290   -0.3020 C.3     1  UNL1        0.0800
      2  C          5.1130    1.2460    1.0940 C.2     1  UNL1        0.1300
      3  C          5.4180    0.0830    1.9700 C.3     1  UNL1        0.0870
      4  O          4.4220    2.1370    1.5620 O.2     1  UNL1       -0.3000
      5  C          7.1320    1.1700   -0.3450 C.3     1  UNL1        0.0430
      6  C          7.5280   -0.1310   -0.9150 C.2     1  UNL1       -0.0440
      7  C          7.6030   -0.3330   -2.2980 C.2     1  UNL1        0.0080
      8  C          7.8350   -1.1780   -0.0760 C.2     1  UNL1        0.0540
      9  C          7.9810   -1.5750   -2.7750 C.2     1  UNL1        0.0510
     10  C          8.2170   -2.4310   -0.5630 C.2     1  UNL1        0.1660
     11  C          8.2900   -2.6320   -1.9240 C.2     1  UNL1        0.1650
     12  O          8.5670   -3.6130    0.0550 O.2     1  UNL1       -0.4540
     13  O          8.6880   -3.9460   -2.1150 O.2     1  UNL1       -0.4540
     14  C          8.9620   -4.5770   -0.8870 C.3     1  UNL1        0.4680
@<TRIPOS>BOND
     1     9     7    1
     2     9    11    2
     3     7     6    2
     4    13    11    1
     5    13    14    1
     6    11    10    1
     7     6     5    1
     8     6     8    1
     9    14    12    1
    10    10     8    2
    11    10    12    1
    12     5     1    1
    13     1     2    1
    14     2     4    2
    15     2     3    1
