@<TRIPOS>MOLECULE
/home/cewinharhar/GITHUB/reincatalyze/data/processed/docking_pred/2023-May-24-1506_sub9_nm5_bs15_s42_ex16_mel10_mts10000_k50_ec02_g099_lra3e-4_lrc3e-3/3b11ad51370e6150fddf32b3aa65dd5e24197163_ligand_9.pdbqt
 14 15 0 0 0
SMALL
GASTEIGER

@<TRIPOS>ATOM
      1  C          5.7750   -0.5420    1.6760 C.3     1  UNL1        0.0800
      2  C          4.9700    0.7090    1.7390 C.2     1  UNL1        0.1300
      3  C          5.2320    1.8530    0.8250 C.3     1  UNL1        0.0870
      4  O          4.0660    0.8330    2.5500 O.2     1  UNL1       -0.3000
      5  C          7.2390   -0.2430    1.4210 C.3     1  UNL1        0.0430
      6  C          7.5800   -0.3600   -0.0080 C.2     1  UNL1       -0.0440
      7  C          6.9080   -1.2530   -0.8510 C.2     1  UNL1        0.0080
      8  C          8.5800    0.4240   -0.5370 C.2     1  UNL1        0.0540
      9  C          7.2710   -1.3190   -2.1840 C.2     1  UNL1        0.0510
     10  C          8.9420    0.3540   -1.8860 C.2     1  UNL1        0.1660
     11  C          8.2820   -0.5250   -2.7160 C.2     1  UNL1        0.1650
     12  O          9.8870    1.0160   -2.6410 O.2     1  UNL1       -0.4540
     13  O          8.8410   -0.3820   -3.9760 O.2     1  UNL1       -0.4540
     14  C          9.7990    0.6490   -3.9930 C.3     1  UNL1        0.4680
@<TRIPOS>BOND
     1    14    13    1
     2    14    12    1
     3    13    11    1
     4    11     9    2
     5    11    10    1
     6    12    10    1
     7     9     7    1
     8    10     8    2
     9     7     6    2
    10     8     6    1
    11     6     5    1
    12     3     2    1
    13     5     1    1
    14     1     2    1
    15     2     4    2
