@<TRIPOS>MOLECULE
/home/cewinharhar/GITHUB/reincatalyze/data/processed/docking_pred/2023-May-24-1506_sub9_nm5_bs15_s42_ex16_mel10_mts10000_k50_ec02_g099_lra3e-4_lrc3e-3/3b11ad51370e6150fddf32b3aa65dd5e24197163_ligand_9.pdbqt
 14 15 0 0 0
SMALL
GASTEIGER

@<TRIPOS>ATOM
      1  C          5.5530    1.7990    1.1870 C.3     1  UNL1        0.0800
      2  C          5.0900    0.6080    1.9520 C.2     1  UNL1        0.1300
      3  C          5.9050   -0.6340    2.0320 C.3     1  UNL1        0.0870
      4  O          4.0200    0.6170    2.5390 O.2     1  UNL1       -0.3000
      5  C          5.4440    1.5700   -0.3070 C.3     1  UNL1        0.0430
      6  C          6.6850    1.0030   -0.8650 C.2     1  UNL1       -0.0440
      7  C          7.9450    1.4660   -0.4680 C.2     1  UNL1        0.0080
      8  C          6.6150   -0.0070   -1.7970 C.2     1  UNL1        0.0540
      9  C          9.0750    0.8950   -1.0260 C.2     1  UNL1        0.0510
     10  C          7.7600   -0.5810   -2.3570 C.2     1  UNL1        0.1660
     11  C          9.0000   -0.1260   -1.9680 C.2     1  UNL1        0.1650
     12  O          7.9520   -1.5800   -3.2870 O.2     1  UNL1       -0.4540
     13  O          9.9380   -0.8640   -2.6740 O.2     1  UNL1       -0.4540
     14  C          9.3180   -1.8590   -3.4540 C.3     1  UNL1        0.4680
@<TRIPOS>BOND
     1    14    12    1
     2    14    13    1
     3    12    10    1
     4    13    11    1
     5    10    11    2
     6    10     8    1
     7    11     9    1
     8     8     6    2
     9     9     7    2
    10     6     7    1
    11     6     5    1
    12     5     1    1
    13     1     2    1
    14     2     3    1
    15     2     4    2
