MODEL 1
REMARK VINA RESULT:      -7.3      0.000      0.000
REMARK SMILES CC(=O)CCc1ccc2c(c1)OCO2
REMARK SMILES IDX 4 1 2 2 1 3 3 4 5 5 6 6 7 7 11 8 8 9 10 10 9 11 12 12 14 13
REMARK SMILES IDX 13 14
REMARK H PARENT
REMARK Flexibility Score: inf
ROOT
ATOM      1  C   UNL     1       5.903   1.529   1.233  1.00  0.00     0.080 C 
ENDROOT
BRANCH   1   2
ATOM      2  C   UNL     1       5.365   0.398   2.039  1.00  0.00     0.130 C 
ATOM      3  C   UNL     1       6.173  -0.822   2.309  1.00  0.00     0.087 C 
ATOM      4  O   UNL     1       4.238   0.441   2.505  1.00  0.00    -0.300 OA
ENDBRANCH   1   2
BRANCH   1   5
ATOM      5  C   UNL     1       5.670   1.309  -0.249  1.00  0.00     0.043 C 
BRANCH   5   6
ATOM      6  C   UNL     1       6.818   0.641  -0.889  1.00  0.00    -0.044 A 
ATOM      7  C   UNL     1       8.089   1.226  -0.907  1.00  0.00     0.008 A 
ATOM      8  C   UNL     1       6.647  -0.589  -1.483  1.00  0.00     0.054 A 
ATOM      9  C   UNL     1       9.129   0.552  -1.522  1.00  0.00     0.051 A 
ATOM     10  C   UNL     1       7.701  -1.266  -2.103  1.00  0.00     0.166 A 
ATOM     11  C   UNL     1       8.952  -0.691  -2.123  1.00  0.00     0.165 A 
ATOM     12  O   UNL     1       7.786  -2.479  -2.754  1.00  0.00    -0.454 OA
ATOM     13  O   UNL     1       9.788  -1.572  -2.792  1.00  0.00    -0.454 OA
ATOM     14  C   UNL     1       9.110  -2.758  -3.129  1.00  0.00     0.468 C 
ENDBRANCH   5   6
ENDBRANCH   1   5
TORSDOF 3
ENDMDL
MODEL 2
REMARK VINA RESULT:      -7.1      1.063      1.085
REMARK SMILES CC(=O)CCc1ccc2c(c1)OCO2
REMARK SMILES IDX 4 1 2 2 1 3 3 4 5 5 6 6 7 7 11 8 8 9 10 10 9 11 12 12 14 13
REMARK SMILES IDX 13 14
REMARK H PARENT
REMARK Flexibility Score: inf
ROOT
ATOM      1  C   UNL     1       6.388   1.206   0.941  1.00  0.00     0.080 C 
ENDROOT
BRANCH   1   2
ATOM      2  C   UNL     1       5.651   0.392   1.947  1.00  0.00     0.130 C 
ATOM      3  C   UNL     1       6.242  -0.836   2.543  1.00  0.00     0.087 C 
ATOM      4  O   UNL     1       4.532   0.713   2.314  1.00  0.00    -0.300 OA
ENDBRANCH   1   2
BRANCH   1   5
ATOM      5  C   UNL     1       5.880   0.938  -0.462  1.00  0.00     0.043 C 
BRANCH   5   6
ATOM      6  C   UNL     1       6.820   0.107  -1.235  1.00  0.00    -0.044 A 
ATOM      7  C   UNL     1       7.493   0.610  -2.354  1.00  0.00     0.008 A 
ATOM      8  C   UNL     1       7.050  -1.196  -0.855  1.00  0.00     0.054 A 
ATOM      9  C   UNL     1       8.364  -0.217  -3.040  1.00  0.00     0.051 A 
ATOM     10  C   UNL     1       7.932  -2.027  -1.551  1.00  0.00     0.166 A 
ATOM     11  C   UNL     1       8.594  -1.533  -2.653  1.00  0.00     0.165 A 
ATOM     12  O   UNL     1       8.325  -3.337  -1.376  1.00  0.00    -0.454 OA
ATOM     13  O   UNL     1       9.389  -2.561  -3.137  1.00  0.00    -0.454 OA
ATOM     14  C   UNL     1       9.318  -3.693  -2.303  1.00  0.00     0.468 C 
ENDBRANCH   5   6
ENDBRANCH   1   5
TORSDOF 3
ENDMDL
MODEL 3
REMARK VINA RESULT:      -7.0      1.781      2.250
REMARK SMILES CC(=O)CCc1ccc2c(c1)OCO2
REMARK SMILES IDX 4 1 2 2 1 3 3 4 5 5 6 6 7 7 11 8 8 9 10 10 9 11 12 12 14 13
REMARK SMILES IDX 13 14
REMARK H PARENT
REMARK Flexibility Score: inf
ROOT
ATOM      1  C   UNL     1       5.966   1.154  -0.209  1.00  0.00     0.080 C 
ENDROOT
BRANCH   1   2
ATOM      2  C   UNL     1       5.918   1.147   1.280  1.00  0.00     0.130 C 
ATOM      3  C   UNL     1       5.375  -0.012   2.039  1.00  0.00     0.087 C 
ATOM      4  O   UNL     1       6.326   2.100   1.924  1.00  0.00    -0.300 OA
ENDBRANCH   1   2
BRANCH   1   5
ATOM      5  C   UNL     1       7.395   1.111  -0.714  1.00  0.00     0.043 C 
BRANCH   5   6
ATOM      6  C   UNL     1       7.767  -0.234  -1.188  1.00  0.00    -0.044 A 
ATOM      7  C   UNL     1       7.927  -0.512  -2.551  1.00  0.00     0.008 A 
ATOM      8  C   UNL     1       7.966  -1.247  -0.279  1.00  0.00     0.054 A 
ATOM      9  C   UNL     1       8.278  -1.792  -2.937  1.00  0.00     0.051 A 
ATOM     10  C   UNL     1       8.322  -2.540  -0.674  1.00  0.00     0.166 A 
ATOM     11  C   UNL     1       8.479  -2.815  -2.015  1.00  0.00     0.165 A 
ATOM     12  O   UNL     1       8.572  -3.701   0.025  1.00  0.00    -0.454 OA
ATOM     13  O   UNL     1       8.827  -4.153  -2.111  1.00  0.00    -0.454 OA
ATOM     14  C   UNL     1       8.986  -4.730  -0.837  1.00  0.00     0.468 C 
ENDBRANCH   5   6
ENDBRANCH   1   5
TORSDOF 3
ENDMDL
MODEL 4
REMARK VINA RESULT:      -6.6      1.990      2.558
REMARK SMILES CC(=O)CCc1ccc2c(c1)OCO2
REMARK SMILES IDX 4 1 2 2 1 3 3 4 5 5 6 6 7 7 11 8 8 9 10 10 9 11 12 12 14 13
REMARK SMILES IDX 13 14
REMARK H PARENT
REMARK Flexibility Score: inf
ROOT
ATOM      1  C   UNL     1       6.131  -0.445   2.308  1.00  0.00     0.080 C 
ENDROOT
BRANCH   1   2
ATOM      2  C   UNL     1       5.109   0.547   1.873  1.00  0.00     0.130 C 
ATOM      3  C   UNL     1       5.293   1.372   0.648  1.00  0.00     0.087 C 
ATOM      4  O   UNL     1       4.084   0.713   2.514  1.00  0.00    -0.300 OA
ENDBRANCH   1   2
BRANCH   1   5
ATOM      5  C   UNL     1       7.481  -0.154   1.684  1.00  0.00     0.043 C 
BRANCH   5   6
ATOM      6  C   UNL     1       7.781  -1.078   0.576  1.00  0.00    -0.044 A 
ATOM      7  C   UNL     1       7.652  -0.685  -0.761  1.00  0.00     0.008 A 
ATOM      8  C   UNL     1       8.202  -2.359   0.850  1.00  0.00     0.054 A 
ATOM      9  C   UNL     1       7.948  -1.594  -1.760  1.00  0.00     0.051 A 
ATOM     10  C   UNL     1       8.500  -3.275  -0.163  1.00  0.00     0.166 A 
ATOM     11  C   UNL     1       8.372  -2.889  -1.479  1.00  0.00     0.165 A 
ATOM     12  O   UNL     1       8.929  -4.585  -0.149  1.00  0.00    -0.454 OA
ATOM     13  O   UNL     1       8.729  -3.982  -2.254  1.00  0.00    -0.454 OA
ATOM     14  C   UNL     1       9.176  -5.049  -1.452  1.00  0.00     0.468 C 
ENDBRANCH   5   6
ENDBRANCH   1   5
TORSDOF 3
ENDMDL
MODEL 5
REMARK VINA RESULT:      -6.3      0.940      1.019
REMARK SMILES CC(=O)CCc1ccc2c(c1)OCO2
REMARK SMILES IDX 4 1 2 2 1 3 3 4 5 5 6 6 7 7 11 8 8 9 10 10 9 11 12 12 14 13
REMARK SMILES IDX 13 14
REMARK H PARENT
REMARK Flexibility Score: inf
ROOT
ATOM      1  C   UNL     1       5.129   0.481   1.486  1.00  0.00     0.080 C 
ENDROOT
BRANCH   1   2
ATOM      2  C   UNL     1       6.268  -0.197   2.167  1.00  0.00     0.130 C 
ATOM      3  C   UNL     1       6.464  -1.669   2.082  1.00  0.00     0.087 C 
ATOM      4  O   UNL     1       7.077   0.442   2.819  1.00  0.00    -0.300 OA
ENDBRANCH   1   2
BRANCH   1   5
ATOM      5  C   UNL     1       5.617   1.416   0.397  1.00  0.00     0.043 C 
BRANCH   5   6
ATOM      6  C   UNL     1       6.713   0.819  -0.386  1.00  0.00    -0.044 A 
ATOM      7  C   UNL     1       7.987   1.398  -0.424  1.00  0.00     0.008 A 
ATOM      8  C   UNL     1       6.492  -0.338  -1.098  1.00  0.00     0.054 A 
ATOM      9  C   UNL     1       8.977   0.792  -1.176  1.00  0.00     0.051 A 
ATOM     10  C   UNL     1       7.497  -0.947  -1.856  1.00  0.00     0.166 A 
ATOM     11  C   UNL     1       8.750  -0.377  -1.895  1.00  0.00     0.165 A 
ATOM     12  O   UNL     1       7.526  -2.081  -2.639  1.00  0.00    -0.454 OA
ATOM     13  O   UNL     1       9.531  -1.182  -2.709  1.00  0.00    -0.454 OA
ATOM     14  C   UNL     1       8.820  -2.322  -3.129  1.00  0.00     0.468 C 
ENDBRANCH   5   6
ENDBRANCH   1   5
TORSDOF 3
ENDMDL
