@<TRIPOS>MOLECULE
/home/cewinharhar/GITHUB/reincatalyze/data/processed/docking_pred/2023-May-24-1506_sub9_nm5_bs15_s42_ex16_mel10_mts10000_k50_ec02_g099_lra3e-4_lrc3e-3/3c93f0ab1d0179ecce707f4524a6ff468bff7290_ligand_9.pdbqt
 14 15 0 0 0
SMALL
GASTEIGER

@<TRIPOS>ATOM
      1  C          6.3640    1.2330    0.9150 C.3     1  UNL1        0.0800
      2  C          5.6660    0.3970    1.9310 C.2     1  UNL1        0.1300
      3  C          6.2990   -0.8170    2.5120 C.3     1  UNL1        0.0870
      4  O          4.5450    0.6860    2.3180 O.2     1  UNL1       -0.3000
      5  C          5.8560    0.9390   -0.4830 C.3     1  UNL1        0.0430
      6  C          6.8100    0.1170   -1.2490 C.2     1  UNL1       -0.0440
      7  C          7.5050    0.6340   -2.3480 C.2     1  UNL1        0.0080
      8  C          7.0310   -1.1910   -0.8820 C.2     1  UNL1        0.0540
      9  C          8.3880   -0.1850   -3.0280 C.2     1  UNL1        0.0510
     10  C          7.9250   -2.0140   -1.5730 C.2     1  UNL1        0.1660
     11  C          8.6090   -1.5070   -2.6550 C.2     1  UNL1        0.1650
     12  O          8.3130   -3.3270   -1.4080 O.2     1  UNL1       -0.4540
     13  O          9.4120   -2.5290   -3.1370 O.2     1  UNL1       -0.4540
     14  C          9.3230   -3.6730   -2.3210 C.3     1  UNL1        0.4680
@<TRIPOS>BOND
     1    13    11    1
     2    13    14    1
     3     9    11    2
     4     9     7    1
     5    11    10    1
     6     7     6    2
     7    14    12    1
     8    10    12    1
     9    10     8    2
    10     6     8    1
    11     6     5    1
    12     5     1    1
    13     1     2    1
    14     2     4    2
    15     2     3    1
