MODEL 1
REMARK VINA RESULT:      -7.6      0.000      0.000
REMARK SMILES CC(=O)CCc1ccc2c(c1)OCO2
REMARK SMILES IDX 4 1 2 2 1 3 3 4 5 5 6 6 7 7 11 8 8 9 10 10 9 11 12 12 14 13
REMARK SMILES IDX 13 14
REMARK H PARENT
REMARK Flexibility Score: inf
ROOT
ATOM      1  C   UNL     1       5.548   1.919   1.274  1.00  0.00     0.080 C 
ENDROOT
BRANCH   1   2
ATOM      2  C   UNL     1       5.124   0.700   2.016  1.00  0.00     0.130 C 
ATOM      3  C   UNL     1       6.035  -0.462   2.195  1.00  0.00     0.087 C 
ATOM      4  O   UNL     1       4.008   0.619   2.503  1.00  0.00    -0.300 OA
ENDBRANCH   1   2
BRANCH   1   5
ATOM      5  C   UNL     1       5.415   1.726  -0.223  1.00  0.00     0.043 C 
BRANCH   5   6
ATOM      6  C   UNL     1       6.581   1.024  -0.790  1.00  0.00    -0.044 A 
ATOM      7  C   UNL     1       7.889   1.451  -0.535  1.00  0.00     0.008 A 
ATOM      8  C   UNL     1       6.389  -0.082  -1.587  1.00  0.00     0.054 A 
ATOM      9  C   UNL     1       8.943   0.751  -1.093  1.00  0.00     0.051 A 
ATOM     10  C   UNL     1       7.459  -0.786  -2.148  1.00  0.00     0.166 A 
ATOM     11  C   UNL     1       8.746  -0.366  -1.899  1.00  0.00     0.165 A 
ATOM     12  O   UNL     1       7.529  -1.897  -2.962  1.00  0.00    -0.454 OA
ATOM     13  O   UNL     1       9.589  -1.237  -2.572  1.00  0.00    -0.454 OA
ATOM     14  C   UNL     1       8.863  -2.276  -3.184  1.00  0.00     0.468 C 
ENDBRANCH   5   6
ENDBRANCH   1   5
TORSDOF 3
ENDMDL
MODEL 2
REMARK VINA RESULT:      -7.4      1.919      2.415
REMARK SMILES CC(=O)CCc1ccc2c(c1)OCO2
REMARK SMILES IDX 4 1 2 2 1 3 3 4 5 5 6 6 7 7 11 8 8 9 10 10 9 11 12 12 14 13
REMARK SMILES IDX 13 14
REMARK H PARENT
REMARK Flexibility Score: inf
ROOT
ATOM      1  C   UNL     1       5.734   1.263  -0.306  1.00  0.00     0.080 C 
ENDROOT
BRANCH   1   2
ATOM      2  C   UNL     1       5.213   1.215   1.088  1.00  0.00     0.130 C 
ATOM      3  C   UNL     1       5.437   0.034   1.965  1.00  0.00     0.087 C 
ATOM      4  O   UNL     1       4.582   2.150   1.555  1.00  0.00    -0.300 OA
ENDBRANCH   1   2
BRANCH   1   5
ATOM      5  C   UNL     1       7.236   1.057  -0.340  1.00  0.00     0.043 C 
BRANCH   5   6
ATOM      6  C   UNL     1       7.596  -0.239  -0.941  1.00  0.00    -0.044 A 
ATOM      7  C   UNL     1       7.620  -0.423  -2.328  1.00  0.00     0.008 A 
ATOM      8  C   UNL     1       7.921  -1.301  -0.128  1.00  0.00     0.054 A 
ATOM      9  C   UNL     1       7.966  -1.662  -2.835  1.00  0.00     0.051 A 
ATOM     10  C   UNL     1       8.272  -2.552  -0.646  1.00  0.00     0.166 A 
ATOM     11  C   UNL     1       8.294  -2.734  -2.011  1.00  0.00     0.165 A 
ATOM     12  O   UNL     1       8.629  -3.746  -0.057  1.00  0.00    -0.454 OA
ATOM     13  O   UNL     1       8.670  -4.049  -2.234  1.00  0.00    -0.454 OA
ATOM     14  C   UNL     1       8.980  -4.701  -1.025  1.00  0.00     0.468 C 
ENDBRANCH   5   6
ENDBRANCH   1   5
TORSDOF 3
ENDMDL
MODEL 3
REMARK VINA RESULT:      -7.2      2.099      2.649
REMARK SMILES CC(=O)CCc1ccc2c(c1)OCO2
REMARK SMILES IDX 4 1 2 2 1 3 3 4 5 5 6 6 7 7 11 8 8 9 10 10 9 11 12 12 14 13
REMARK SMILES IDX 13 14
REMARK H PARENT
REMARK Flexibility Score: inf
ROOT
ATOM      1  C   UNL     1       5.518  -0.031   1.945  1.00  0.00     0.080 C 
ENDROOT
BRANCH   1   2
ATOM      2  C   UNL     1       4.657   1.146   1.641  1.00  0.00     0.130 C 
ATOM      3  C   UNL     1       4.975   2.079   0.527  1.00  0.00     0.087 C 
ATOM      4  O   UNL     1       3.660   1.381   2.303  1.00  0.00    -0.300 OA
ENDBRANCH   1   2
BRANCH   1   5
ATOM      5  C   UNL     1       6.949   0.205   1.504  1.00  0.00     0.043 C 
BRANCH   5   6
ATOM      6  C   UNL     1       7.364  -0.748   0.460  1.00  0.00    -0.044 A 
ATOM      7  C   UNL     1       7.256  -0.438  -0.901  1.00  0.00     0.008 A 
ATOM      8  C   UNL     1       7.873  -1.975   0.819  1.00  0.00     0.054 A 
ATOM      9  C   UNL     1       7.661  -1.372  -1.836  1.00  0.00     0.051 A 
ATOM     10  C   UNL     1       8.283  -2.916  -0.131  1.00  0.00     0.166 A 
ATOM     11  C   UNL     1       8.176  -2.612  -1.469  1.00  0.00     0.165 A 
ATOM     12  O   UNL     1       8.813  -4.185  -0.029  1.00  0.00    -0.454 OA
ATOM     13  O   UNL     1       8.648  -3.711  -2.169  1.00  0.00    -0.454 OA
ATOM     14  C   UNL     1       9.146  -4.695  -1.295  1.00  0.00     0.468 C 
ENDBRANCH   5   6
ENDBRANCH   1   5
TORSDOF 3
ENDMDL
MODEL 4
REMARK VINA RESULT:      -7.1      1.244      1.448
REMARK SMILES CC(=O)CCc1ccc2c(c1)OCO2
REMARK SMILES IDX 4 1 2 2 1 3 3 4 5 5 6 6 7 7 11 8 8 9 10 10 9 11 12 12 14 13
REMARK SMILES IDX 13 14
REMARK H PARENT
REMARK Flexibility Score: inf
ROOT
ATOM      1  C   UNL     1       6.364   1.233   0.915  1.00  0.00     0.080 C 
ENDROOT
BRANCH   1   2
ATOM      2  C   UNL     1       5.666   0.397   1.931  1.00  0.00     0.130 C 
ATOM      3  C   UNL     1       6.299  -0.817   2.512  1.00  0.00     0.087 C 
ATOM      4  O   UNL     1       4.545   0.686   2.318  1.00  0.00    -0.300 OA
ENDBRANCH   1   2
BRANCH   1   5
ATOM      5  C   UNL     1       5.856   0.939  -0.483  1.00  0.00     0.043 C 
BRANCH   5   6
ATOM      6  C   UNL     1       6.810   0.117  -1.249  1.00  0.00    -0.044 A 
ATOM      7  C   UNL     1       7.505   0.634  -2.348  1.00  0.00     0.008 A 
ATOM      8  C   UNL     1       7.031  -1.191  -0.882  1.00  0.00     0.054 A 
ATOM      9  C   UNL     1       8.388  -0.185  -3.028  1.00  0.00     0.051 A 
ATOM     10  C   UNL     1       7.925  -2.014  -1.573  1.00  0.00     0.166 A 
ATOM     11  C   UNL     1       8.609  -1.507  -2.655  1.00  0.00     0.165 A 
ATOM     12  O   UNL     1       8.313  -3.327  -1.408  1.00  0.00    -0.454 OA
ATOM     13  O   UNL     1       9.412  -2.529  -3.137  1.00  0.00    -0.454 OA
ATOM     14  C   UNL     1       9.323  -3.673  -2.321  1.00  0.00     0.468 C 
ENDBRANCH   5   6
ENDBRANCH   1   5
TORSDOF 3
ENDMDL
MODEL 5
REMARK VINA RESULT:      -7.1      1.951      2.497
REMARK SMILES CC(=O)CCc1ccc2c(c1)OCO2
REMARK SMILES IDX 4 1 2 2 1 3 3 4 5 5 6 6 7 7 11 8 8 9 10 10 9 11 12 12 14 13
REMARK SMILES IDX 13 14
REMARK H PARENT
REMARK Flexibility Score: inf
ROOT
ATOM      1  C   UNL     1       6.863   0.902   1.358  1.00  0.00     0.080 C 
ENDROOT
BRANCH   1   2
ATOM      2  C   UNL     1       5.404   1.175   1.486  1.00  0.00     0.130 C 
ATOM      3  C   UNL     1       4.712   2.149   0.600  1.00  0.00     0.087 C 
ATOM      4  O   UNL     1       4.730   0.602   2.327  1.00  0.00    -0.300 OA
ENDBRANCH   1   2
BRANCH   1   5
ATOM      5  C   UNL     1       7.337   1.098  -0.068  1.00  0.00     0.043 C 
BRANCH   5   6
ATOM      6  C   UNL     1       7.647  -0.186  -0.722  1.00  0.00    -0.044 A 
ATOM      7  C   UNL     1       7.639  -0.320  -2.115  1.00  0.00     0.008 A 
ATOM      8  C   UNL     1       7.958  -1.285   0.046  1.00  0.00     0.054 A 
ATOM      9  C   UNL     1       7.939  -1.549  -2.673  1.00  0.00     0.051 A 
ATOM     10  C   UNL     1       8.261  -2.526  -0.523  1.00  0.00     0.166 A 
ATOM     11  C   UNL     1       8.252  -2.659  -1.894  1.00  0.00     0.165 A 
ATOM     12  O   UNL     1       8.596  -3.750   0.016  1.00  0.00    -0.454 OA
ATOM     13  O   UNL     1       8.585  -3.975  -2.171  1.00  0.00    -0.454 OA
ATOM     14  C   UNL     1       8.899  -4.679  -0.993  1.00  0.00     0.468 C 
ENDBRANCH   5   6
ENDBRANCH   1   5
TORSDOF 3
ENDMDL
