MODEL 1
REMARK VINA RESULT:      -7.6      0.000      0.000
REMARK SMILES CC(=O)CCc1ccc2c(c1)OCO2
REMARK SMILES IDX 4 1 2 2 1 3 3 4 5 5 6 6 7 7 11 8 8 9 10 10 9 11 12 12 14 13
REMARK SMILES IDX 13 14
REMARK H PARENT
REMARK Flexibility Score: inf
ROOT
ATOM      1  C   UNL     1       5.545   1.940   1.257  1.00  0.00     0.080 C 
ENDROOT
BRANCH   1   2
ATOM      2  C   UNL     1       5.124   0.724   2.008  1.00  0.00     0.130 C 
ATOM      3  C   UNL     1       6.042  -0.430   2.203  1.00  0.00     0.087 C 
ATOM      4  O   UNL     1       4.005   0.640   2.488  1.00  0.00    -0.300 OA
ENDBRANCH   1   2
BRANCH   1   5
ATOM      5  C   UNL     1       5.412   1.736  -0.239  1.00  0.00     0.043 C 
BRANCH   5   6
ATOM      6  C   UNL     1       6.578   1.030  -0.800  1.00  0.00    -0.044 A 
ATOM      7  C   UNL     1       7.886   1.458  -0.544  1.00  0.00     0.008 A 
ATOM      8  C   UNL     1       6.388  -0.077  -1.594  1.00  0.00     0.054 A 
ATOM      9  C   UNL     1       8.941   0.756  -1.097  1.00  0.00     0.051 A 
ATOM     10  C   UNL     1       7.458  -0.784  -2.150  1.00  0.00     0.166 A 
ATOM     11  C   UNL     1       8.745  -0.364  -1.900  1.00  0.00     0.165 A 
ATOM     12  O   UNL     1       7.530  -1.897  -2.961  1.00  0.00    -0.454 OA
ATOM     13  O   UNL     1       9.589  -1.237  -2.568  1.00  0.00    -0.454 OA
ATOM     14  C   UNL     1       8.864  -2.278  -3.178  1.00  0.00     0.468 C 
ENDBRANCH   5   6
ENDBRANCH   1   5
TORSDOF 3
ENDMDL
MODEL 2
REMARK VINA RESULT:      -7.4      1.873      2.336
REMARK SMILES CC(=O)CCc1ccc2c(c1)OCO2
REMARK SMILES IDX 4 1 2 2 1 3 3 4 5 5 6 6 7 7 11 8 8 9 10 10 9 11 12 12 14 13
REMARK SMILES IDX 13 14
REMARK H PARENT
REMARK Flexibility Score: inf
ROOT
ATOM      1  C   UNL     1       5.686   1.388  -0.329  1.00  0.00     0.080 C 
ENDROOT
BRANCH   1   2
ATOM      2  C   UNL     1       5.113   1.281   1.041  1.00  0.00     0.130 C 
ATOM      3  C   UNL     1       5.408   0.120   1.923  1.00  0.00     0.087 C 
ATOM      4  O   UNL     1       4.378   2.150   1.483  1.00  0.00    -0.300 OA
ENDBRANCH   1   2
BRANCH   1   5
ATOM      5  C   UNL     1       7.187   1.179  -0.316  1.00  0.00     0.043 C 
BRANCH   5   6
ATOM      6  C   UNL     1       7.565  -0.111  -0.921  1.00  0.00    -0.044 A 
ATOM      7  C   UNL     1       7.614  -0.284  -2.309  1.00  0.00     0.008 A 
ATOM      8  C   UNL     1       7.882  -1.177  -0.110  1.00  0.00     0.054 A 
ATOM      9  C   UNL     1       7.976  -1.517  -2.819  1.00  0.00     0.051 A 
ATOM     10  C   UNL     1       8.248  -2.422  -0.631  1.00  0.00     0.166 A 
ATOM     11  C   UNL     1       8.295  -2.593  -1.997  1.00  0.00     0.165 A 
ATOM     12  O   UNL     1       8.602  -3.619  -0.045  1.00  0.00    -0.454 OA
ATOM     13  O   UNL     1       8.681  -3.905  -2.224  1.00  0.00    -0.454 OA
ATOM     14  C   UNL     1       8.974  -4.564  -1.015  1.00  0.00     0.468 C 
ENDBRANCH   5   6
ENDBRANCH   1   5
TORSDOF 3
ENDMDL
MODEL 3
REMARK VINA RESULT:      -7.2      2.067      2.616
REMARK SMILES CC(=O)CCc1ccc2c(c1)OCO2
REMARK SMILES IDX 4 1 2 2 1 3 3 4 5 5 6 6 7 7 11 8 8 9 10 10 9 11 12 12 14 13
REMARK SMILES IDX 13 14
REMARK H PARENT
REMARK Flexibility Score: inf
ROOT
ATOM      1  C   UNL     1       5.521  -0.003   1.963  1.00  0.00     0.080 C 
ENDROOT
BRANCH   1   2
ATOM      2  C   UNL     1       4.637   1.156   1.660  1.00  0.00     0.130 C 
ATOM      3  C   UNL     1       4.943   2.104   0.555  1.00  0.00     0.087 C 
ATOM      4  O   UNL     1       3.629   1.364   2.316  1.00  0.00    -0.300 OA
ENDBRANCH   1   2
BRANCH   1   5
ATOM      5  C   UNL     1       6.941   0.250   1.495  1.00  0.00     0.043 C 
BRANCH   5   6
ATOM      6  C   UNL     1       7.348  -0.701   0.445  1.00  0.00    -0.044 A 
ATOM      7  C   UNL     1       7.228  -0.388  -0.913  1.00  0.00     0.008 A 
ATOM      8  C   UNL     1       7.862  -1.928   0.798  1.00  0.00     0.054 A 
ATOM      9  C   UNL     1       7.628  -1.320  -1.854  1.00  0.00     0.051 A 
ATOM     10  C   UNL     1       8.265  -2.866  -0.157  1.00  0.00     0.166 A 
ATOM     11  C   UNL     1       8.147  -2.559  -1.494  1.00  0.00     0.165 A 
ATOM     12  O   UNL     1       8.798  -4.134  -0.062  1.00  0.00    -0.454 OA
ATOM     13  O   UNL     1       8.615  -3.657  -2.200  1.00  0.00    -0.454 OA
ATOM     14  C   UNL     1       9.122  -4.641  -1.331  1.00  0.00     0.468 C 
ENDBRANCH   5   6
ENDBRANCH   1   5
TORSDOF 3
ENDMDL
MODEL 4
REMARK VINA RESULT:      -7.1      1.253      1.452
REMARK SMILES CC(=O)CCc1ccc2c(c1)OCO2
REMARK SMILES IDX 4 1 2 2 1 3 3 4 5 5 6 6 7 7 11 8 8 9 10 10 9 11 12 12 14 13
REMARK SMILES IDX 13 14
REMARK H PARENT
REMARK Flexibility Score: inf
ROOT
ATOM      1  C   UNL     1       6.376   1.210   0.958  1.00  0.00     0.080 C 
ENDROOT
BRANCH   1   2
ATOM      2  C   UNL     1       5.659   0.367   1.954  1.00  0.00     0.130 C 
ATOM      3  C   UNL     1       6.281  -0.851   2.539  1.00  0.00     0.087 C 
ATOM      4  O   UNL     1       4.531   0.654   2.321  1.00  0.00    -0.300 OA
ENDBRANCH   1   2
BRANCH   1   5
ATOM      5  C   UNL     1       5.872   0.951  -0.448  1.00  0.00     0.043 C 
BRANCH   5   6
ATOM      6  C   UNL     1       6.814   0.124  -1.222  1.00  0.00    -0.044 A 
ATOM      7  C   UNL     1       7.495   0.634  -2.334  1.00  0.00     0.008 A 
ATOM      8  C   UNL     1       7.040  -1.182  -0.851  1.00  0.00     0.054 A 
ATOM      9  C   UNL     1       8.368  -0.189  -3.022  1.00  0.00     0.051 A 
ATOM     10  C   UNL     1       7.924  -2.010  -1.549  1.00  0.00     0.166 A 
ATOM     11  C   UNL     1       8.593  -1.509  -2.644  1.00  0.00     0.165 A 
ATOM     12  O   UNL     1       8.314  -3.322  -1.382  1.00  0.00    -0.454 OA
ATOM     13  O   UNL     1       9.389  -2.535  -3.131  1.00  0.00    -0.454 OA
ATOM     14  C   UNL     1       9.311  -3.673  -2.307  1.00  0.00     0.468 C 
ENDBRANCH   5   6
ENDBRANCH   1   5
TORSDOF 3
ENDMDL
MODEL 5
REMARK VINA RESULT:      -6.7      1.261      5.266
REMARK SMILES CC(=O)CCc1ccc2c(c1)OCO2
REMARK SMILES IDX 4 1 2 2 1 3 3 4 5 5 6 6 7 7 11 8 8 9 10 10 9 11 12 12 14 13
REMARK SMILES IDX 13 14
REMARK H PARENT
REMARK Flexibility Score: inf
ROOT
ATOM      1  C   UNL     1       8.560   0.220  -2.640  1.00  0.00     0.080 C 
ENDROOT
BRANCH   1   2
ATOM      2  C   UNL     1       8.489  -1.259  -2.802  1.00  0.00     0.130 C 
ATOM      3  C   UNL     1       7.187  -1.974  -2.883  1.00  0.00     0.087 C 
ATOM      4  O   UNL     1       9.505  -1.931  -2.873  1.00  0.00    -0.300 OA
ENDBRANCH   1   2
BRANCH   1   5
ATOM      5  C   UNL     1       9.038   0.600  -1.252  1.00  0.00     0.043 C 
BRANCH   5   6
ATOM      6  C   UNL     1       7.980   0.424  -0.242  1.00  0.00    -0.044 A 
ATOM      7  C   UNL     1       8.056  -0.576   0.733  1.00  0.00     0.008 A 
ATOM      8  C   UNL     1       6.886   1.261  -0.247  1.00  0.00     0.054 A 
ATOM      9  C   UNL     1       7.033  -0.693   1.657  1.00  0.00     0.051 A 
ATOM     10  C   UNL     1       5.855   1.139   0.689  1.00  0.00     0.166 A 
ATOM     11  C   UNL     1       5.929   0.154   1.648  1.00  0.00     0.165 A 
ATOM     12  O   UNL     1       4.682   1.835   0.890  1.00  0.00    -0.454 OA
ATOM     13  O   UNL     1       4.788   0.267   2.427  1.00  0.00    -0.454 OA
ATOM     14  C   UNL     1       4.014   1.377   2.038  1.00  0.00     0.468 C 
ENDBRANCH   5   6
ENDBRANCH   1   5
TORSDOF 3
ENDMDL
