@<TRIPOS>MOLECULE
/home/cewinharhar/GITHUB/reincatalyze/data/processed/docking_pred/2023-May-24-1506_sub9_nm5_bs15_s42_ex16_mel10_mts10000_k50_ec02_g099_lra3e-4_lrc3e-3/3dd20a82ca316ee4e9168eadca9f8684e5881f32_ligand_9.pdbqt
 14 15 0 0 0
SMALL
GASTEIGER

@<TRIPOS>ATOM
      1  C          8.5600    0.2200   -2.6400 C.3     1  UNL1        0.0800
      2  C          8.4890   -1.2590   -2.8020 C.2     1  UNL1        0.1300
      3  C          7.1870   -1.9740   -2.8830 C.3     1  UNL1        0.0870
      4  O          9.5050   -1.9310   -2.8730 O.2     1  UNL1       -0.3000
      5  C          9.0380    0.6000   -1.2520 C.3     1  UNL1        0.0430
      6  C          7.9800    0.4240   -0.2420 C.2     1  UNL1       -0.0440
      7  C          8.0560   -0.5760    0.7330 C.2     1  UNL1        0.0080
      8  C          6.8860    1.2610   -0.2470 C.2     1  UNL1        0.0540
      9  C          7.0330   -0.6930    1.6570 C.2     1  UNL1        0.0510
     10  C          5.8550    1.1390    0.6890 C.2     1  UNL1        0.1660
     11  C          5.9290    0.1540    1.6480 C.2     1  UNL1        0.1650
     12  O          4.6820    1.8350    0.8900 O.2     1  UNL1       -0.4540
     13  O          4.7880    0.2670    2.4270 O.2     1  UNL1       -0.4540
     14  C          4.0140    1.3770    2.0380 C.3     1  UNL1        0.4680
@<TRIPOS>BOND
     1     3     2    1
     2     4     2    2
     3     2     1    1
     4     1     5    1
     5     5     6    1
     6     8     6    2
     7     8    10    1
     8     6     7    1
     9    10    12    1
    10    10    11    2
    11     7     9    2
    12    12    14    1
    13    11     9    1
    14    11    13    1
    15    14    13    1
