@<TRIPOS>MOLECULE
/home/cewinharhar/GITHUB/reincatalyze/data/processed/docking_pred/2023-May-24-1506_sub9_nm5_bs15_s42_ex16_mel10_mts10000_k50_ec02_g099_lra3e-4_lrc3e-3/3dd20a82ca316ee4e9168eadca9f8684e5881f32_ligand_9.pdbqt
 14 15 0 0 0
SMALL
GASTEIGER

@<TRIPOS>ATOM
      1  C          5.5450    1.9400    1.2570 C.3     1  UNL1        0.0800
      2  C          5.1240    0.7240    2.0080 C.2     1  UNL1        0.1300
      3  C          6.0420   -0.4300    2.2030 C.3     1  UNL1        0.0870
      4  O          4.0050    0.6400    2.4880 O.2     1  UNL1       -0.3000
      5  C          5.4120    1.7360   -0.2390 C.3     1  UNL1        0.0430
      6  C          6.5780    1.0300   -0.8000 C.2     1  UNL1       -0.0440
      7  C          7.8860    1.4580   -0.5440 C.2     1  UNL1        0.0080
      8  C          6.3880   -0.0770   -1.5940 C.2     1  UNL1        0.0540
      9  C          8.9410    0.7560   -1.0970 C.2     1  UNL1        0.0510
     10  C          7.4580   -0.7840   -2.1500 C.2     1  UNL1        0.1660
     11  C          8.7450   -0.3640   -1.9000 C.2     1  UNL1        0.1650
     12  O          7.5300   -1.8970   -2.9610 O.2     1  UNL1       -0.4540
     13  O          9.5890   -1.2370   -2.5680 O.2     1  UNL1       -0.4540
     14  C          8.8640   -2.2780   -3.1780 C.3     1  UNL1        0.4680
@<TRIPOS>BOND
     1    14    12    1
     2    14    13    1
     3    12    10    1
     4    13    11    1
     5    10    11    2
     6    10     8    1
     7    11     9    1
     8     8     6    2
     9     9     7    2
    10     6     7    1
    11     6     5    1
    12     5     1    1
    13     1     2    1
    14     2     3    1
    15     2     4    2
