@<TRIPOS>MOLECULE
/home/cewinharhar/GITHUB/reincatalyze/data/processed/docking_pred/2023-May-24-1506_sub9_nm5_bs15_s42_ex16_mel10_mts10000_k50_ec02_g099_lra3e-4_lrc3e-3/3dd20a82ca316ee4e9168eadca9f8684e5881f32_ligand_9.pdbqt
 14 15 0 0 0
SMALL
GASTEIGER

@<TRIPOS>ATOM
      1  C          6.3760    1.2100    0.9580 C.3     1  UNL1        0.0800
      2  C          5.6590    0.3670    1.9540 C.2     1  UNL1        0.1300
      3  C          6.2810   -0.8510    2.5390 C.3     1  UNL1        0.0870
      4  O          4.5310    0.6540    2.3210 O.2     1  UNL1       -0.3000
      5  C          5.8720    0.9510   -0.4480 C.3     1  UNL1        0.0430
      6  C          6.8140    0.1240   -1.2220 C.2     1  UNL1       -0.0440
      7  C          7.4950    0.6340   -2.3340 C.2     1  UNL1        0.0080
      8  C          7.0400   -1.1820   -0.8510 C.2     1  UNL1        0.0540
      9  C          8.3680   -0.1890   -3.0220 C.2     1  UNL1        0.0510
     10  C          7.9240   -2.0100   -1.5490 C.2     1  UNL1        0.1660
     11  C          8.5930   -1.5090   -2.6440 C.2     1  UNL1        0.1650
     12  O          8.3140   -3.3220   -1.3820 O.2     1  UNL1       -0.4540
     13  O          9.3890   -2.5350   -3.1310 O.2     1  UNL1       -0.4540
     14  C          9.3110   -3.6730   -2.3070 C.3     1  UNL1        0.4680
@<TRIPOS>BOND
     1    13    11    1
     2    13    14    1
     3     9    11    2
     4     9     7    1
     5    11    10    1
     6     7     6    2
     7    14    12    1
     8    10    12    1
     9    10     8    2
    10     6     8    1
    11     6     5    1
    12     5     1    1
    13     1     2    1
    14     2     4    2
    15     2     3    1
