@<TRIPOS>MOLECULE
/home/cewinharhar/GITHUB/reincatalyze/data/processed/docking_pred/2023-May-24-1506_sub9_nm5_bs15_s42_ex16_mel10_mts10000_k50_ec02_g099_lra3e-4_lrc3e-3/3dd20a82ca316ee4e9168eadca9f8684e5881f32_ligand_9.pdbqt
 14 15 0 0 0
SMALL
GASTEIGER

@<TRIPOS>ATOM
      1  C          5.5210   -0.0030    1.9630 C.3     1  UNL1        0.0800
      2  C          4.6370    1.1560    1.6600 C.2     1  UNL1        0.1300
      3  C          4.9430    2.1040    0.5550 C.3     1  UNL1        0.0870
      4  O          3.6290    1.3640    2.3160 O.2     1  UNL1       -0.3000
      5  C          6.9410    0.2500    1.4950 C.3     1  UNL1        0.0430
      6  C          7.3480   -0.7010    0.4450 C.2     1  UNL1       -0.0440
      7  C          7.2280   -0.3880   -0.9130 C.2     1  UNL1        0.0080
      8  C          7.8620   -1.9280    0.7980 C.2     1  UNL1        0.0540
      9  C          7.6280   -1.3200   -1.8540 C.2     1  UNL1        0.0510
     10  C          8.2650   -2.8660   -0.1570 C.2     1  UNL1        0.1660
     11  C          8.1470   -2.5590   -1.4940 C.2     1  UNL1        0.1650
     12  O          8.7980   -4.1340   -0.0620 O.2     1  UNL1       -0.4540
     13  O          8.6150   -3.6570   -2.2000 O.2     1  UNL1       -0.4540
     14  C          9.1220   -4.6410   -1.3310 C.3     1  UNL1        0.4680
@<TRIPOS>BOND
     1    13    11    1
     2    13    14    1
     3     9    11    2
     4     9     7    1
     5    11    10    1
     6    14    12    1
     7     7     6    2
     8    10    12    1
     9    10     8    2
    10     6     8    1
    11     6     5    1
    12     3     2    1
    13     5     1    1
    14     2     1    1
    15     2     4    2
