@<TRIPOS>MOLECULE
/home/cewinharhar/GITHUB/reincatalyze/data/processed/docking_pred/2023-May-24-1506_sub9_nm5_bs15_s42_ex16_mel10_mts10000_k50_ec02_g099_lra3e-4_lrc3e-3/3e742204aaadd08b2af2eabe2bac092cf241077d_ligand_9.pdbqt
 14 15 0 0 0
SMALL
GASTEIGER

@<TRIPOS>ATOM
      1  C          5.5380   -0.2540    1.9600 C.3     1  UNL1        0.0800
      2  C          5.3240    0.9710    1.1400 C.2     1  UNL1        0.1300
      3  C          5.9270    1.1210   -0.2110 C.3     1  UNL1        0.0870
      4  O          4.6410    1.8920    1.5570 O.2     1  UNL1       -0.3000
      5  C          6.5000   -1.2090    1.2820 C.3     1  UNL1        0.0430
      6  C          7.6270   -1.5670    2.1610 C.2     1  UNL1       -0.0440
      7  C          7.6430   -1.2090    3.5140 C.2     1  UNL1        0.0080
      8  C          8.6940   -2.2710    1.6510 C.2     1  UNL1        0.0540
      9  C          8.7270   -1.5730    4.2920 C.2     1  UNL1        0.0510
     10  C          9.7880   -2.6370    2.4420 C.2     1  UNL1        0.1660
     11  C          9.8050   -2.2840    3.7730 C.2     1  UNL1        0.1650
     12  O         10.9520   -3.3260    2.1740 O.2     1  UNL1       -0.4540
     13  O         10.9900   -2.7700    4.3010 O.2     1  UNL1       -0.4540
     14  C         11.7060   -3.5150    3.3440 C.3     1  UNL1        0.4680
@<TRIPOS>BOND
     1     3     2    1
     2     2     4    2
     3     2     1    1
     4     5     1    1
     5     5     6    1
     6     8     6    2
     7     8    10    1
     8     6     7    1
     9    12    10    1
    10    12    14    1
    11    10    11    2
    12    14    13    1
    13     7     9    2
    14    11     9    1
    15    11    13    1
