@<TRIPOS>MOLECULE
/home/cewinharhar/GITHUB/reincatalyze/data/processed/docking_pred/2023-May-24-1506_sub9_nm5_bs15_s42_ex16_mel10_mts10000_k50_ec02_g099_lra3e-4_lrc3e-3/3e742204aaadd08b2af2eabe2bac092cf241077d_ligand_9.pdbqt
 14 15 0 0 0
SMALL
GASTEIGER

@<TRIPOS>ATOM
      1  C          5.4170    0.0130    1.9530 C.3     1  UNL1        0.0800
      2  C          5.3650    1.1240    0.9620 C.2     1  UNL1        0.1300
      3  C          6.0550    1.0310   -0.3520 C.3     1  UNL1        0.0870
      4  O          4.7500    2.1500    1.2040 O.2     1  UNL1       -0.3000
      5  C          6.0280   -1.2360    1.3480 C.3     1  UNL1        0.0430
      6  C          7.3030   -1.5900    1.9970 C.2     1  UNL1       -0.0440
      7  C          8.3070   -2.2830    1.3110 C.2     1  UNL1        0.0080
      8  C          7.5230   -1.2330    3.3080 C.2     1  UNL1        0.0540
      9  C          9.4830   -2.5870    1.9720 C.2     1  UNL1        0.0510
     10  C          8.7140   -1.5430    3.9710 C.2     1  UNL1        0.1660
     11  C          9.7020   -2.2260    3.2980 C.2     1  UNL1        0.1650
     12  O          9.1670   -1.3040    5.2510 O.2     1  UNL1       -0.4540
     13  O         10.7520   -2.3920    4.1870 O.2     1  UNL1       -0.4540
     14  C         10.4910   -1.7440    5.4090 C.3     1  UNL1        0.4680
@<TRIPOS>BOND
     1     3     2    1
     2     2     4    2
     3     2     1    1
     4     7     9    1
     5     7     6    2
     6     5     1    1
     7     5     6    1
     8     9    11    2
     9     6     8    1
    10    11    10    1
    11    11    13    1
    12     8    10    2
    13    10    12    1
    14    13    14    1
    15    12    14    1
