MODEL 1
REMARK VINA RESULT:      -7.5      0.000      0.000
REMARK SMILES CC(=O)CCc1ccc2c(c1)OCO2
REMARK SMILES IDX 4 1 2 2 1 3 3 4 5 5 6 6 7 7 11 8 8 9 10 10 9 11 12 12 14 13
REMARK SMILES IDX 13 14
REMARK H PARENT
REMARK Flexibility Score: inf
ROOT
ATOM      1  C   UNL     1       5.538  -0.254   1.960  1.00  0.00     0.080 C 
ENDROOT
BRANCH   1   2
ATOM      2  C   UNL     1       5.324   0.971   1.140  1.00  0.00     0.130 C 
ATOM      3  C   UNL     1       5.927   1.121  -0.211  1.00  0.00     0.087 C 
ATOM      4  O   UNL     1       4.641   1.892   1.557  1.00  0.00    -0.300 OA
ENDBRANCH   1   2
BRANCH   1   5
ATOM      5  C   UNL     1       6.500  -1.209   1.282  1.00  0.00     0.043 C 
BRANCH   5   6
ATOM      6  C   UNL     1       7.627  -1.567   2.161  1.00  0.00    -0.044 A 
ATOM      7  C   UNL     1       7.643  -1.209   3.514  1.00  0.00     0.008 A 
ATOM      8  C   UNL     1       8.694  -2.271   1.651  1.00  0.00     0.054 A 
ATOM      9  C   UNL     1       8.727  -1.573   4.292  1.00  0.00     0.051 A 
ATOM     10  C   UNL     1       9.788  -2.637   2.442  1.00  0.00     0.166 A 
ATOM     11  C   UNL     1       9.805  -2.284   3.773  1.00  0.00     0.165 A 
ATOM     12  O   UNL     1      10.952  -3.326   2.174  1.00  0.00    -0.454 OA
ATOM     13  O   UNL     1      10.990  -2.770   4.301  1.00  0.00    -0.454 OA
ATOM     14  C   UNL     1      11.706  -3.515   3.344  1.00  0.00     0.468 C 
ENDBRANCH   5   6
ENDBRANCH   1   5
TORSDOF 3
ENDMDL
MODEL 2
REMARK VINA RESULT:      -7.4      3.891      4.892
REMARK SMILES CC(=O)CCc1ccc2c(c1)OCO2
REMARK SMILES IDX 4 1 2 2 1 3 3 4 5 5 6 6 7 7 11 8 8 9 10 10 9 11 12 12 14 13
REMARK SMILES IDX 13 14
REMARK H PARENT
REMARK Flexibility Score: inf
ROOT
ATOM      1  C   UNL     1       5.481   1.909   1.247  1.00  0.00     0.080 C 
ENDROOT
BRANCH   1   2
ATOM      2  C   UNL     1       4.978   0.713   1.978  1.00  0.00     0.130 C 
ATOM      3  C   UNL     1       5.765  -0.548   2.048  1.00  0.00     0.087 C 
ATOM      4  O   UNL     1       3.897   0.733   2.543  1.00  0.00    -0.300 OA
ENDBRANCH   1   2
BRANCH   1   5
ATOM      5  C   UNL     1       5.372   1.723  -0.254  1.00  0.00     0.043 C 
BRANCH   5   6
ATOM      6  C   UNL     1       6.547   1.027  -0.806  1.00  0.00    -0.044 A 
ATOM      7  C   UNL     1       7.850   1.460  -0.534  1.00  0.00     0.008 A 
ATOM      8  C   UNL     1       6.371  -0.079  -1.606  1.00  0.00     0.054 A 
ATOM      9  C   UNL     1       8.915   0.765  -1.079  1.00  0.00     0.051 A 
ATOM     10  C   UNL     1       7.451  -0.778  -2.154  1.00  0.00     0.166 A 
ATOM     11  C   UNL     1       8.734  -0.352  -1.888  1.00  0.00     0.165 A 
ATOM     12  O   UNL     1       7.537  -1.888  -2.967  1.00  0.00    -0.454 OA
ATOM     13  O   UNL     1       9.589  -1.219  -2.551  1.00  0.00    -0.454 OA
ATOM     14  C   UNL     1       8.876  -2.261  -3.173  1.00  0.00     0.468 C 
ENDBRANCH   5   6
ENDBRANCH   1   5
TORSDOF 3
ENDMDL
MODEL 3
REMARK VINA RESULT:      -7.1      3.119      4.289
REMARK SMILES CC(=O)CCc1ccc2c(c1)OCO2
REMARK SMILES IDX 4 1 2 2 1 3 3 4 5 5 6 6 7 7 11 8 8 9 10 10 9 11 12 12 14 13
REMARK SMILES IDX 13 14
REMARK H PARENT
REMARK Flexibility Score: inf
ROOT
ATOM      1  C   UNL     1       5.785   1.169  -0.365  1.00  0.00     0.080 C 
ENDROOT
BRANCH   1   2
ATOM      2  C   UNL     1       5.260   1.174   1.029  1.00  0.00     0.130 C 
ATOM      3  C   UNL     1       5.418  -0.002   1.927  1.00  0.00     0.087 C 
ATOM      4  O   UNL     1       4.681   2.150   1.478  1.00  0.00    -0.300 OA
ENDBRANCH   1   2
BRANCH   1   5
ATOM      5  C   UNL     1       7.293   1.018  -0.385  1.00  0.00     0.043 C 
BRANCH   5   6
ATOM      6  C   UNL     1       7.705  -0.272  -0.966  1.00  0.00    -0.044 A 
ATOM      7  C   UNL     1       7.879  -0.432  -2.346  1.00  0.00     0.008 A 
ATOM      8  C   UNL     1       7.930  -1.352  -0.142  1.00  0.00     0.054 A 
ATOM      9  C   UNL     1       8.267  -1.666  -2.835  1.00  0.00     0.051 A 
ATOM     10  C   UNL     1       8.323  -2.597  -0.641  1.00  0.00     0.166 A 
ATOM     11  C   UNL     1       8.493  -2.756  -1.999  1.00  0.00     0.165 A 
ATOM     12  O   UNL     1       8.604  -3.805  -0.039  1.00  0.00    -0.454 OA
ATOM     13  O   UNL     1       8.879  -4.071  -2.203  1.00  0.00    -0.454 OA
ATOM     14  C   UNL     1       9.049  -4.747  -0.980  1.00  0.00     0.468 C 
ENDBRANCH   5   6
ENDBRANCH   1   5
TORSDOF 3
ENDMDL
MODEL 4
REMARK VINA RESULT:      -7.1      1.025      1.059
REMARK SMILES CC(=O)CCc1ccc2c(c1)OCO2
REMARK SMILES IDX 4 1 2 2 1 3 3 4 5 5 6 6 7 7 11 8 8 9 10 10 9 11 12 12 14 13
REMARK SMILES IDX 13 14
REMARK H PARENT
REMARK Flexibility Score: inf
ROOT
ATOM      1  C   UNL     1       6.280   0.262   1.541  1.00  0.00     0.080 C 
ENDROOT
BRANCH   1   2
ATOM      2  C   UNL     1       5.974   0.745   0.165  1.00  0.00     0.130 C 
ATOM      3  C   UNL     1       5.231   2.012  -0.070  1.00  0.00     0.087 C 
ATOM      4  O   UNL     1       6.326   0.109  -0.815  1.00  0.00    -0.300 OA
ENDBRANCH   1   2
BRANCH   1   5
ATOM      5  C   UNL     1       6.499  -1.238   1.562  1.00  0.00     0.043 C 
BRANCH   5   6
ATOM      6  C   UNL     1       7.676  -1.606   2.370  1.00  0.00    -0.044 A 
ATOM      7  C   UNL     1       7.765  -1.277   3.727  1.00  0.00     0.008 A 
ATOM      8  C   UNL     1       8.716  -2.294   1.786  1.00  0.00     0.054 A 
ATOM      9  C   UNL     1       8.893  -1.650   4.435  1.00  0.00     0.051 A 
ATOM     10  C   UNL     1       9.853  -2.669   2.507  1.00  0.00     0.166 A 
ATOM     11  C   UNL     1       9.943  -2.344   3.842  1.00  0.00     0.165 A 
ATOM     12  O   UNL     1      11.004  -3.346   2.161  1.00  0.00    -0.454 OA
ATOM     13  O   UNL     1      11.158  -2.834   4.293  1.00  0.00    -0.454 OA
ATOM     14  C   UNL     1      11.823  -3.555   3.283  1.00  0.00     0.468 C 
ENDBRANCH   5   6
ENDBRANCH   1   5
TORSDOF 3
ENDMDL
MODEL 5
REMARK VINA RESULT:      -7.0      0.948      1.892
REMARK SMILES CC(=O)CCc1ccc2c(c1)OCO2
REMARK SMILES IDX 4 1 2 2 1 3 3 4 5 5 6 6 7 7 11 8 8 9 10 10 9 11 12 12 14 13
REMARK SMILES IDX 13 14
REMARK H PARENT
REMARK Flexibility Score: inf
ROOT
ATOM      1  C   UNL     1       5.417   0.013   1.953  1.00  0.00     0.080 C 
ENDROOT
BRANCH   1   2
ATOM      2  C   UNL     1       5.365   1.124   0.962  1.00  0.00     0.130 C 
ATOM      3  C   UNL     1       6.055   1.031  -0.352  1.00  0.00     0.087 C 
ATOM      4  O   UNL     1       4.750   2.150   1.204  1.00  0.00    -0.300 OA
ENDBRANCH   1   2
BRANCH   1   5
ATOM      5  C   UNL     1       6.028  -1.236   1.348  1.00  0.00     0.043 C 
BRANCH   5   6
ATOM      6  C   UNL     1       7.303  -1.590   1.997  1.00  0.00    -0.044 A 
ATOM      7  C   UNL     1       8.307  -2.283   1.311  1.00  0.00     0.008 A 
ATOM      8  C   UNL     1       7.523  -1.233   3.308  1.00  0.00     0.054 A 
ATOM      9  C   UNL     1       9.483  -2.587   1.972  1.00  0.00     0.051 A 
ATOM     10  C   UNL     1       8.714  -1.543   3.971  1.00  0.00     0.166 A 
ATOM     11  C   UNL     1       9.702  -2.226   3.298  1.00  0.00     0.165 A 
ATOM     12  O   UNL     1       9.167  -1.304   5.251  1.00  0.00    -0.454 OA
ATOM     13  O   UNL     1      10.752  -2.392   4.187  1.00  0.00    -0.454 OA
ATOM     14  C   UNL     1      10.491  -1.744   5.409  1.00  0.00     0.468 C 
ENDBRANCH   5   6
ENDBRANCH   1   5
TORSDOF 3
ENDMDL
