@<TRIPOS>MOLECULE
/home/cewinharhar/GITHUB/reincatalyze/data/processed/docking_pred/2023-May-24-1506_sub9_nm5_bs15_s42_ex16_mel10_mts10000_k50_ec02_g099_lra3e-4_lrc3e-3/3e742204aaadd08b2af2eabe2bac092cf241077d_ligand_9.pdbqt
 14 15 0 0 0
SMALL
GASTEIGER

@<TRIPOS>ATOM
      1  C          6.2800    0.2620    1.5410 C.3     1  UNL1        0.0800
      2  C          5.9740    0.7450    0.1650 C.2     1  UNL1        0.1300
      3  C          5.2310    2.0120   -0.0700 C.3     1  UNL1        0.0870
      4  O          6.3260    0.1090   -0.8150 O.2     1  UNL1       -0.3000
      5  C          6.4990   -1.2380    1.5620 C.3     1  UNL1        0.0430
      6  C          7.6760   -1.6060    2.3700 C.2     1  UNL1       -0.0440
      7  C          7.7650   -1.2770    3.7270 C.2     1  UNL1        0.0080
      8  C          8.7160   -2.2940    1.7860 C.2     1  UNL1        0.0540
      9  C          8.8930   -1.6500    4.4350 C.2     1  UNL1        0.0510
     10  C          9.8530   -2.6690    2.5070 C.2     1  UNL1        0.1660
     11  C          9.9430   -2.3440    3.8420 C.2     1  UNL1        0.1650
     12  O         11.0040   -3.3460    2.1610 O.2     1  UNL1       -0.4540
     13  O         11.1580   -2.8340    4.2930 O.2     1  UNL1       -0.4540
     14  C         11.8230   -3.5550    3.2830 C.3     1  UNL1        0.4680
@<TRIPOS>BOND
     1     4     2    2
     2     3     2    1
     3     2     1    1
     4     1     5    1
     5     5     6    1
     6     8     6    2
     7     8    10    1
     8    12    10    1
     9    12    14    1
    10     6     7    1
    11    10    11    2
    12    14    13    1
    13     7     9    2
    14    11    13    1
    15    11     9    1
