@<TRIPOS>MOLECULE
/home/cewinharhar/GITHUB/reincatalyze/data/processed/docking_pred/2023-May-24-1506_sub9_nm5_bs15_s42_ex16_mel10_mts10000_k50_ec02_g099_lra3e-4_lrc3e-3/3e742204aaadd08b2af2eabe2bac092cf241077d_ligand_9.pdbqt
 14 15 0 0 0
SMALL
GASTEIGER

@<TRIPOS>ATOM
      1  C          5.7850    1.1690   -0.3650 C.3     1  UNL1        0.0800
      2  C          5.2600    1.1740    1.0290 C.2     1  UNL1        0.1300
      3  C          5.4180   -0.0020    1.9270 C.3     1  UNL1        0.0870
      4  O          4.6810    2.1500    1.4780 O.2     1  UNL1       -0.3000
      5  C          7.2930    1.0180   -0.3850 C.3     1  UNL1        0.0430
      6  C          7.7050   -0.2720   -0.9660 C.2     1  UNL1       -0.0440
      7  C          7.8790   -0.4320   -2.3460 C.2     1  UNL1        0.0080
      8  C          7.9300   -1.3520   -0.1420 C.2     1  UNL1        0.0540
      9  C          8.2670   -1.6660   -2.8350 C.2     1  UNL1        0.0510
     10  C          8.3230   -2.5970   -0.6410 C.2     1  UNL1        0.1660
     11  C          8.4930   -2.7560   -1.9990 C.2     1  UNL1        0.1650
     12  O          8.6040   -3.8050   -0.0390 O.2     1  UNL1       -0.4540
     13  O          8.8790   -4.0710   -2.2030 O.2     1  UNL1       -0.4540
     14  C          9.0490   -4.7470   -0.9800 C.3     1  UNL1        0.4680
@<TRIPOS>BOND
     1     9     7    1
     2     9    11    2
     3     7     6    2
     4    13    11    1
     5    13    14    1
     6    11    10    1
     7    14    12    1
     8     6     5    1
     9     6     8    1
    10    10     8    2
    11    10    12    1
    12     5     1    1
    13     1     2    1
    14     2     4    2
    15     2     3    1
