@<TRIPOS>MOLECULE
/home/cewinharhar/GITHUB/reincatalyze/data/processed/docking_pred/2023-May-24-1506_sub9_nm5_bs15_s42_ex16_mel10_mts10000_k50_ec02_g099_lra3e-4_lrc3e-3/3e742204aaadd08b2af2eabe2bac092cf241077d_ligand_9.pdbqt
 14 15 0 0 0
SMALL
GASTEIGER

@<TRIPOS>ATOM
      1  C          5.4810    1.9090    1.2470 C.3     1  UNL1        0.0800
      2  C          4.9780    0.7130    1.9780 C.2     1  UNL1        0.1300
      3  C          5.7650   -0.5480    2.0480 C.3     1  UNL1        0.0870
      4  O          3.8970    0.7330    2.5430 O.2     1  UNL1       -0.3000
      5  C          5.3720    1.7230   -0.2540 C.3     1  UNL1        0.0430
      6  C          6.5470    1.0270   -0.8060 C.2     1  UNL1       -0.0440
      7  C          7.8500    1.4600   -0.5340 C.2     1  UNL1        0.0080
      8  C          6.3710   -0.0790   -1.6060 C.2     1  UNL1        0.0540
      9  C          8.9150    0.7650   -1.0790 C.2     1  UNL1        0.0510
     10  C          7.4510   -0.7780   -2.1540 C.2     1  UNL1        0.1660
     11  C          8.7340   -0.3520   -1.8880 C.2     1  UNL1        0.1650
     12  O          7.5370   -1.8880   -2.9670 O.2     1  UNL1       -0.4540
     13  O          9.5890   -1.2190   -2.5510 O.2     1  UNL1       -0.4540
     14  C          8.8760   -2.2610   -3.1730 C.3     1  UNL1        0.4680
@<TRIPOS>BOND
     1    14    12    1
     2    14    13    1
     3    12    10    1
     4    13    11    1
     5    10    11    2
     6    10     8    1
     7    11     9    1
     8     8     6    2
     9     9     7    2
    10     6     7    1
    11     6     5    1
    12     5     1    1
    13     1     2    1
    14     2     3    1
    15     2     4    2
