@<TRIPOS>MOLECULE
/home/cewinharhar/GITHUB/reincatalyze/data/processed/docking_pred/2023-May-24-1506_sub9_nm5_bs15_s42_ex16_mel10_mts10000_k50_ec02_g099_lra3e-4_lrc3e-3/404021d27c656f8fbd9408a440432f577c9906d0_ligand_9.pdbqt
 14 15 0 0 0
SMALL
GASTEIGER

@<TRIPOS>ATOM
      1  C          5.9110    1.5650    1.2470 C.3     1  UNL1        0.0800
      2  C          5.4150    0.4050    2.0380 C.2     1  UNL1        0.1300
      3  C          6.2670   -0.7870    2.2930 C.3     1  UNL1        0.0870
      4  O          4.2860    0.3990    2.5010 O.2     1  UNL1       -0.3000
      5  C          5.6820    1.3580   -0.2380 C.3     1  UNL1        0.0430
      6  C          6.8240    0.6810   -0.8770 C.2     1  UNL1       -0.0440
      7  C          8.1050    1.2450   -0.8760 C.2     1  UNL1        0.0080
      8  C          6.6390   -0.5370   -1.4910 C.2     1  UNL1        0.0540
      9  C          9.1390    0.5630   -1.4910 C.2     1  UNL1        0.0510
     10  C          7.6870   -1.2230   -2.1110 C.2     1  UNL1        0.1660
     11  C          8.9480   -0.6680   -2.1120 C.2     1  UNL1        0.1650
     12  O          7.7580   -2.4270   -2.7790 O.2     1  UNL1       -0.4540
     13  O          9.7750   -1.5530   -2.7860 O.2     1  UNL1       -0.4540
     14  C          9.0810   -2.7230   -3.1470 C.3     1  UNL1        0.4680
@<TRIPOS>BOND
     1    14    13    1
     2    14    12    1
     3    13    11    1
     4    12    10    1
     5    11    10    2
     6    11     9    1
     7    10     8    1
     8     8     6    2
     9     9     7    2
    10     6     7    1
    11     6     5    1
    12     5     1    1
    13     1     2    1
    14     2     3    1
    15     2     4    2
