@<TRIPOS>MOLECULE
/home/cewinharhar/GITHUB/reincatalyze/data/processed/docking_pred/2023-May-24-1506_sub9_nm5_bs15_s42_ex16_mel10_mts10000_k50_ec02_g099_lra3e-4_lrc3e-3/404021d27c656f8fbd9408a440432f577c9906d0_ligand_9.pdbqt
 14 15 0 0 0
SMALL
GASTEIGER

@<TRIPOS>ATOM
      1  C          5.9270    1.1150   -0.1960 C.3     1  UNL1        0.0800
      2  C          5.8910    1.1300    1.2930 C.2     1  UNL1        0.1300
      3  C          5.3460   -0.0140    2.0730 C.3     1  UNL1        0.0870
      4  O          6.3120    2.0880    1.9200 O.2     1  UNL1       -0.3000
      5  C          7.3510    1.1100   -0.7130 C.3     1  UNL1        0.0430
      6  C          7.7510   -0.2220   -1.2030 C.2     1  UNL1       -0.0440
      7  C          7.9670   -0.4680   -2.5630 C.2     1  UNL1        0.0080
      8  C          7.9200   -1.2550   -0.3090 C.2     1  UNL1        0.0540
      9  C          8.3410   -1.7380   -2.9640 C.2     1  UNL1        0.0510
     10  C          8.2990   -2.5360   -0.7190 C.2     1  UNL1        0.1660
     11  C          8.5110   -2.7800   -2.0580 C.2     1  UNL1        0.1650
     12  O          8.5280   -3.7120   -0.0370 O.2     1  UNL1       -0.4540
     13  O          8.8710   -4.1140   -2.1710 O.2     1  UNL1       -0.4540
     14  C          8.9820   -4.7190   -0.9050 C.3     1  UNL1        0.4680
@<TRIPOS>BOND
     1     9     7    1
     2     9    11    2
     3     7     6    2
     4    13    11    1
     5    13    14    1
     6    11    10    1
     7     6     5    1
     8     6     8    1
     9    14    12    1
    10    10     8    2
    11    10    12    1
    12     5     1    1
    13     1     2    1
    14     2     4    2
    15     2     3    1
