@<TRIPOS>MOLECULE
/home/cewinharhar/GITHUB/reincatalyze/data/processed/docking_pred/2023-May-24-1506_sub9_nm5_bs15_s42_ex16_mel10_mts10000_k50_ec02_g099_lra3e-4_lrc3e-3/404021d27c656f8fbd9408a440432f577c9906d0_ligand_9.pdbqt
 14 15 0 0 0
SMALL
GASTEIGER

@<TRIPOS>ATOM
      1  C          5.8340    1.0470   -0.3000 C.3     1  UNL1        0.0800
      2  C          5.7720    1.2550    1.1730 C.2     1  UNL1        0.1300
      3  C          4.9380    0.3900    2.0500 C.3     1  UNL1        0.0870
      4  O          6.4090    2.1490    1.7070 O.2     1  UNL1       -0.3000
      5  C          7.2590    0.8280   -0.7660 C.3     1  UNL1        0.0430
      6  C          7.7250   -0.5400   -0.4770 C.2     1  UNL1       -0.0440
      7  C          7.9740   -0.9680    0.8320 C.2     1  UNL1        0.0080
      8  C          7.9210   -1.4260   -1.5110 C.2     1  UNL1        0.0540
      9  C          8.4090   -2.2640    1.0420 C.2     1  UNL1        0.0510
     10  C          8.3600   -2.7360   -1.2930 C.2     1  UNL1        0.1660
     11  C          8.6060   -3.1580   -0.0060 C.2     1  UNL1        0.1650
     12  O          8.6270   -3.7910   -2.1400 O.2     1  UNL1       -0.4540
     13  O          9.0230   -4.4770   -0.0890 O.2     1  UNL1       -0.4540
     14  C          8.9630   -4.9460   -1.4150 C.3     1  UNL1        0.4680
@<TRIPOS>BOND
     1    12    14    1
     2    12    10    1
     3     8    10    1
     4     8     6    2
     5    14    13    1
     6    10    11    2
     7     5     6    1
     8     5     1    1
     9     6     7    1
    10     1     2    1
    11    13    11    1
    12    11     9    1
    13     7     9    2
    14     2     4    2
    15     2     3    1
