@<TRIPOS>MOLECULE
/home/cewinharhar/GITHUB/reincatalyze/data/processed/docking_pred/2023-May-24-1506_sub9_nm5_bs15_s42_ex16_mel10_mts10000_k50_ec02_g099_lra3e-4_lrc3e-3/404021d27c656f8fbd9408a440432f577c9906d0_ligand_9.pdbqt
 14 15 0 0 0
SMALL
GASTEIGER

@<TRIPOS>ATOM
      1  C          6.3660    1.2320    0.8860 C.3     1  UNL1        0.0800
      2  C          5.6680    0.4130    1.9160 C.2     1  UNL1        0.1300
      3  C          6.2910   -0.8070    2.4970 C.3     1  UNL1        0.0870
      4  O          4.5570    0.7210    2.3150 O.2     1  UNL1       -0.3000
      5  C          5.8540    0.9200   -0.5060 C.3     1  UNL1        0.0430
      6  C          6.8120    0.1000   -1.2690 C.2     1  UNL1       -0.0440
      7  C          7.5170    0.6210   -2.3590 C.2     1  UNL1        0.0080
      8  C          7.0280   -1.2110   -0.9070 C.2     1  UNL1        0.0540
      9  C          8.4040   -0.1950   -3.0370 C.2     1  UNL1        0.0510
     10  C          7.9260   -2.0320   -1.5960 C.2     1  UNL1        0.1660
     11  C          8.6190   -1.5200   -2.6700 C.2     1  UNL1        0.1650
     12  O          8.3100   -3.3460   -1.4350 O.2     1  UNL1       -0.4540
     13  O          9.4240   -2.5410   -3.1510 O.2     1  UNL1       -0.4540
     14  C          9.3270   -3.6890   -2.3420 C.3     1  UNL1        0.4680
@<TRIPOS>BOND
     1    13    11    1
     2    13    14    1
     3     9    11    2
     4     9     7    1
     5    11    10    1
     6     7     6    2
     7    14    12    1
     8    10    12    1
     9    10     8    2
    10     6     8    1
    11     6     5    1
    12     5     1    1
    13     1     2    1
    14     2     4    2
    15     2     3    1
