@<TRIPOS>MOLECULE
/home/cewinharhar/GITHUB/reincatalyze/data/processed/docking_pred/2023-May-24-1506_sub9_nm5_bs15_s42_ex16_mel10_mts10000_k50_ec02_g099_lra3e-4_lrc3e-3/41d0b72e0d67d5e9a3b384f9954b5fa92cfe5642_ligand_9.pdbqt
 14 15 0 0 0
SMALL
GASTEIGER

@<TRIPOS>ATOM
      1  C          5.7600    1.0530   -0.3340 C.3     1  UNL1        0.0800
      2  C          5.7030    1.2680    1.1390 C.2     1  UNL1        0.1300
      3  C          4.8430    0.4310    2.0170 C.3     1  UNL1        0.0870
      4  O          6.3650    2.1450    1.6700 O.2     1  UNL1       -0.3000
      5  C          7.1850    0.8370   -0.8040 C.3     1  UNL1        0.0430
      6  C          7.6540   -0.5310   -0.5180 C.2     1  UNL1       -0.0440
      7  C          7.8640   -0.9750    0.7920 C.2     1  UNL1        0.0080
      8  C          7.8910   -1.4010   -1.5580 C.2     1  UNL1        0.0540
      9  C          8.3040   -2.2700    0.9990 C.2     1  UNL1        0.0510
     10  C          8.3340   -2.7100   -1.3430 C.2     1  UNL1        0.1660
     11  C          8.5430   -3.1470   -0.0540 C.2     1  UNL1        0.1650
     12  O          8.6380   -3.7510   -2.1950 O.2     1  UNL1       -0.4540
     13  O          8.9730   -4.4620   -0.1420 O.2     1  UNL1       -0.4540
     14  C          8.9610   -4.9130   -1.4750 C.3     1  UNL1        0.4680
@<TRIPOS>BOND
     1    12    14    1
     2    12    10    1
     3     8    10    1
     4     8     6    2
     5    14    13    1
     6    10    11    2
     7     5     6    1
     8     5     1    1
     9     6     7    1
    10     1     2    1
    11    13    11    1
    12    11     9    1
    13     7     9    2
    14     2     4    2
    15     2     3    1
