@<TRIPOS>MOLECULE
/home/cewinharhar/GITHUB/reincatalyze/data/processed/docking_pred/2023-May-24-1506_sub9_nm5_bs15_s42_ex16_mel10_mts10000_k50_ec02_g099_lra3e-4_lrc3e-3/4295960a5818388fac6ce93a10a8a6662c8ec52f_ligand_9.pdbqt
 14 15 0 0 0
SMALL
GASTEIGER

@<TRIPOS>ATOM
      1  C          5.7680    1.3080   -0.3210 C.3     1  UNL1        0.0800
      2  C          5.2300    1.2430    1.0670 C.2     1  UNL1        0.1300
      3  C          5.4960    0.0780    1.9530 C.3     1  UNL1        0.0870
      4  O          4.5500    2.1500    1.5180 O.2     1  UNL1       -0.3000
      5  C          7.2680    1.0920   -0.3400 C.3     1  UNL1        0.0430
      6  C          7.6260   -0.2070   -0.9360 C.2     1  UNL1       -0.0440
      7  C          7.6650   -0.3920   -2.3230 C.2     1  UNL1        0.0080
      8  C          7.9340   -1.2710   -0.1190 C.2     1  UNL1        0.0540
      9  C          8.0090   -1.6340   -2.8250 C.2     1  UNL1        0.0510
     10  C          8.2810   -2.5250   -0.6320 C.2     1  UNL1        0.1660
     11  C          8.3180   -2.7080   -1.9960 C.2     1  UNL1        0.1650
     12  O          8.6230   -3.7210   -0.0380 O.2     1  UNL1       -0.4540
     13  O          8.6870   -4.0260   -2.2140 O.2     1  UNL1       -0.4540
     14  C          8.9780   -4.6790   -1.0020 C.3     1  UNL1        0.4680
@<TRIPOS>BOND
     1     9     7    1
     2     9    11    2
     3     7     6    2
     4    13    11    1
     5    13    14    1
     6    11    10    1
     7    14    12    1
     8     6     5    1
     9     6     8    1
    10    10     8    2
    11    10    12    1
    12     5     1    1
    13     1     2    1
    14     2     4    2
    15     2     3    1
