@<TRIPOS>MOLECULE
/home/cewinharhar/GITHUB/reincatalyze/data/processed/docking_pred/2023-May-24-1506_sub9_nm5_bs15_s42_ex16_mel10_mts10000_k50_ec02_g099_lra3e-4_lrc3e-3/437598aa9d4ddbb457dda5082e5f4820e6dbe55d_ligand_9.pdbqt
 14 15 0 0 0
SMALL
GASTEIGER

@<TRIPOS>ATOM
      1  C          5.8110    1.4970   -0.0580 C.3     1  UNL1        0.0800
      2  C          5.0460    1.2560    1.1970 C.2     1  UNL1        0.1300
      3  C          5.3340    0.0900    2.0750 C.3     1  UNL1        0.0870
      4  O          4.1550    2.0140    1.5430 O.2     1  UNL1       -0.3000
      5  C          7.2730    1.1350    0.1100 C.3     1  UNL1        0.0430
      6  C          7.6070   -0.1250   -0.5780 C.2     1  UNL1       -0.0440
      7  C          7.5950   -0.2240   -1.9740 C.2     1  UNL1        0.0080
      8  C          7.9430   -1.2370    0.1610 C.2     1  UNL1        0.0540
      9  C          7.9180   -1.4330   -2.5640 C.2     1  UNL1        0.0510
     10  C          8.2700   -2.4560   -0.4410 C.2     1  UNL1        0.1660
     11  C          8.2560   -2.5550   -1.8140 C.2     1  UNL1        0.1650
     12  O          8.6310   -3.6870    0.0660 O.2     1  UNL1       -0.4540
     13  O          8.6150   -3.8570   -2.1260 O.2     1  UNL1       -0.4540
     14  C          8.9490   -4.5830   -0.9680 C.3     1  UNL1        0.4680
@<TRIPOS>BOND
     1     9     7    1
     2     9    11    2
     3    13    11    1
     4    13    14    1
     5     7     6    2
     6    11    10    1
     7    14    12    1
     8     6     5    1
     9     6     8    1
    10    10    12    1
    11    10     8    2
    12     1     5    1
    13     1     2    1
    14     2     4    2
    15     2     3    1
