@<TRIPOS>MOLECULE
/home/cewinharhar/GITHUB/reincatalyze/data/processed/docking_pred/2023-May-24-1506_sub9_nm5_bs15_s42_ex16_mel10_mts10000_k50_ec02_g099_lra3e-4_lrc3e-3/437598aa9d4ddbb457dda5082e5f4820e6dbe55d_ligand_9.pdbqt
 14 15 0 0 0
SMALL
GASTEIGER

@<TRIPOS>ATOM
      1  C          6.8110    0.7050    1.4370 C.3     1  UNL1        0.0800
      2  C          5.3730    1.0850    1.5220 C.2     1  UNL1        0.1300
      3  C          4.7860    2.1220    0.6320 C.3     1  UNL1        0.0870
      4  O          4.6310    0.5520    2.3310 O.2     1  UNL1       -0.3000
      5  C          7.3640    0.9490    0.0470 C.3     1  UNL1        0.0430
      6  C          7.6750   -0.3140   -0.6460 C.2     1  UNL1       -0.0440
      7  C          7.6510   -0.4090   -2.0420 C.2     1  UNL1        0.0080
      8  C          8.0020   -1.4320    0.0870 C.2     1  UNL1        0.0540
      9  C          7.9540   -1.6200   -2.6380 C.2     1  UNL1        0.0510
     10  C          8.3070   -2.6540   -0.5200 C.2     1  UNL1        0.1660
     11  C          8.2830   -2.7480   -1.8940 C.2     1  UNL1        0.1650
     12  O          8.6560   -3.8900   -0.0200 O.2     1  UNL1       -0.4540
     13  O          8.6220   -4.0540   -2.2120 O.2     1  UNL1       -0.4540
     14  C          8.9550   -4.7880   -1.0580 C.3     1  UNL1        0.4680
@<TRIPOS>BOND
     1     9     7    1
     2     9    11    2
     3    13    11    1
     4    13    14    1
     5     7     6    2
     6    11    10    1
     7    14    12    1
     8     6     5    1
     9     6     8    1
    10    10    12    1
    11    10     8    2
    12     5     1    1
    13     3     2    1
    14     1     2    1
    15     2     4    2
