@<TRIPOS>MOLECULE
/home/cewinharhar/GITHUB/reincatalyze/data/processed/docking_pred/2023-May-24-1506_sub9_nm5_bs15_s42_ex16_mel10_mts10000_k50_ec02_g099_lra3e-4_lrc3e-3/46824fcf52dc560be674bfd6df7e039c48ea1670_ligand_9.pdbqt
 14 15 0 0 0
SMALL
GASTEIGER

@<TRIPOS>ATOM
      1  C          5.5400    1.8660    1.3020 C.3     1  UNL1        0.0800
      2  C          5.0750    0.6470    2.0200 C.2     1  UNL1        0.1300
      3  C          5.9430   -0.5520    2.1660 C.3     1  UNL1        0.0870
      4  O          3.9600    0.5970    2.5140 O.2     1  UNL1       -0.3000
      5  C          5.4090    1.7030   -0.2000 C.3     1  UNL1        0.0430
      6  C          6.5740    1.0090   -0.7770 C.2     1  UNL1       -0.0440
      7  C          7.8810    1.4560   -0.5500 C.2     1  UNL1        0.0080
      8  C          6.3840   -0.1090   -1.5580 C.2     1  UNL1        0.0540
      9  C          8.9350    0.7630   -1.1170 C.2     1  UNL1        0.0510
     10  C          7.4530   -0.8060   -2.1290 C.2     1  UNL1        0.1660
     11  C          8.7390   -0.3660   -1.9070 C.2     1  UNL1        0.1650
     12  O          7.5240   -1.9250   -2.9300 O.2     1  UNL1       -0.4540
     13  O          9.5810   -1.2340   -2.5830 O.2     1  UNL1       -0.4540
     14  C          8.8590   -2.2900   -3.1700 C.3     1  UNL1        0.4680
@<TRIPOS>BOND
     1    14    12    1
     2    14    13    1
     3    12    10    1
     4    13    11    1
     5    10    11    2
     6    10     8    1
     7    11     9    1
     8     8     6    2
     9     9     7    2
    10     6     7    1
    11     6     5    1
    12     5     1    1
    13     1     2    1
    14     2     3    1
    15     2     4    2
