@<TRIPOS>MOLECULE
/home/cewinharhar/GITHUB/reincatalyze/data/processed/docking_pred/2023-May-24-1506_sub9_nm5_bs15_s42_ex16_mel10_mts10000_k50_ec02_g099_lra3e-4_lrc3e-3/46824fcf52dc560be674bfd6df7e039c48ea1670_ligand_9.pdbqt
 14 15 0 0 0
SMALL
GASTEIGER

@<TRIPOS>ATOM
      1  C          5.7120    1.3360   -0.2820 C.3     1  UNL1        0.0800
      2  C          5.1170    1.2710    1.0820 C.2     1  UNL1        0.1300
      3  C          5.4100    0.1450    2.0090 C.3     1  UNL1        0.0870
      4  O          4.3650    2.1460    1.4810 O.2     1  UNL1       -0.3000
      5  C          7.2100    1.1080   -0.2400 C.3     1  UNL1        0.0430
      6  C          7.5830   -0.1830   -0.8440 C.2     1  UNL1       -0.0440
      7  C          7.6240   -0.3590   -2.2320 C.2     1  UNL1        0.0080
      8  C          7.9030   -1.2490   -0.0330 C.2     1  UNL1        0.0540
      9  C          7.9820   -1.5940   -2.7420 C.2     1  UNL1        0.0510
     10  C          8.2650   -2.4950   -0.5540 C.2     1  UNL1        0.1660
     11  C          8.3040   -2.6690   -1.9190 C.2     1  UNL1        0.1650
     12  O          8.6210   -3.6910    0.0330 O.2     1  UNL1       -0.4540
     13  O          8.6890   -3.9810   -2.1450 O.2     1  UNL1       -0.4540
     14  C          8.9870   -4.6390   -0.9370 C.3     1  UNL1        0.4680
@<TRIPOS>BOND
     1     9     7    1
     2     9    11    2
     3     7     6    2
     4    13    11    1
     5    13    14    1
     6    11    10    1
     7    14    12    1
     8     6     5    1
     9     6     8    1
    10    10     8    2
    11    10    12    1
    12     1     5    1
    13     1     2    1
    14     2     4    2
    15     2     3    1
