MODEL 1
REMARK VINA RESULT:      -7.6      0.000      0.000
REMARK SMILES CC(=O)CCc1ccc2c(c1)OCO2
REMARK SMILES IDX 4 1 2 2 1 3 3 4 5 5 6 6 7 7 11 8 8 9 10 10 9 11 12 12 14 13
REMARK SMILES IDX 13 14
REMARK H PARENT
REMARK Flexibility Score: inf
ROOT
ATOM      1  C   UNL     1       5.540   1.866   1.302  1.00  0.00     0.080 C 
ENDROOT
BRANCH   1   2
ATOM      2  C   UNL     1       5.075   0.647   2.020  1.00  0.00     0.130 C 
ATOM      3  C   UNL     1       5.943  -0.552   2.166  1.00  0.00     0.087 C 
ATOM      4  O   UNL     1       3.960   0.597   2.514  1.00  0.00    -0.300 OA
ENDBRANCH   1   2
BRANCH   1   5
ATOM      5  C   UNL     1       5.409   1.703  -0.200  1.00  0.00     0.043 C 
BRANCH   5   6
ATOM      6  C   UNL     1       6.574   1.009  -0.777  1.00  0.00    -0.044 A 
ATOM      7  C   UNL     1       7.881   1.456  -0.550  1.00  0.00     0.008 A 
ATOM      8  C   UNL     1       6.384  -0.109  -1.558  1.00  0.00     0.054 A 
ATOM      9  C   UNL     1       8.935   0.763  -1.117  1.00  0.00     0.051 A 
ATOM     10  C   UNL     1       7.453  -0.806  -2.129  1.00  0.00     0.166 A 
ATOM     11  C   UNL     1       8.739  -0.366  -1.907  1.00  0.00     0.165 A 
ATOM     12  O   UNL     1       7.524  -1.925  -2.930  1.00  0.00    -0.454 OA
ATOM     13  O   UNL     1       9.581  -1.234  -2.583  1.00  0.00    -0.454 OA
ATOM     14  C   UNL     1       8.859  -2.290  -3.170  1.00  0.00     0.468 C 
ENDBRANCH   5   6
ENDBRANCH   1   5
TORSDOF 3
ENDMDL
MODEL 2
REMARK VINA RESULT:      -7.4      1.919      2.381
REMARK SMILES CC(=O)CCc1ccc2c(c1)OCO2
REMARK SMILES IDX 4 1 2 2 1 3 3 4 5 5 6 6 7 7 11 8 8 9 10 10 9 11 12 12 14 13
REMARK SMILES IDX 13 14
REMARK H PARENT
REMARK Flexibility Score: inf
ROOT
ATOM      1  C   UNL     1       5.712   1.336  -0.282  1.00  0.00     0.080 C 
ENDROOT
BRANCH   1   2
ATOM      2  C   UNL     1       5.117   1.271   1.082  1.00  0.00     0.130 C 
ATOM      3  C   UNL     1       5.410   0.145   2.009  1.00  0.00     0.087 C 
ATOM      4  O   UNL     1       4.365   2.146   1.481  1.00  0.00    -0.300 OA
ENDBRANCH   1   2
BRANCH   1   5
ATOM      5  C   UNL     1       7.210   1.108  -0.240  1.00  0.00     0.043 C 
BRANCH   5   6
ATOM      6  C   UNL     1       7.583  -0.183  -0.844  1.00  0.00    -0.044 A 
ATOM      7  C   UNL     1       7.624  -0.359  -2.232  1.00  0.00     0.008 A 
ATOM      8  C   UNL     1       7.903  -1.249  -0.033  1.00  0.00     0.054 A 
ATOM      9  C   UNL     1       7.982  -1.594  -2.742  1.00  0.00     0.051 A 
ATOM     10  C   UNL     1       8.265  -2.495  -0.554  1.00  0.00     0.166 A 
ATOM     11  C   UNL     1       8.304  -2.669  -1.919  1.00  0.00     0.165 A 
ATOM     12  O   UNL     1       8.621  -3.691   0.033  1.00  0.00    -0.454 OA
ATOM     13  O   UNL     1       8.689  -3.981  -2.145  1.00  0.00    -0.454 OA
ATOM     14  C   UNL     1       8.987  -4.639  -0.937  1.00  0.00     0.468 C 
ENDBRANCH   5   6
ENDBRANCH   1   5
TORSDOF 3
ENDMDL
MODEL 3
REMARK VINA RESULT:      -7.1      2.037      2.590
REMARK SMILES CC(=O)CCc1ccc2c(c1)OCO2
REMARK SMILES IDX 4 1 2 2 1 3 3 4 5 5 6 6 7 7 11 8 8 9 10 10 9 11 12 12 14 13
REMARK SMILES IDX 13 14
REMARK H PARENT
REMARK Flexibility Score: inf
ROOT
ATOM      1  C   UNL     1       5.467  -0.022   2.013  1.00  0.00     0.080 C 
ENDROOT
BRANCH   1   2
ATOM      2  C   UNL     1       4.586   1.152   1.758  1.00  0.00     0.130 C 
ATOM      3  C   UNL     1       4.884   2.132   0.679  1.00  0.00     0.087 C 
ATOM      4  O   UNL     1       3.588   1.345   2.432  1.00  0.00    -0.300 OA
ENDBRANCH   1   2
BRANCH   1   5
ATOM      5  C   UNL     1       6.887   0.245   1.551  1.00  0.00     0.043 C 
BRANCH   5   6
ATOM      6  C   UNL     1       7.301  -0.691   0.491  1.00  0.00    -0.044 A 
ATOM      7  C   UNL     1       7.169  -0.368  -0.864  1.00  0.00     0.008 A 
ATOM      8  C   UNL     1       7.834  -1.914   0.830  1.00  0.00     0.054 A 
ATOM      9  C   UNL     1       7.576  -1.286  -1.816  1.00  0.00     0.051 A 
ATOM     10  C   UNL     1       8.245  -2.838  -0.135  1.00  0.00     0.166 A 
ATOM     11  C   UNL     1       8.114  -2.522  -1.469  1.00  0.00     0.165 A 
ATOM     12  O   UNL     1       8.795  -4.099  -0.054  1.00  0.00    -0.454 OA
ATOM     13  O   UNL     1       8.593  -3.606  -2.187  1.00  0.00    -0.454 OA
ATOM     14  C   UNL     1       9.119  -4.591  -1.329  1.00  0.00     0.468 C 
ENDBRANCH   5   6
ENDBRANCH   1   5
TORSDOF 3
ENDMDL
MODEL 4
REMARK VINA RESULT:      -7.0      1.231      1.419
REMARK SMILES CC(=O)CCc1ccc2c(c1)OCO2
REMARK SMILES IDX 4 1 2 2 1 3 3 4 5 5 6 6 7 7 11 8 8 9 10 10 9 11 12 12 14 13
REMARK SMILES IDX 13 14
REMARK H PARENT
REMARK Flexibility Score: inf
ROOT
ATOM      1  C   UNL     1       6.332   1.265   0.857  1.00  0.00     0.080 C 
ENDROOT
BRANCH   1   2
ATOM      2  C   UNL     1       5.655   0.453   1.906  1.00  0.00     0.130 C 
ATOM      3  C   UNL     1       6.281  -0.772   2.470  1.00  0.00     0.087 C 
ATOM      4  O   UNL     1       4.559   0.773   2.336  1.00  0.00    -0.300 OA
ENDBRANCH   1   2
BRANCH   1   5
ATOM      5  C   UNL     1       5.824   0.910  -0.527  1.00  0.00     0.043 C 
BRANCH   5   6
ATOM      6  C   UNL     1       6.802   0.103  -1.278  1.00  0.00    -0.044 A 
ATOM      7  C   UNL     1       7.539   0.644  -2.337  1.00  0.00     0.008 A 
ATOM      8  C   UNL     1       7.005  -1.215  -0.936  1.00  0.00     0.054 A 
ATOM      9  C   UNL     1       8.444  -0.161  -3.005  1.00  0.00     0.051 A 
ATOM     10  C   UNL     1       7.921  -2.024  -1.614  1.00  0.00     0.166 A 
ATOM     11  C   UNL     1       8.646  -1.493  -2.658  1.00  0.00     0.165 A 
ATOM     12  O   UNL     1       8.298  -3.342  -1.469  1.00  0.00    -0.454 OA
ATOM     13  O   UNL     1       9.463  -2.506  -3.135  1.00  0.00    -0.454 OA
ATOM     14  C   UNL     1       9.340  -3.670  -2.352  1.00  0.00     0.468 C 
ENDBRANCH   5   6
ENDBRANCH   1   5
TORSDOF 3
ENDMDL
MODEL 5
REMARK VINA RESULT:      -6.7      1.182      5.191
REMARK SMILES CC(=O)CCc1ccc2c(c1)OCO2
REMARK SMILES IDX 4 1 2 2 1 3 3 4 5 5 6 6 7 7 11 8 8 9 10 10 9 11 12 12 14 13
REMARK SMILES IDX 13 14
REMARK H PARENT
REMARK Flexibility Score: inf
ROOT
ATOM      1  C   UNL     1       8.372   0.243  -2.510  1.00  0.00     0.080 C 
ENDROOT
BRANCH   1   2
ATOM      2  C   UNL     1       8.031  -1.198  -2.678  1.00  0.00     0.130 C 
ATOM      3  C   UNL     1       9.063  -2.209  -3.030  1.00  0.00     0.087 C 
ATOM      4  O   UNL     1       6.886  -1.592  -2.530  1.00  0.00    -0.300 OA
ENDBRANCH   1   2
BRANCH   1   5
ATOM      5  C   UNL     1       8.872   0.530  -1.109  1.00  0.00     0.043 C 
BRANCH   5   6
ATOM      6  C   UNL     1       7.799   0.399  -0.108  1.00  0.00    -0.044 A 
ATOM      7  C   UNL     1       7.851  -0.570   0.901  1.00  0.00     0.008 A 
ATOM      8  C   UNL     1       6.715   1.246  -0.154  1.00  0.00     0.054 A 
ATOM      9  C   UNL     1       6.815  -0.646   1.813  1.00  0.00     0.051 A 
ATOM     10  C   UNL     1       5.670   1.166   0.771  1.00  0.00     0.166 A 
ATOM     11  C   UNL     1       5.720   0.212   1.763  1.00  0.00     0.165 A 
ATOM     12  O   UNL     1       4.502   1.881   0.934  1.00  0.00    -0.454 OA
ATOM     13  O   UNL     1       4.571   0.363   2.522  1.00  0.00    -0.454 OA
ATOM     14  C   UNL     1       3.815   1.467   2.087  1.00  0.00     0.468 C 
ENDBRANCH   5   6
ENDBRANCH   1   5
TORSDOF 3
ENDMDL
