@<TRIPOS>MOLECULE
/home/cewinharhar/GITHUB/reincatalyze/data/processed/docking_pred/2023-May-24-1506_sub9_nm5_bs15_s42_ex16_mel10_mts10000_k50_ec02_g099_lra3e-4_lrc3e-3/46824fcf52dc560be674bfd6df7e039c48ea1670_ligand_9.pdbqt
 14 15 0 0 0
SMALL
GASTEIGER

@<TRIPOS>ATOM
      1  C          8.3720    0.2430   -2.5100 C.3     1  UNL1        0.0800
      2  C          8.0310   -1.1980   -2.6780 C.2     1  UNL1        0.1300
      3  C          9.0630   -2.2090   -3.0300 C.3     1  UNL1        0.0870
      4  O          6.8860   -1.5920   -2.5300 O.2     1  UNL1       -0.3000
      5  C          8.8720    0.5300   -1.1090 C.3     1  UNL1        0.0430
      6  C          7.7990    0.3990   -0.1080 C.2     1  UNL1       -0.0440
      7  C          7.8510   -0.5700    0.9010 C.2     1  UNL1        0.0080
      8  C          6.7150    1.2460   -0.1540 C.2     1  UNL1        0.0540
      9  C          6.8150   -0.6460    1.8130 C.2     1  UNL1        0.0510
     10  C          5.6700    1.1660    0.7710 C.2     1  UNL1        0.1660
     11  C          5.7200    0.2120    1.7630 C.2     1  UNL1        0.1650
     12  O          4.5020    1.8810    0.9340 O.2     1  UNL1       -0.4540
     13  O          4.5710    0.3630    2.5220 O.2     1  UNL1       -0.4540
     14  C          3.8150    1.4670    2.0870 C.3     1  UNL1        0.4680
@<TRIPOS>BOND
     1     3     2    1
     2     2     4    2
     3     2     1    1
     4     1     5    1
     5     5     6    1
     6     8     6    2
     7     8    10    1
     8     6     7    1
     9    10    12    1
    10    10    11    2
    11     7     9    2
    12    12    14    1
    13    11     9    1
    14    11    13    1
    15    14    13    1
