@<TRIPOS>MOLECULE
/home/cewinharhar/GITHUB/reincatalyze/data/processed/docking_pred/2023-May-24-1506_sub9_nm5_bs15_s42_ex16_mel10_mts10000_k50_ec02_g099_lra3e-4_lrc3e-3/46824fcf52dc560be674bfd6df7e039c48ea1670_ligand_9.pdbqt
 14 15 0 0 0
SMALL
GASTEIGER

@<TRIPOS>ATOM
      1  C          5.4670   -0.0220    2.0130 C.3     1  UNL1        0.0800
      2  C          4.5860    1.1520    1.7580 C.2     1  UNL1        0.1300
      3  C          4.8840    2.1320    0.6790 C.3     1  UNL1        0.0870
      4  O          3.5880    1.3450    2.4320 O.2     1  UNL1       -0.3000
      5  C          6.8870    0.2450    1.5510 C.3     1  UNL1        0.0430
      6  C          7.3010   -0.6910    0.4910 C.2     1  UNL1       -0.0440
      7  C          7.1690   -0.3680   -0.8640 C.2     1  UNL1        0.0080
      8  C          7.8340   -1.9140    0.8300 C.2     1  UNL1        0.0540
      9  C          7.5760   -1.2860   -1.8160 C.2     1  UNL1        0.0510
     10  C          8.2450   -2.8380   -0.1350 C.2     1  UNL1        0.1660
     11  C          8.1140   -2.5220   -1.4690 C.2     1  UNL1        0.1650
     12  O          8.7950   -4.0990   -0.0540 O.2     1  UNL1       -0.4540
     13  O          8.5930   -3.6060   -2.1870 O.2     1  UNL1       -0.4540
     14  C          9.1190   -4.5910   -1.3290 C.3     1  UNL1        0.4680
@<TRIPOS>BOND
     1    13    11    1
     2    13    14    1
     3     9    11    2
     4     9     7    1
     5    11    10    1
     6    14    12    1
     7     7     6    2
     8    10    12    1
     9    10     8    2
    10     6     8    1
    11     6     5    1
    12     3     2    1
    13     5     1    1
    14     2     1    1
    15     2     4    2
