@<TRIPOS>MOLECULE
/home/cewinharhar/GITHUB/reincatalyze/data/processed/docking_pred/2023-May-24-1506_sub9_nm5_bs15_s42_ex16_mel10_mts10000_k50_ec02_g099_lra3e-4_lrc3e-3/46861e00ed193d15618049a480e2ca269f83ce14_ligand_9.pdbqt
 14 15 0 0 0
SMALL
GASTEIGER

@<TRIPOS>ATOM
      1  C          6.3970    1.2110    0.9330 C.3     1  UNL1        0.0800
      2  C          5.6760    0.3670    1.9260 C.2     1  UNL1        0.1300
      3  C          6.2890   -0.8620    2.4980 C.3     1  UNL1        0.0870
      4  O          4.5530    0.6630    2.3020 O.2     1  UNL1       -0.3000
      5  C          5.8930    0.9560   -0.4740 C.3     1  UNL1        0.0430
      6  C          6.8290    0.1200   -1.2470 C.2     1  UNL1       -0.0440
      7  C          7.5150    0.6240   -2.3580 C.2     1  UNL1        0.0080
      8  C          7.0440   -1.1870   -0.8740 C.2     1  UNL1        0.0540
      9  C          8.3820   -0.2070   -3.0450 C.2     1  UNL1        0.0510
     10  C          7.9220   -2.0230   -1.5710 C.2     1  UNL1        0.1660
     11  C          8.5960   -1.5280   -2.6650 C.2     1  UNL1        0.1650
     12  O          8.3010   -3.3380   -1.4020 O.2     1  UNL1       -0.4540
     13  O          9.3840   -2.5610   -3.1500 O.2     1  UNL1       -0.4540
     14  C          9.2960   -3.6980   -2.3260 C.3     1  UNL1        0.4680
@<TRIPOS>BOND
     1    13    11    1
     2    13    14    1
     3     9    11    2
     4     9     7    1
     5    11    10    1
     6     7     6    2
     7    14    12    1
     8    10    12    1
     9    10     8    2
    10     6     8    1
    11     6     5    1
    12     5     1    1
    13     1     2    1
    14     2     4    2
    15     2     3    1
