@<TRIPOS>MOLECULE
/home/cewinharhar/GITHUB/reincatalyze/data/processed/docking_pred/2023-May-24-1506_sub9_nm5_bs15_s42_ex16_mel10_mts10000_k50_ec02_g099_lra3e-4_lrc3e-3/46861e00ed193d15618049a480e2ca269f83ce14_ligand_9.pdbqt
 14 15 0 0 0
SMALL
GASTEIGER

@<TRIPOS>ATOM
      1  C          5.7180    1.2460   -0.3110 C.3     1  UNL1        0.0800
      2  C          5.1440    1.2350    1.0630 C.2     1  UNL1        0.1300
      3  C          5.4040    0.1170    2.0090 C.3     1  UNL1        0.0870
      4  O          4.4380    2.1500    1.4550 O.2     1  UNL1       -0.3000
      5  C          7.2230    1.0660   -0.2810 C.3     1  UNL1        0.0430
      6  C          7.6320   -0.2160   -0.8810 C.2     1  UNL1       -0.0440
      7  C          7.7740   -0.3660   -2.2650 C.2     1  UNL1        0.0080
      8  C          7.8860   -1.2990   -0.0690 C.2     1  UNL1        0.0540
      9  C          8.1620   -1.5930   -2.7710 C.2     1  UNL1        0.0510
     10  C          8.2780   -2.5370   -0.5850 C.2     1  UNL1        0.1660
     11  C          8.4170   -2.6860   -1.9470 C.2     1  UNL1        0.1650
     12  O          8.5830   -3.7460    0.0030 O.2     1  UNL1       -0.4540
     13  O          8.8100   -3.9960   -2.1700 O.2     1  UNL1       -0.4540
     14  C          9.0150   -4.6780   -0.9550 C.3     1  UNL1        0.4680
@<TRIPOS>BOND
     1     9     7    1
     2     9    11    2
     3     7     6    2
     4    13    11    1
     5    13    14    1
     6    11    10    1
     7    14    12    1
     8     6     5    1
     9     6     8    1
    10    10     8    2
    11    10    12    1
    12     1     5    1
    13     1     2    1
    14     2     4    2
    15     2     3    1
