MODEL 1
REMARK VINA RESULT:      -7.7      0.000      0.000
REMARK SMILES CC(=O)CCc1ccc2c(c1)OCO2
REMARK SMILES IDX 4 1 2 2 1 3 3 4 5 5 6 6 7 7 11 8 8 9 10 10 9 11 12 12 14 13
REMARK SMILES IDX 13 14
REMARK H PARENT
REMARK Flexibility Score: inf
ROOT
ATOM      1  C   UNL     1       5.535   1.892   1.290  1.00  0.00     0.080 C 
ENDROOT
BRANCH   1   2
ATOM      2  C   UNL     1       5.093   0.668   2.016  1.00  0.00     0.130 C 
ATOM      3  C   UNL     1       5.985  -0.512   2.172  1.00  0.00     0.087 C 
ATOM      4  O   UNL     1       3.978   0.599   2.507  1.00  0.00    -0.300 OA
ENDBRANCH   1   2
BRANCH   1   5
ATOM      5  C   UNL     1       5.405   1.718  -0.210  1.00  0.00     0.043 C 
BRANCH   5   6
ATOM      6  C   UNL     1       6.569   1.018  -0.782  1.00  0.00    -0.044 A 
ATOM      7  C   UNL     1       7.877   1.454  -0.542  1.00  0.00     0.008 A 
ATOM      8  C   UNL     1       6.377  -0.094  -1.571  1.00  0.00     0.054 A 
ATOM      9  C   UNL     1       8.931   0.757  -1.105  1.00  0.00     0.051 A 
ATOM     10  C   UNL     1       7.446  -0.795  -2.136  1.00  0.00     0.166 A 
ATOM     11  C   UNL     1       8.733  -0.366  -1.902  1.00  0.00     0.165 A 
ATOM     12  O   UNL     1       7.515  -1.911  -2.944  1.00  0.00    -0.454 OA
ATOM     13  O   UNL     1       9.575  -1.237  -2.576  1.00  0.00    -0.454 OA
ATOM     14  C   UNL     1       8.849  -2.284  -3.175  1.00  0.00     0.468 C 
ENDBRANCH   5   6
ENDBRANCH   1   5
TORSDOF 3
ENDMDL
MODEL 2
REMARK VINA RESULT:      -7.4      1.825      2.278
REMARK SMILES CC(=O)CCc1ccc2c(c1)OCO2
REMARK SMILES IDX 4 1 2 2 1 3 3 4 5 5 6 6 7 7 11 8 8 9 10 10 9 11 12 12 14 13
REMARK SMILES IDX 13 14
REMARK H PARENT
REMARK Flexibility Score: inf
ROOT
ATOM      1  C   UNL     1       5.718   1.458  -0.267  1.00  0.00     0.080 C 
ENDROOT
BRANCH   1   2
ATOM      2  C   UNL     1       5.071   1.286   1.064  1.00  0.00     0.130 C 
ATOM      3  C   UNL     1       5.404   0.140   1.952  1.00  0.00     0.087 C 
ATOM      4  O   UNL     1       4.243   2.087   1.466  1.00  0.00    -0.300 OA
ENDBRANCH   1   2
BRANCH   1   5
ATOM      5  C   UNL     1       7.209   1.193  -0.192  1.00  0.00     0.043 C 
BRANCH   5   6
ATOM      6  C   UNL     1       7.572  -0.073  -0.854  1.00  0.00    -0.044 A 
ATOM      7  C   UNL     1       7.595  -0.191  -2.248  1.00  0.00     0.008 A 
ATOM      8  C   UNL     1       7.902  -1.171  -0.092  1.00  0.00     0.054 A 
ATOM      9  C   UNL     1       7.945  -1.404  -2.813  1.00  0.00     0.051 A 
ATOM     10  C   UNL     1       8.255  -2.395  -0.668  1.00  0.00     0.166 A 
ATOM     11  C   UNL     1       8.277  -2.512  -2.040  1.00  0.00     0.165 A 
ATOM     12  O   UNL     1       8.617  -3.614  -0.136  1.00  0.00    -0.454 OA
ATOM     13  O   UNL     1       8.656  -3.815  -2.325  1.00  0.00    -0.454 OA
ATOM     14  C   UNL     1       8.970  -4.522  -1.148  1.00  0.00     0.468 C 
ENDBRANCH   5   6
ENDBRANCH   1   5
TORSDOF 3
ENDMDL
MODEL 3
REMARK VINA RESULT:      -7.2      2.045      2.620
REMARK SMILES CC(=O)CCc1ccc2c(c1)OCO2
REMARK SMILES IDX 4 1 2 2 1 3 3 4 5 5 6 6 7 7 11 8 8 9 10 10 9 11 12 12 14 13
REMARK SMILES IDX 13 14
REMARK H PARENT
REMARK Flexibility Score: inf
ROOT
ATOM      1  C   UNL     1       5.401  -0.076   2.015  1.00  0.00     0.080 C 
ENDROOT
BRANCH   1   2
ATOM      2  C   UNL     1       4.559   1.127   1.765  1.00  0.00     0.130 C 
ATOM      3  C   UNL     1       4.914   2.127   0.723  1.00  0.00     0.087 C 
ATOM      4  O   UNL     1       3.546   1.329   2.415  1.00  0.00    -0.300 OA
ENDBRANCH   1   2
BRANCH   1   5
ATOM      5  C   UNL     1       6.842   0.168   1.613  1.00  0.00     0.043 C 
BRANCH   5   6
ATOM      6  C   UNL     1       7.273  -0.747   0.541  1.00  0.00    -0.044 A 
ATOM      7  C   UNL     1       7.148  -0.404  -0.810  1.00  0.00     0.008 A 
ATOM      8  C   UNL     1       7.816  -1.970   0.865  1.00  0.00     0.054 A 
ATOM      9  C   UNL     1       7.571  -1.303  -1.772  1.00  0.00     0.051 A 
ATOM     10  C   UNL     1       8.242  -2.875  -0.111  1.00  0.00     0.166 A 
ATOM     11  C   UNL     1       8.118  -2.538  -1.441  1.00  0.00     0.165 A 
ATOM     12  O   UNL     1       8.804  -4.132  -0.046  1.00  0.00    -0.454 OA
ATOM     13  O   UNL     1       8.613  -3.607  -2.172  1.00  0.00    -0.454 OA
ATOM     14  C   UNL     1       9.142  -4.600  -1.327  1.00  0.00     0.468 C 
ENDBRANCH   5   6
ENDBRANCH   1   5
TORSDOF 3
ENDMDL
MODEL 4
REMARK VINA RESULT:      -7.1      1.243      1.442
REMARK SMILES CC(=O)CCc1ccc2c(c1)OCO2
REMARK SMILES IDX 4 1 2 2 1 3 3 4 5 5 6 6 7 7 11 8 8 9 10 10 9 11 12 12 14 13
REMARK SMILES IDX 13 14
REMARK H PARENT
REMARK Flexibility Score: inf
ROOT
ATOM      1  C   UNL     1       6.359   1.240   0.926  1.00  0.00     0.080 C 
ENDROOT
BRANCH   1   2
ATOM      2  C   UNL     1       5.653   0.401   1.935  1.00  0.00     0.130 C 
ATOM      3  C   UNL     1       6.286  -0.810   2.523  1.00  0.00     0.087 C 
ATOM      4  O   UNL     1       4.528   0.687   2.310  1.00  0.00    -0.300 OA
ENDBRANCH   1   2
BRANCH   1   5
ATOM      5  C   UNL     1       5.856   0.954  -0.475  1.00  0.00     0.043 C 
BRANCH   5   6
ATOM      6  C   UNL     1       6.806   0.127  -1.239  1.00  0.00    -0.044 A 
ATOM      7  C   UNL     1       7.499   0.636  -2.344  1.00  0.00     0.008 A 
ATOM      8  C   UNL     1       7.028  -1.179  -0.865  1.00  0.00     0.054 A 
ATOM      9  C   UNL     1       8.379  -0.187  -3.022  1.00  0.00     0.051 A 
ATOM     10  C   UNL     1       7.920  -2.007  -1.553  1.00  0.00     0.166 A 
ATOM     11  C   UNL     1       8.600  -1.507  -2.641  1.00  0.00     0.165 A 
ATOM     12  O   UNL     1       8.307  -3.319  -1.381  1.00  0.00    -0.454 OA
ATOM     13  O   UNL     1       9.401  -2.533  -3.119  1.00  0.00    -0.454 OA
ATOM     14  C   UNL     1       9.314  -3.671  -2.295  1.00  0.00     0.468 C 
ENDBRANCH   5   6
ENDBRANCH   1   5
TORSDOF 3
ENDMDL
MODEL 5
REMARK VINA RESULT:      -6.8      1.257      1.748
REMARK SMILES CC(=O)CCc1ccc2c(c1)OCO2
REMARK SMILES IDX 4 1 2 2 1 3 3 4 5 5 6 6 7 7 11 8 8 9 10 10 9 11 12 12 14 13
REMARK SMILES IDX 13 14
REMARK H PARENT
REMARK Flexibility Score: inf
ROOT
ATOM      1  C   UNL     1       5.313  -0.090   1.947  1.00  0.00     0.080 C 
ENDROOT
BRANCH   1   2
ATOM      2  C   UNL     1       4.443   1.108   1.789  1.00  0.00     0.130 C 
ATOM      3  C   UNL     1       4.725   2.148   0.764  1.00  0.00     0.087 C 
ATOM      4  O   UNL     1       3.466   1.272   2.502  1.00  0.00    -0.300 OA
ENDBRANCH   1   2
BRANCH   1   5
ATOM      5  C   UNL     1       6.781   0.286   1.901  1.00  0.00     0.043 C 
BRANCH   5   6
ATOM      6  C   UNL     1       7.393  -0.062   0.606  1.00  0.00    -0.044 A 
ATOM      7  C   UNL     1       7.898   0.921  -0.254  1.00  0.00     0.008 A 
ATOM      8  C   UNL     1       7.477  -1.381   0.223  1.00  0.00     0.054 A 
ATOM      9  C   UNL     1       8.462   0.536  -1.456  1.00  0.00     0.051 A 
ATOM     10  C   UNL     1       8.049  -1.766  -0.994  1.00  0.00     0.166 A 
ATOM     11  C   UNL     1       8.545  -0.799  -1.840  1.00  0.00     0.165 A 
ATOM     12  O   UNL     1       8.247  -2.991  -1.593  1.00  0.00    -0.454 OA
ATOM     13  O   UNL     1       9.044  -1.459  -2.953  1.00  0.00    -0.454 OA
ATOM     14  C   UNL     1       8.958  -2.855  -2.797  1.00  0.00     0.468 C 
ENDBRANCH   5   6
ENDBRANCH   1   5
TORSDOF 3
ENDMDL
