@<TRIPOS>MOLECULE
/home/cewinharhar/GITHUB/reincatalyze/data/processed/docking_pred/2023-May-24-1506_sub9_nm5_bs15_s42_ex16_mel10_mts10000_k50_ec02_g099_lra3e-4_lrc3e-3/49b3117837231080fe644fe44c00424f4b8d2b91_ligand_9.pdbqt
 14 15 0 0 0
SMALL
GASTEIGER

@<TRIPOS>ATOM
      1  C          5.4430   -0.0290    2.0210 C.3     1  UNL1        0.0800
      2  C          4.5660    1.1490    1.7750 C.2     1  UNL1        0.1300
      3  C          4.8730    2.1420    0.7110 C.3     1  UNL1        0.0870
      4  O          3.5630    1.3340    2.4450 O.2     1  UNL1       -0.3000
      5  C          6.8650    0.2380    1.5670 C.3     1  UNL1        0.0430
      6  C          7.2850   -0.6970    0.5090 C.2     1  UNL1       -0.0440
      7  C          7.1640   -0.3720   -0.8470 C.2     1  UNL1        0.0080
      8  C          7.8150   -1.9200    0.8500 C.2     1  UNL1        0.0540
      9  C          7.5760   -1.2890   -1.7970 C.2     1  UNL1        0.0510
     10  C          8.2310   -2.8440   -0.1140 C.2     1  UNL1        0.1660
     11  C          8.1100   -2.5250   -1.4480 C.2     1  UNL1        0.1650
     12  O          8.7800   -4.1060   -0.0300 O.2     1  UNL1       -0.4540
     13  O          8.5940   -3.6090   -2.1640 O.2     1  UNL1       -0.4540
     14  C          9.1120   -4.5960   -1.3040 C.3     1  UNL1        0.4680
@<TRIPOS>BOND
     1    13    11    1
     2    13    14    1
     3     9    11    2
     4     9     7    1
     5    11    10    1
     6    14    12    1
     7     7     6    2
     8    10    12    1
     9    10     8    2
    10     6     8    1
    11     6     5    1
    12     3     2    1
    13     5     1    1
    14     2     1    1
    15     2     4    2
