MODEL 1
REMARK VINA RESULT:      -7.7      0.000      0.000
REMARK SMILES CC(=O)CCc1ccc2c(c1)OCO2
REMARK SMILES IDX 4 1 2 2 1 3 3 4 5 5 6 6 7 7 11 8 8 9 10 10 9 11 12 12 14 13
REMARK SMILES IDX 13 14
REMARK H PARENT
REMARK Flexibility Score: inf
ROOT
ATOM      1  C   UNL     1       5.504   1.952   1.248  1.00  0.00     0.080 C 
ENDROOT
BRANCH   1   2
ATOM      2  C   UNL     1       5.092   0.732   1.997  1.00  0.00     0.130 C 
ATOM      3  C   UNL     1       6.013  -0.423   2.176  1.00  0.00     0.087 C 
ATOM      4  O   UNL     1       3.979   0.645   2.489  1.00  0.00    -0.300 OA
ENDBRANCH   1   2
BRANCH   1   5
ATOM      5  C   UNL     1       5.382   1.746  -0.249  1.00  0.00     0.043 C 
BRANCH   5   6
ATOM      6  C   UNL     1       6.552   1.041  -0.801  1.00  0.00    -0.044 A 
ATOM      7  C   UNL     1       7.859   1.465  -0.531  1.00  0.00     0.008 A 
ATOM      8  C   UNL     1       6.368  -0.064  -1.600  1.00  0.00     0.054 A 
ATOM      9  C   UNL     1       8.918   0.763  -1.076  1.00  0.00     0.051 A 
ATOM     10  C   UNL     1       7.443  -0.771  -2.148  1.00  0.00     0.166 A 
ATOM     11  C   UNL     1       8.728  -0.353  -1.884  1.00  0.00     0.165 A 
ATOM     12  O   UNL     1       7.520  -1.882  -2.960  1.00  0.00    -0.454 OA
ATOM     13  O   UNL     1       9.577  -1.227  -2.546  1.00  0.00    -0.454 OA
ATOM     14  C   UNL     1       8.856  -2.264  -3.166  1.00  0.00     0.468 C 
ENDBRANCH   5   6
ENDBRANCH   1   5
TORSDOF 3
ENDMDL
MODEL 2
REMARK VINA RESULT:      -7.4      1.946      2.442
REMARK SMILES CC(=O)CCc1ccc2c(c1)OCO2
REMARK SMILES IDX 4 1 2 2 1 3 3 4 5 5 6 6 7 7 11 8 8 9 10 10 9 11 12 12 14 13
REMARK SMILES IDX 13 14
REMARK H PARENT
REMARK Flexibility Score: inf
ROOT
ATOM      1  C   UNL     1       5.779   1.298  -0.305  1.00  0.00     0.080 C 
ENDROOT
BRANCH   1   2
ATOM      2  C   UNL     1       5.203   1.258   1.068  1.00  0.00     0.130 C 
ATOM      3  C   UNL     1       5.492   0.140   2.004  1.00  0.00     0.087 C 
ATOM      4  O   UNL     1       4.471   2.150   1.466  1.00  0.00    -0.300 OA
ENDBRANCH   1   2
BRANCH   1   5
ATOM      5  C   UNL     1       7.275   1.054  -0.281  1.00  0.00     0.043 C 
BRANCH   5   6
ATOM      6  C   UNL     1       7.627  -0.244  -0.884  1.00  0.00    -0.044 A 
ATOM      7  C   UNL     1       7.619  -0.434  -2.271  1.00  0.00     0.008 A 
ATOM      8  C   UNL     1       7.978  -1.300  -0.074  1.00  0.00     0.054 A 
ATOM      9  C   UNL     1       7.959  -1.674  -2.780  1.00  0.00     0.051 A 
ATOM     10  C   UNL     1       8.322  -2.551  -0.594  1.00  0.00     0.166 A 
ATOM     11  C   UNL     1       8.312  -2.740  -1.958  1.00  0.00     0.165 A 
ATOM     12  O   UNL     1       8.699  -3.741  -0.008  1.00  0.00    -0.454 OA
ATOM     13  O   UNL     1       8.689  -4.054  -2.184  1.00  0.00    -0.454 OA
ATOM     14  C   UNL     1       9.032  -4.699  -0.980  1.00  0.00     0.468 C 
ENDBRANCH   5   6
ENDBRANCH   1   5
TORSDOF 3
ENDMDL
MODEL 3
REMARK VINA RESULT:      -7.2      2.050      2.618
REMARK SMILES CC(=O)CCc1ccc2c(c1)OCO2
REMARK SMILES IDX 4 1 2 2 1 3 3 4 5 5 6 6 7 7 11 8 8 9 10 10 9 11 12 12 14 13
REMARK SMILES IDX 13 14
REMARK H PARENT
REMARK Flexibility Score: inf
ROOT
ATOM      1  C   UNL     1       5.443  -0.029   2.021  1.00  0.00     0.080 C 
ENDROOT
BRANCH   1   2
ATOM      2  C   UNL     1       4.566   1.149   1.775  1.00  0.00     0.130 C 
ATOM      3  C   UNL     1       4.873   2.142   0.711  1.00  0.00     0.087 C 
ATOM      4  O   UNL     1       3.563   1.334   2.445  1.00  0.00    -0.300 OA
ENDBRANCH   1   2
BRANCH   1   5
ATOM      5  C   UNL     1       6.865   0.238   1.567  1.00  0.00     0.043 C 
BRANCH   5   6
ATOM      6  C   UNL     1       7.285  -0.697   0.509  1.00  0.00    -0.044 A 
ATOM      7  C   UNL     1       7.164  -0.372  -0.847  1.00  0.00     0.008 A 
ATOM      8  C   UNL     1       7.815  -1.920   0.850  1.00  0.00     0.054 A 
ATOM      9  C   UNL     1       7.576  -1.289  -1.797  1.00  0.00     0.051 A 
ATOM     10  C   UNL     1       8.231  -2.844  -0.114  1.00  0.00     0.166 A 
ATOM     11  C   UNL     1       8.110  -2.525  -1.448  1.00  0.00     0.165 A 
ATOM     12  O   UNL     1       8.780  -4.106  -0.030  1.00  0.00    -0.454 OA
ATOM     13  O   UNL     1       8.594  -3.609  -2.164  1.00  0.00    -0.454 OA
ATOM     14  C   UNL     1       9.112  -4.596  -1.304  1.00  0.00     0.468 C 
ENDBRANCH   5   6
ENDBRANCH   1   5
TORSDOF 3
ENDMDL
MODEL 4
REMARK VINA RESULT:      -7.1      1.244      1.447
REMARK SMILES CC(=O)CCc1ccc2c(c1)OCO2
REMARK SMILES IDX 4 1 2 2 1 3 3 4 5 5 6 6 7 7 11 8 8 9 10 10 9 11 12 12 14 13
REMARK SMILES IDX 13 14
REMARK H PARENT
REMARK Flexibility Score: inf
ROOT
ATOM      1  C   UNL     1       6.343   1.257   0.891  1.00  0.00     0.080 C 
ENDROOT
BRANCH   1   2
ATOM      2  C   UNL     1       5.668   0.411   1.915  1.00  0.00     0.130 C 
ATOM      3  C   UNL     1       6.327  -0.789   2.495  1.00  0.00     0.087 C 
ATOM      4  O   UNL     1       4.545   0.681   2.308  1.00  0.00    -0.300 OA
ENDBRANCH   1   2
BRANCH   1   5
ATOM      5  C   UNL     1       5.834   0.947  -0.502  1.00  0.00     0.043 C 
BRANCH   5   6
ATOM      6  C   UNL     1       6.794   0.131  -1.267  1.00  0.00    -0.044 A 
ATOM      7  C   UNL     1       7.504   0.658  -2.351  1.00  0.00     0.008 A 
ATOM      8  C   UNL     1       7.007  -1.182  -0.912  1.00  0.00     0.054 A 
ATOM      9  C   UNL     1       8.393  -0.156  -3.030  1.00  0.00     0.051 A 
ATOM     10  C   UNL     1       7.907  -2.000  -1.602  1.00  0.00     0.166 A 
ATOM     11  C   UNL     1       8.605  -1.483  -2.670  1.00  0.00     0.165 A 
ATOM     12  O   UNL     1       8.289  -3.316  -1.448  1.00  0.00    -0.454 OA
ATOM     13  O   UNL     1       9.410  -2.502  -3.154  1.00  0.00    -0.454 OA
ATOM     14  C   UNL     1       9.308  -3.654  -2.352  1.00  0.00     0.468 C 
ENDBRANCH   5   6
ENDBRANCH   1   5
TORSDOF 3
ENDMDL
MODEL 5
REMARK VINA RESULT:      -6.8      1.267      1.764
REMARK SMILES CC(=O)CCc1ccc2c(c1)OCO2
REMARK SMILES IDX 4 1 2 2 1 3 3 4 5 5 6 6 7 7 11 8 8 9 10 10 9 11 12 12 14 13
REMARK SMILES IDX 13 14
REMARK H PARENT
REMARK Flexibility Score: inf
ROOT
ATOM      1  C   UNL     1       5.322  -0.064   1.975  1.00  0.00     0.080 C 
ENDROOT
BRANCH   1   2
ATOM      2  C   UNL     1       4.438   1.120   1.788  1.00  0.00     0.130 C 
ATOM      3  C   UNL     1       4.722   2.150   0.752  1.00  0.00     0.087 C 
ATOM      4  O   UNL     1       3.449   1.281   2.484  1.00  0.00    -0.300 OA
ENDBRANCH   1   2
BRANCH   1   5
ATOM      5  C   UNL     1       6.785   0.325   1.906  1.00  0.00     0.043 C 
BRANCH   5   6
ATOM      6  C   UNL     1       7.386  -0.036   0.610  1.00  0.00    -0.044 A 
ATOM      7  C   UNL     1       7.873   0.938  -0.269  1.00  0.00     0.008 A 
ATOM      8  C   UNL     1       7.478  -1.360   0.245  1.00  0.00     0.054 A 
ATOM      9  C   UNL     1       8.427   0.540  -1.472  1.00  0.00     0.051 A 
ATOM     10  C   UNL     1       8.039  -1.757  -0.972  1.00  0.00     0.166 A 
ATOM     11  C   UNL     1       8.518  -0.799  -1.837  1.00  0.00     0.165 A 
ATOM     12  O   UNL     1       8.242  -2.990  -1.555  1.00  0.00    -0.454 OA
ATOM     13  O   UNL     1       9.010  -1.470  -2.946  1.00  0.00    -0.454 OA
ATOM     14  C   UNL     1       8.938  -2.865  -2.769  1.00  0.00     0.468 C 
ENDBRANCH   5   6
ENDBRANCH   1   5
TORSDOF 3
ENDMDL
