@<TRIPOS>MOLECULE
/home/cewinharhar/GITHUB/reincatalyze/data/processed/docking_pred/2023-May-24-1506_sub9_nm5_bs15_s42_ex16_mel10_mts10000_k50_ec02_g099_lra3e-4_lrc3e-3/49b3117837231080fe644fe44c00424f4b8d2b91_ligand_9.pdbqt
 14 15 0 0 0
SMALL
GASTEIGER

@<TRIPOS>ATOM
      1  C          6.3430    1.2570    0.8910 C.3     1  UNL1        0.0800
      2  C          5.6680    0.4110    1.9150 C.2     1  UNL1        0.1300
      3  C          6.3270   -0.7890    2.4950 C.3     1  UNL1        0.0870
      4  O          4.5450    0.6810    2.3080 O.2     1  UNL1       -0.3000
      5  C          5.8340    0.9470   -0.5020 C.3     1  UNL1        0.0430
      6  C          6.7940    0.1310   -1.2670 C.2     1  UNL1       -0.0440
      7  C          7.5040    0.6580   -2.3510 C.2     1  UNL1        0.0080
      8  C          7.0070   -1.1820   -0.9120 C.2     1  UNL1        0.0540
      9  C          8.3930   -0.1560   -3.0300 C.2     1  UNL1        0.0510
     10  C          7.9070   -2.0000   -1.6020 C.2     1  UNL1        0.1660
     11  C          8.6050   -1.4830   -2.6700 C.2     1  UNL1        0.1650
     12  O          8.2890   -3.3160   -1.4480 O.2     1  UNL1       -0.4540
     13  O          9.4100   -2.5020   -3.1540 O.2     1  UNL1       -0.4540
     14  C          9.3080   -3.6540   -2.3520 C.3     1  UNL1        0.4680
@<TRIPOS>BOND
     1    13    11    1
     2    13    14    1
     3     9    11    2
     4     9     7    1
     5    11    10    1
     6    14    12    1
     7     7     6    2
     8    10    12    1
     9    10     8    2
    10     6     8    1
    11     6     5    1
    12     5     1    1
    13     1     2    1
    14     2     4    2
    15     2     3    1
