@<TRIPOS>MOLECULE
/home/cewinharhar/GITHUB/reincatalyze/data/processed/docking_pred/2023-May-24-1506_sub9_nm5_bs15_s42_ex16_mel10_mts10000_k50_ec02_g099_lra3e-4_lrc3e-3/4a3a178b6a4326eb13634b12f3ce9c4ec26f8538_ligand_9.pdbqt
 14 15 0 0 0
SMALL
GASTEIGER

@<TRIPOS>ATOM
      1  C          5.5550    1.8890    1.3450 C.3     1  UNL1        0.0800
      2  C          5.0810    0.6580    2.0370 C.2     1  UNL1        0.1300
      3  C          5.9400   -0.5500    2.1560 C.3     1  UNL1        0.0870
      4  O          3.9660    0.6060    2.5300 O.2     1  UNL1       -0.3000
      5  C          5.4340    1.7560   -0.1600 C.3     1  UNL1        0.0430
      6  C          6.5910    1.0500   -0.7400 C.2     1  UNL1       -0.0440
      7  C          7.9040    1.4530   -0.4750 C.2     1  UNL1        0.0080
      8  C          6.3850   -0.0350   -1.5630 C.2     1  UNL1        0.0540
      9  C          8.9500    0.7520   -1.0470 C.2     1  UNL1        0.0510
     10  C          7.4460   -0.7410   -2.1380 C.2     1  UNL1        0.1660
     11  C          8.7390   -0.3440   -1.8780 C.2     1  UNL1        0.1650
     12  O          7.5020   -1.8340   -2.9760 O.2     1  UNL1       -0.4540
     13  O          9.5710   -1.2110   -2.5690 O.2     1  UNL1       -0.4540
     14  C          8.8320   -2.2260   -3.2050 C.3     1  UNL1        0.4680
@<TRIPOS>BOND
     1    14    12    1
     2    14    13    1
     3    12    10    1
     4    13    11    1
     5    10    11    2
     6    10     8    1
     7    11     9    1
     8     8     6    2
     9     9     7    2
    10     6     7    1
    11     6     5    1
    12     5     1    1
    13     1     2    1
    14     2     3    1
    15     2     4    2
