MODEL 1
REMARK VINA RESULT:      -7.2      0.000      0.000
REMARK SMILES CC(=O)CCc1ccc2c(c1)OCO2
REMARK SMILES IDX 4 1 2 2 1 3 3 4 5 5 6 6 7 7 11 8 8 9 10 10 9 11 12 12 14 13
REMARK SMILES IDX 13 14
REMARK H PARENT
REMARK Flexibility Score: inf
ROOT
ATOM      1  C   UNL     1       5.555   1.889   1.345  1.00  0.00     0.080 C 
ENDROOT
BRANCH   1   2
ATOM      2  C   UNL     1       5.081   0.658   2.037  1.00  0.00     0.130 C 
ATOM      3  C   UNL     1       5.940  -0.550   2.156  1.00  0.00     0.087 C 
ATOM      4  O   UNL     1       3.966   0.606   2.530  1.00  0.00    -0.300 OA
ENDBRANCH   1   2
BRANCH   1   5
ATOM      5  C   UNL     1       5.434   1.756  -0.160  1.00  0.00     0.043 C 
BRANCH   5   6
ATOM      6  C   UNL     1       6.591   1.050  -0.740  1.00  0.00    -0.044 A 
ATOM      7  C   UNL     1       7.904   1.453  -0.475  1.00  0.00     0.008 A 
ATOM      8  C   UNL     1       6.385  -0.035  -1.563  1.00  0.00     0.054 A 
ATOM      9  C   UNL     1       8.950   0.752  -1.047  1.00  0.00     0.051 A 
ATOM     10  C   UNL     1       7.446  -0.741  -2.138  1.00  0.00     0.166 A 
ATOM     11  C   UNL     1       8.739  -0.344  -1.878  1.00  0.00     0.165 A 
ATOM     12  O   UNL     1       7.502  -1.834  -2.976  1.00  0.00    -0.454 OA
ATOM     13  O   UNL     1       9.571  -1.211  -2.569  1.00  0.00    -0.454 OA
ATOM     14  C   UNL     1       8.832  -2.226  -3.205  1.00  0.00     0.468 C 
ENDBRANCH   5   6
ENDBRANCH   1   5
TORSDOF 3
ENDMDL
MODEL 2
REMARK VINA RESULT:      -7.2      2.716      3.927
REMARK SMILES CC(=O)CCc1ccc2c(c1)OCO2
REMARK SMILES IDX 4 1 2 2 1 3 3 4 5 5 6 6 7 7 11 8 8 9 10 10 9 11 12 12 14 13
REMARK SMILES IDX 13 14
REMARK H PARENT
REMARK Flexibility Score: inf
ROOT
ATOM      1  C   UNL     1       9.667   1.298   2.648  1.00  0.00     0.080 C 
ENDROOT
BRANCH   1   2
ATOM      2  C   UNL     1      11.121   0.974   2.674  1.00  0.00     0.130 C 
ATOM      3  C   UNL     1      12.073   1.726   3.533  1.00  0.00     0.087 C 
ATOM      4  O   UNL     1      11.574   0.075   1.985  1.00  0.00    -0.300 OA
ENDBRANCH   1   2
BRANCH   1   5
ATOM      5  C   UNL     1       9.288   2.025   1.372  1.00  0.00     0.043 C 
BRANCH   5   6
ATOM      6  C   UNL     1       8.530   1.157   0.453  1.00  0.00    -0.044 A 
ATOM      7  C   UNL     1       7.134   1.076   0.505  1.00  0.00     0.008 A 
ATOM      8  C   UNL     1       9.202   0.405  -0.484  1.00  0.00     0.054 A 
ATOM      9  C   UNL     1       6.477   0.245  -0.383  1.00  0.00     0.051 A 
ATOM     10  C   UNL     1       8.532  -0.433  -1.380  1.00  0.00     0.166 A 
ATOM     11  C   UNL     1       7.159  -0.515  -1.329  1.00  0.00     0.165 A 
ATOM     12  O   UNL     1       8.966  -1.269  -2.388  1.00  0.00    -0.454 OA
ATOM     13  O   UNL     1       6.773  -1.406  -2.318  1.00  0.00    -0.454 OA
ATOM     14  C   UNL     1       7.880  -1.839  -3.072  1.00  0.00     0.468 C 
ENDBRANCH   5   6
ENDBRANCH   1   5
TORSDOF 3
ENDMDL
MODEL 3
REMARK VINA RESULT:      -7.1      1.989      2.483
REMARK SMILES CC(=O)CCc1ccc2c(c1)OCO2
REMARK SMILES IDX 4 1 2 2 1 3 3 4 5 5 6 6 7 7 11 8 8 9 10 10 9 11 12 12 14 13
REMARK SMILES IDX 13 14
REMARK H PARENT
REMARK Flexibility Score: inf
ROOT
ATOM      1  C   UNL     1       5.754   1.240  -0.305  1.00  0.00     0.080 C 
ENDROOT
BRANCH   1   2
ATOM      2  C   UNL     1       5.190   1.214   1.074  1.00  0.00     0.130 C 
ATOM      3  C   UNL     1       5.401   0.054   1.981  1.00  0.00     0.087 C 
ATOM      4  O   UNL     1       4.534   2.150   1.500  1.00  0.00    -0.300 OA
ENDBRANCH   1   2
BRANCH   1   5
ATOM      5  C   UNL     1       7.253   1.016  -0.291  1.00  0.00     0.043 C 
BRANCH   5   6
ATOM      6  C   UNL     1       7.618  -0.282  -0.886  1.00  0.00    -0.044 A 
ATOM      7  C   UNL     1       7.648  -0.470  -2.272  1.00  0.00     0.008 A 
ATOM      8  C   UNL     1       7.940  -1.341  -0.068  1.00  0.00     0.054 A 
ATOM      9  C   UNL     1       7.998  -1.710  -2.774  1.00  0.00     0.051 A 
ATOM     10  C   UNL     1       8.294  -2.593  -0.580  1.00  0.00     0.166 A 
ATOM     11  C   UNL     1       8.323  -2.779  -1.944  1.00  0.00     0.165 A 
ATOM     12  O   UNL     1       8.650  -3.784   0.015  1.00  0.00    -0.454 OA
ATOM     13  O   UNL     1       8.702  -4.095  -2.161  1.00  0.00    -0.454 OA
ATOM     14  C   UNL     1       9.007  -4.742  -0.948  1.00  0.00     0.468 C 
ENDBRANCH   5   6
ENDBRANCH   1   5
TORSDOF 3
ENDMDL
MODEL 4
REMARK VINA RESULT:      -7.0      3.426      4.424
REMARK SMILES CC(=O)CCc1ccc2c(c1)OCO2
REMARK SMILES IDX 4 1 2 2 1 3 3 4 5 5 6 6 7 7 11 8 8 9 10 10 9 11 12 12 14 13
REMARK SMILES IDX 13 14
REMARK H PARENT
REMARK Flexibility Score: inf
ROOT
ATOM      1  C   UNL     1       5.721   0.111   1.575  1.00  0.00     0.080 C 
ENDROOT
BRANCH   1   2
ATOM      2  C   UNL     1       5.084   1.346   1.038  1.00  0.00     0.130 C 
ATOM      3  C   UNL     1       5.400   1.859  -0.322  1.00  0.00     0.087 C 
ATOM      4  O   UNL     1       4.280   1.976   1.705  1.00  0.00    -0.300 OA
ENDBRANCH   1   2
BRANCH   1   5
ATOM      5  C   UNL     1       6.979  -0.240   0.803  1.00  0.00     0.043 C 
BRANCH   5   6
ATOM      6  C   UNL     1       8.186   0.303   1.451  1.00  0.00    -0.044 A 
ATOM      7  C   UNL     1       8.126   1.412   2.303  1.00  0.00     0.008 A 
ATOM      8  C   UNL     1       9.407  -0.289   1.222  1.00  0.00     0.054 A 
ATOM      9  C   UNL     1       9.292   1.876   2.883  1.00  0.00     0.051 A 
ATOM     10  C   UNL     1      10.583   0.184   1.812  1.00  0.00     0.166 A 
ATOM     11  C   UNL     1      10.525   1.276   2.649  1.00  0.00     0.165 A 
ATOM     12  O   UNL     1      11.899  -0.223   1.743  1.00  0.00    -0.454 OA
ATOM     13  O   UNL     1      11.819   1.518   3.082  1.00  0.00    -0.454 OA
ATOM     14  C   UNL     1      12.708   0.537   2.604  1.00  0.00     0.468 C 
ENDBRANCH   5   6
ENDBRANCH   1   5
TORSDOF 3
ENDMDL
MODEL 5
REMARK VINA RESULT:      -7.0      3.218      4.799
REMARK SMILES CC(=O)CCc1ccc2c(c1)OCO2
REMARK SMILES IDX 4 1 2 2 1 3 3 4 5 5 6 6 7 7 11 8 8 9 10 10 9 11 12 12 14 13
REMARK SMILES IDX 13 14
REMARK H PARENT
REMARK Flexibility Score: inf
ROOT
ATOM      1  C   UNL     1       6.482   0.428  -0.835  1.00  0.00     0.080 C 
ENDROOT
BRANCH   1   2
ATOM      2  C   UNL     1       7.099  -0.385  -1.920  1.00  0.00     0.130 C 
ATOM      3  C   UNL     1       8.232   0.131  -2.734  1.00  0.00     0.087 C 
ATOM      4  O   UNL     1       6.690  -1.507  -2.173  1.00  0.00    -0.300 OA
ENDBRANCH   1   2
BRANCH   1   5
ATOM      5  C   UNL     1       6.736  -0.187   0.527  1.00  0.00     0.043 C 
BRANCH   5   6
ATOM      6  C   UNL     1       7.929   0.389   1.172  1.00  0.00    -0.044 A 
ATOM      7  C   UNL     1       7.873   1.601   1.869  1.00  0.00     0.008 A 
ATOM      8  C   UNL     1       9.132  -0.275   1.097  1.00  0.00     0.054 A 
ATOM      9  C   UNL     1       9.025   2.092   2.455  1.00  0.00     0.051 A 
ATOM     10  C   UNL     1      10.294   0.225   1.692  1.00  0.00     0.166 A 
ATOM     11  C   UNL     1      10.240   1.419   2.376  1.00  0.00     0.165 A 
ATOM     12  O   UNL     1      11.591  -0.238   1.757  1.00  0.00    -0.454 OA
ATOM     13  O   UNL     1      11.518   1.666   2.853  1.00  0.00    -0.454 OA
ATOM     14  C   UNL     1      12.385   0.596   2.561  1.00  0.00     0.468 C 
ENDBRANCH   5   6
ENDBRANCH   1   5
TORSDOF 3
ENDMDL
