@<TRIPOS>MOLECULE
/home/cewinharhar/GITHUB/reincatalyze/data/processed/docking_pred/2023-May-24-1506_sub9_nm5_bs15_s42_ex16_mel10_mts10000_k50_ec02_g099_lra3e-4_lrc3e-3/4a3a178b6a4326eb13634b12f3ce9c4ec26f8538_ligand_9.pdbqt
 14 15 0 0 0
SMALL
GASTEIGER

@<TRIPOS>ATOM
      1  C          5.7210    0.1110    1.5750 C.3     1  UNL1        0.0800
      2  C          5.0840    1.3460    1.0380 C.2     1  UNL1        0.1300
      3  C          5.4000    1.8590   -0.3220 C.3     1  UNL1        0.0870
      4  O          4.2800    1.9760    1.7050 O.2     1  UNL1       -0.3000
      5  C          6.9790   -0.2400    0.8030 C.3     1  UNL1        0.0430
      6  C          8.1860    0.3030    1.4510 C.2     1  UNL1       -0.0440
      7  C          8.1260    1.4120    2.3030 C.2     1  UNL1        0.0080
      8  C          9.4070   -0.2890    1.2220 C.2     1  UNL1        0.0540
      9  C          9.2920    1.8760    2.8830 C.2     1  UNL1        0.0510
     10  C         10.5830    0.1840    1.8120 C.2     1  UNL1        0.1660
     11  C         10.5250    1.2760    2.6490 C.2     1  UNL1        0.1650
     12  O         11.8990   -0.2230    1.7430 O.2     1  UNL1       -0.4540
     13  O         11.8190    1.5180    3.0820 O.2     1  UNL1       -0.4540
     14  C         12.7080    0.5370    2.6040 C.3     1  UNL1        0.4680
@<TRIPOS>BOND
     1     3     2    1
     2     5     6    1
     3     5     1    1
     4     2     1    1
     5     2     4    2
     6     8     6    2
     7     8    10    1
     8     6     7    1
     9    12    10    1
    10    12    14    1
    11    10    11    2
    12     7     9    2
    13    14    13    1
    14    11     9    1
    15    11    13    1
