@<TRIPOS>MOLECULE
/home/cewinharhar/GITHUB/reincatalyze/data/processed/docking_pred/2023-May-24-1506_sub9_nm5_bs15_s42_ex16_mel10_mts10000_k50_ec02_g099_lra3e-4_lrc3e-3/4c3a486d5bbb1ad3c8ce5b6da142191fd088767a_ligand_9.pdbqt
 14 15 0 0 0
SMALL
GASTEIGER

@<TRIPOS>ATOM
      1  C          6.3310    1.2490    0.8720 C.3     1  UNL1        0.0800
      2  C          5.6600    0.4310    1.9210 C.2     1  UNL1        0.1300
      3  C          6.2830   -0.8050    2.4650 C.3     1  UNL1        0.0870
      4  O          4.5710    0.7550    2.3660 O.2     1  UNL1       -0.3000
      5  C          5.8140    0.9030   -0.5100 C.3     1  UNL1        0.0430
      6  C          6.7860    0.0980   -1.2720 C.2     1  UNL1       -0.0440
      7  C          7.5010    0.6380   -2.3470 C.2     1  UNL1        0.0080
      8  C          7.0050   -1.2150   -0.9240 C.2     1  UNL1        0.0540
      9  C          8.4000   -0.1650   -3.0240 C.2     1  UNL1        0.0510
     10  C          7.9160   -2.0220   -1.6110 C.2     1  UNL1        0.1660
     11  C          8.6190   -1.4930   -2.6710 C.2     1  UNL1        0.1650
     12  O          8.3060   -3.3360   -1.4630 O.2     1  UNL1       -0.4540
     13  O          9.4360   -2.5030   -3.1550 O.2     1  UNL1       -0.4540
     14  C          9.3360   -3.6620   -2.3610 C.3     1  UNL1        0.4680
@<TRIPOS>BOND
     1    13    11    1
     2    13    14    1
     3     9    11    2
     4     9     7    1
     5    11    10    1
     6    14    12    1
     7     7     6    2
     8    10    12    1
     9    10     8    2
    10     6     8    1
    11     6     5    1
    12     5     1    1
    13     1     2    1
    14     2     4    2
    15     2     3    1
