@<TRIPOS>MOLECULE
/home/cewinharhar/GITHUB/reincatalyze/data/processed/docking_pred/2023-May-24-1506_sub9_nm5_bs15_s42_ex16_mel10_mts10000_k50_ec02_g099_lra3e-4_lrc3e-3/4c3a486d5bbb1ad3c8ce5b6da142191fd088767a_ligand_9.pdbqt
 14 15 0 0 0
SMALL
GASTEIGER

@<TRIPOS>ATOM
      1  C          8.6650    0.3240   -2.4590 C.3     1  UNL1        0.0800
      2  C          8.4700   -1.1390   -2.6550 C.2     1  UNL1        0.1300
      3  C          7.1150   -1.7530   -2.6590 C.3     1  UNL1        0.0870
      4  O          9.4240   -1.8820   -2.8190 O.2     1  UNL1       -0.3000
      5  C          9.0900    0.6370   -1.0370 C.3     1  UNL1        0.0430
      6  C          7.9800    0.4630   -0.0840 C.2     1  UNL1       -0.0440
      7  C          7.9910   -0.5550    0.8770 C.2     1  UNL1        0.0080
      8  C          6.9020    1.3170   -0.1290 C.2     1  UNL1        0.0540
      9  C          6.9220   -0.6700    1.7460 C.2     1  UNL1        0.0510
     10  C          5.8230    1.1980    0.7520 C.2     1  UNL1        0.1660
     11  C          5.8330    0.1960    1.6970 C.2     1  UNL1        0.1650
     12  O          4.6520    1.9100    0.9070 O.2     1  UNL1       -0.4540
     13  O          4.6570    0.3150    2.4200 O.2     1  UNL1       -0.4540
     14  C          3.9210    1.4440    2.0120 C.3     1  UNL1        0.4680
@<TRIPOS>BOND
     1     4     2    2
     2     3     2    1
     3     2     1    1
     4     1     5    1
     5     5     6    1
     6     8     6    2
     7     8    10    1
     8     6     7    1
     9    10    12    1
    10    10    11    2
    11     7     9    2
    12    12    14    1
    13    11     9    1
    14    11    13    1
    15    14    13    1
