@<TRIPOS>MOLECULE
/home/cewinharhar/GITHUB/reincatalyze/data/processed/docking_pred/2023-May-24-1506_sub9_nm5_bs15_s42_ex16_mel10_mts10000_k50_ec02_g099_lra3e-4_lrc3e-3/4c3a486d5bbb1ad3c8ce5b6da142191fd088767a_ligand_9.pdbqt
 14 15 0 0 0
SMALL
GASTEIGER

@<TRIPOS>ATOM
      1  C          5.5250    1.9190    1.2660 C.3     1  UNL1        0.0800
      2  C          5.0770    0.7030    2.0000 C.2     1  UNL1        0.1300
      3  C          5.9630   -0.4810    2.1640 C.3     1  UNL1        0.0870
      4  O          3.9610    0.6420    2.4910 O.2     1  UNL1       -0.3000
      5  C          5.4000    1.7340   -0.2330 C.3     1  UNL1        0.0430
      6  C          6.5690    1.0350   -0.7970 C.2     1  UNL1       -0.0440
      7  C          7.8750    1.4710   -0.5470 C.2     1  UNL1        0.0080
      8  C          6.3830   -0.0770   -1.5860 C.2     1  UNL1        0.0540
      9  C          8.9330    0.7740   -1.1020 C.2     1  UNL1        0.0510
     10  C          7.4560   -0.7780   -2.1440 C.2     1  UNL1        0.1660
     11  C          8.7410   -0.3490   -1.9000 C.2     1  UNL1        0.1650
     12  O          7.5310   -1.8940   -2.9510 O.2     1  UNL1       -0.4540
     13  O          9.5880   -1.2190   -2.5680 O.2     1  UNL1       -0.4540
     14  C          8.8670   -2.2660   -3.1730 C.3     1  UNL1        0.4680
@<TRIPOS>BOND
     1    14    12    1
     2    14    13    1
     3    12    10    1
     4    13    11    1
     5    10    11    2
     6    10     8    1
     7    11     9    1
     8     8     6    2
     9     9     7    2
    10     6     7    1
    11     6     5    1
    12     5     1    1
    13     1     2    1
    14     2     3    1
    15     2     4    2
