@<TRIPOS>MOLECULE
/home/cewinharhar/GITHUB/reincatalyze/data/processed/docking_pred/2023-May-24-1506_sub9_nm5_bs15_s42_ex16_mel10_mts10000_k50_ec02_g099_lra3e-4_lrc3e-3/4c3a486d5bbb1ad3c8ce5b6da142191fd088767a_ligand_9.pdbqt
 14 15 0 0 0
SMALL
GASTEIGER

@<TRIPOS>ATOM
      1  C          5.7700    1.2450   -0.2830 C.3     1  UNL1        0.0800
      2  C          5.2560    1.2230    1.1150 C.2     1  UNL1        0.1300
      3  C          5.5250    0.0790    2.0280 C.3     1  UNL1        0.0870
      4  O          4.5950    2.1500    1.5550 O.2     1  UNL1       -0.3000
      5  C          7.2740    1.0630   -0.3200 C.3     1  UNL1        0.0430
      6  C          7.6550   -0.2240   -0.9280 C.2     1  UNL1       -0.0440
      7  C          7.7340   -0.3830   -2.3160 C.2     1  UNL1        0.0080
      8  C          7.9440   -1.3010   -0.1220 C.2     1  UNL1        0.0540
      9  C          8.0970   -1.6150   -2.8310 C.2     1  UNL1        0.0510
     10  C          8.3110   -2.5440   -0.6460 C.2     1  UNL1        0.1660
     11  C          8.3880   -2.7020   -2.0120 C.2     1  UNL1        0.1650
     12  O          8.6410   -3.7490   -0.0640 O.2     1  UNL1       -0.4540
     13  O          8.7690   -4.0140   -2.2430 O.2     1  UNL1       -0.4540
     14  C          9.0280   -4.6880   -1.0340 C.3     1  UNL1        0.4680
@<TRIPOS>BOND
     1     9     7    1
     2     9    11    2
     3     7     6    2
     4    13    11    1
     5    13    14    1
     6    11    10    1
     7    14    12    1
     8     6     5    1
     9     6     8    1
    10    10     8    2
    11    10    12    1
    12     5     1    1
    13     1     2    1
    14     2     4    2
    15     2     3    1
