@<TRIPOS>MOLECULE
/home/cewinharhar/GITHUB/reincatalyze/data/processed/docking_pred/2023-May-24-1506_sub9_nm5_bs15_s42_ex16_mel10_mts10000_k50_ec02_g099_lra3e-4_lrc3e-3/4c3a486d5bbb1ad3c8ce5b6da142191fd088767a_ligand_9.pdbqt
 14 15 0 0 0
SMALL
GASTEIGER

@<TRIPOS>ATOM
      1  C          5.5530    0.0180    1.9570 C.3     1  UNL1        0.0800
      2  C          4.6640    1.1750    1.6580 C.2     1  UNL1        0.1300
      3  C          4.9620    2.1210    0.5490 C.3     1  UNL1        0.0870
      4  O          3.6590    1.3810    2.3180 O.2     1  UNL1       -0.3000
      5  C          6.9720    0.2780    1.4920 C.3     1  UNL1        0.0430
      6  C          7.3850   -0.6710    0.4430 C.2     1  UNL1       -0.0440
      7  C          7.3010   -0.3430   -0.9160 C.2     1  UNL1        0.0080
      8  C          7.8700   -1.9100    0.7950 C.2     1  UNL1        0.0540
      9  C          7.7050   -1.2740   -1.8560 C.2     1  UNL1        0.0510
     10  C          8.2770   -2.8460   -0.1590 C.2     1  UNL1        0.1660
     11  C          8.1930   -2.5260   -1.4960 C.2     1  UNL1        0.1650
     12  O          8.7850   -4.1240   -0.0640 O.2     1  UNL1       -0.4540
     13  O          8.6580   -3.6250   -2.2010 O.2     1  UNL1       -0.4540
     14  C          9.1280   -4.6260   -1.3310 C.3     1  UNL1        0.4680
@<TRIPOS>BOND
     1    13    11    1
     2    13    14    1
     3     9    11    2
     4     9     7    1
     5    11    10    1
     6    14    12    1
     7     7     6    2
     8    10    12    1
     9    10     8    2
    10     6     8    1
    11     6     5    1
    12     3     2    1
    13     5     1    1
    14     2     1    1
    15     2     4    2
