MODEL 1
REMARK VINA RESULT:      -7.5      0.000      0.000
REMARK SMILES CC(=O)CCc1ccc2c(c1)OCO2
REMARK SMILES IDX 4 1 2 2 1 3 3 4 5 5 6 6 7 7 11 8 8 9 10 10 9 11 12 12 14 13
REMARK SMILES IDX 13 14
REMARK H PARENT
REMARK Flexibility Score: inf
ROOT
ATOM      1  C   UNL     1       5.525   1.919   1.266  1.00  0.00     0.080 C 
ENDROOT
BRANCH   1   2
ATOM      2  C   UNL     1       5.077   0.703   2.000  1.00  0.00     0.130 C 
ATOM      3  C   UNL     1       5.963  -0.481   2.164  1.00  0.00     0.087 C 
ATOM      4  O   UNL     1       3.961   0.642   2.491  1.00  0.00    -0.300 OA
ENDBRANCH   1   2
BRANCH   1   5
ATOM      5  C   UNL     1       5.400   1.734  -0.233  1.00  0.00     0.043 C 
BRANCH   5   6
ATOM      6  C   UNL     1       6.569   1.035  -0.797  1.00  0.00    -0.044 A 
ATOM      7  C   UNL     1       7.875   1.471  -0.547  1.00  0.00     0.008 A 
ATOM      8  C   UNL     1       6.383  -0.077  -1.586  1.00  0.00     0.054 A 
ATOM      9  C   UNL     1       8.933   0.774  -1.102  1.00  0.00     0.051 A 
ATOM     10  C   UNL     1       7.456  -0.778  -2.144  1.00  0.00     0.166 A 
ATOM     11  C   UNL     1       8.741  -0.349  -1.900  1.00  0.00     0.165 A 
ATOM     12  O   UNL     1       7.531  -1.894  -2.951  1.00  0.00    -0.454 OA
ATOM     13  O   UNL     1       9.588  -1.219  -2.568  1.00  0.00    -0.454 OA
ATOM     14  C   UNL     1       8.867  -2.266  -3.173  1.00  0.00     0.468 C 
ENDBRANCH   5   6
ENDBRANCH   1   5
TORSDOF 3
ENDMDL
MODEL 2
REMARK VINA RESULT:      -7.1      1.914      2.401
REMARK SMILES CC(=O)CCc1ccc2c(c1)OCO2
REMARK SMILES IDX 4 1 2 2 1 3 3 4 5 5 6 6 7 7 11 8 8 9 10 10 9 11 12 12 14 13
REMARK SMILES IDX 13 14
REMARK H PARENT
REMARK Flexibility Score: inf
ROOT
ATOM      1  C   UNL     1       5.770   1.245  -0.283  1.00  0.00     0.080 C 
ENDROOT
BRANCH   1   2
ATOM      2  C   UNL     1       5.256   1.223   1.115  1.00  0.00     0.130 C 
ATOM      3  C   UNL     1       5.525   0.079   2.028  1.00  0.00     0.087 C 
ATOM      4  O   UNL     1       4.595   2.150   1.555  1.00  0.00    -0.300 OA
ENDBRANCH   1   2
BRANCH   1   5
ATOM      5  C   UNL     1       7.274   1.063  -0.320  1.00  0.00     0.043 C 
BRANCH   5   6
ATOM      6  C   UNL     1       7.655  -0.224  -0.928  1.00  0.00    -0.044 A 
ATOM      7  C   UNL     1       7.734  -0.383  -2.316  1.00  0.00     0.008 A 
ATOM      8  C   UNL     1       7.944  -1.301  -0.122  1.00  0.00     0.054 A 
ATOM      9  C   UNL     1       8.097  -1.615  -2.831  1.00  0.00     0.051 A 
ATOM     10  C   UNL     1       8.311  -2.544  -0.646  1.00  0.00     0.166 A 
ATOM     11  C   UNL     1       8.388  -2.702  -2.012  1.00  0.00     0.165 A 
ATOM     12  O   UNL     1       8.641  -3.749  -0.064  1.00  0.00    -0.454 OA
ATOM     13  O   UNL     1       8.769  -4.014  -2.243  1.00  0.00    -0.454 OA
ATOM     14  C   UNL     1       9.028  -4.688  -1.034  1.00  0.00     0.468 C 
ENDBRANCH   5   6
ENDBRANCH   1   5
TORSDOF 3
ENDMDL
MODEL 3
REMARK VINA RESULT:      -6.9      1.247      1.445
REMARK SMILES CC(=O)CCc1ccc2c(c1)OCO2
REMARK SMILES IDX 4 1 2 2 1 3 3 4 5 5 6 6 7 7 11 8 8 9 10 10 9 11 12 12 14 13
REMARK SMILES IDX 13 14
REMARK H PARENT
REMARK Flexibility Score: inf
ROOT
ATOM      1  C   UNL     1       6.331   1.249   0.872  1.00  0.00     0.080 C 
ENDROOT
BRANCH   1   2
ATOM      2  C   UNL     1       5.660   0.431   1.921  1.00  0.00     0.130 C 
ATOM      3  C   UNL     1       6.283  -0.805   2.465  1.00  0.00     0.087 C 
ATOM      4  O   UNL     1       4.571   0.755   2.366  1.00  0.00    -0.300 OA
ENDBRANCH   1   2
BRANCH   1   5
ATOM      5  C   UNL     1       5.814   0.903  -0.510  1.00  0.00     0.043 C 
BRANCH   5   6
ATOM      6  C   UNL     1       6.786   0.098  -1.272  1.00  0.00    -0.044 A 
ATOM      7  C   UNL     1       7.501   0.638  -2.347  1.00  0.00     0.008 A 
ATOM      8  C   UNL     1       7.005  -1.215  -0.924  1.00  0.00     0.054 A 
ATOM      9  C   UNL     1       8.400  -0.165  -3.024  1.00  0.00     0.051 A 
ATOM     10  C   UNL     1       7.916  -2.022  -1.611  1.00  0.00     0.166 A 
ATOM     11  C   UNL     1       8.619  -1.493  -2.671  1.00  0.00     0.165 A 
ATOM     12  O   UNL     1       8.306  -3.336  -1.463  1.00  0.00    -0.454 OA
ATOM     13  O   UNL     1       9.436  -2.503  -3.155  1.00  0.00    -0.454 OA
ATOM     14  C   UNL     1       9.336  -3.662  -2.361  1.00  0.00     0.468 C 
ENDBRANCH   5   6
ENDBRANCH   1   5
TORSDOF 3
ENDMDL
MODEL 4
REMARK VINA RESULT:      -6.8      2.067      2.597
REMARK SMILES CC(=O)CCc1ccc2c(c1)OCO2
REMARK SMILES IDX 4 1 2 2 1 3 3 4 5 5 6 6 7 7 11 8 8 9 10 10 9 11 12 12 14 13
REMARK SMILES IDX 13 14
REMARK H PARENT
REMARK Flexibility Score: inf
ROOT
ATOM      1  C   UNL     1       5.553   0.018   1.957  1.00  0.00     0.080 C 
ENDROOT
BRANCH   1   2
ATOM      2  C   UNL     1       4.664   1.175   1.658  1.00  0.00     0.130 C 
ATOM      3  C   UNL     1       4.962   2.121   0.549  1.00  0.00     0.087 C 
ATOM      4  O   UNL     1       3.659   1.381   2.318  1.00  0.00    -0.300 OA
ENDBRANCH   1   2
BRANCH   1   5
ATOM      5  C   UNL     1       6.972   0.278   1.492  1.00  0.00     0.043 C 
BRANCH   5   6
ATOM      6  C   UNL     1       7.385  -0.671   0.443  1.00  0.00    -0.044 A 
ATOM      7  C   UNL     1       7.301  -0.343  -0.916  1.00  0.00     0.008 A 
ATOM      8  C   UNL     1       7.870  -1.910   0.795  1.00  0.00     0.054 A 
ATOM      9  C   UNL     1       7.705  -1.274  -1.856  1.00  0.00     0.051 A 
ATOM     10  C   UNL     1       8.277  -2.846  -0.159  1.00  0.00     0.166 A 
ATOM     11  C   UNL     1       8.193  -2.526  -1.496  1.00  0.00     0.165 A 
ATOM     12  O   UNL     1       8.785  -4.124  -0.064  1.00  0.00    -0.454 OA
ATOM     13  O   UNL     1       8.658  -3.625  -2.201  1.00  0.00    -0.454 OA
ATOM     14  C   UNL     1       9.128  -4.626  -1.331  1.00  0.00     0.468 C 
ENDBRANCH   5   6
ENDBRANCH   1   5
TORSDOF 3
ENDMDL
MODEL 5
REMARK VINA RESULT:      -6.6      1.235      5.261
REMARK SMILES CC(=O)CCc1ccc2c(c1)OCO2
REMARK SMILES IDX 4 1 2 2 1 3 3 4 5 5 6 6 7 7 11 8 8 9 10 10 9 11 12 12 14 13
REMARK SMILES IDX 13 14
REMARK H PARENT
REMARK Flexibility Score: inf
ROOT
ATOM      1  C   UNL     1       8.665   0.324  -2.459  1.00  0.00     0.080 C 
ENDROOT
BRANCH   1   2
ATOM      2  C   UNL     1       8.470  -1.139  -2.655  1.00  0.00     0.130 C 
ATOM      3  C   UNL     1       7.115  -1.753  -2.659  1.00  0.00     0.087 C 
ATOM      4  O   UNL     1       9.424  -1.882  -2.819  1.00  0.00    -0.300 OA
ENDBRANCH   1   2
BRANCH   1   5
ATOM      5  C   UNL     1       9.090   0.637  -1.037  1.00  0.00     0.043 C 
BRANCH   5   6
ATOM      6  C   UNL     1       7.980   0.463  -0.084  1.00  0.00    -0.044 A 
ATOM      7  C   UNL     1       7.991  -0.555   0.877  1.00  0.00     0.008 A 
ATOM      8  C   UNL     1       6.902   1.317  -0.129  1.00  0.00     0.054 A 
ATOM      9  C   UNL     1       6.922  -0.670   1.746  1.00  0.00     0.051 A 
ATOM     10  C   UNL     1       5.823   1.198   0.752  1.00  0.00     0.166 A 
ATOM     11  C   UNL     1       5.833   0.196   1.697  1.00  0.00     0.165 A 
ATOM     12  O   UNL     1       4.652   1.910   0.907  1.00  0.00    -0.454 OA
ATOM     13  O   UNL     1       4.657   0.315   2.420  1.00  0.00    -0.454 OA
ATOM     14  C   UNL     1       3.921   1.444   2.012  1.00  0.00     0.468 C 
ENDBRANCH   5   6
ENDBRANCH   1   5
TORSDOF 3
ENDMDL
