@<TRIPOS>MOLECULE
/home/cewinharhar/GITHUB/reincatalyze/data/processed/docking_pred/2023-May-24-1506_sub9_nm5_bs15_s42_ex16_mel10_mts10000_k50_ec02_g099_lra3e-4_lrc3e-3/4c41b041102a8d5d821093d1e21668bd2b50a839_ligand_9.pdbqt
 14 15 0 0 0
SMALL
GASTEIGER

@<TRIPOS>ATOM
      1  C          5.7340    1.2630   -0.3060 C.3     1  UNL1        0.0800
      2  C          5.2130    1.2150    1.0880 C.2     1  UNL1        0.1300
      3  C          5.4370    0.0340    1.9650 C.3     1  UNL1        0.0870
      4  O          4.5820    2.1500    1.5550 O.2     1  UNL1       -0.3000
      5  C          7.2360    1.0570   -0.3400 C.3     1  UNL1        0.0430
      6  C          7.5960   -0.2390   -0.9410 C.2     1  UNL1       -0.0440
      7  C          7.6200   -0.4230   -2.3280 C.2     1  UNL1        0.0080
      8  C          7.9210   -1.3010   -0.1280 C.2     1  UNL1        0.0540
      9  C          7.9660   -1.6620   -2.8350 C.2     1  UNL1        0.0510
     10  C          8.2720   -2.5520   -0.6460 C.2     1  UNL1        0.1660
     11  C          8.2940   -2.7340   -2.0110 C.2     1  UNL1        0.1650
     12  O          8.6290   -3.7460   -0.0570 O.2     1  UNL1       -0.4540
     13  O          8.6700   -4.0490   -2.2340 O.2     1  UNL1       -0.4540
     14  C          8.9800   -4.7010   -1.0250 C.3     1  UNL1        0.4680
@<TRIPOS>BOND
     1     9     7    1
     2     9    11    2
     3     7     6    2
     4    13    11    1
     5    13    14    1
     6    11    10    1
     7    14    12    1
     8     6     5    1
     9     6     8    1
    10    10     8    2
    11    10    12    1
    12     5     1    1
    13     1     2    1
    14     2     4    2
    15     2     3    1
