@<TRIPOS>MOLECULE
/home/cewinharhar/GITHUB/reincatalyze/data/processed/docking_pred/2023-May-24-1506_sub9_nm5_bs15_s42_ex16_mel10_mts10000_k50_ec02_g099_lra3e-4_lrc3e-3/4c41b041102a8d5d821093d1e21668bd2b50a839_ligand_9.pdbqt
 14 15 0 0 0
SMALL
GASTEIGER

@<TRIPOS>ATOM
      1  C          6.8630    0.9020    1.3580 C.3     1  UNL1        0.0800
      2  C          5.4040    1.1750    1.4860 C.2     1  UNL1        0.1300
      3  C          4.7120    2.1490    0.6000 C.3     1  UNL1        0.0870
      4  O          4.7300    0.6020    2.3270 O.2     1  UNL1       -0.3000
      5  C          7.3370    1.0980   -0.0680 C.3     1  UNL1        0.0430
      6  C          7.6470   -0.1860   -0.7220 C.2     1  UNL1       -0.0440
      7  C          7.6390   -0.3200   -2.1150 C.2     1  UNL1        0.0080
      8  C          7.9580   -1.2850    0.0460 C.2     1  UNL1        0.0540
      9  C          7.9390   -1.5490   -2.6730 C.2     1  UNL1        0.0510
     10  C          8.2610   -2.5260   -0.5230 C.2     1  UNL1        0.1660
     11  C          8.2520   -2.6590   -1.8940 C.2     1  UNL1        0.1650
     12  O          8.5960   -3.7500    0.0160 O.2     1  UNL1       -0.4540
     13  O          8.5850   -3.9750   -2.1710 O.2     1  UNL1       -0.4540
     14  C          8.8990   -4.6790   -0.9930 C.3     1  UNL1        0.4680
@<TRIPOS>BOND
     1     9     7    1
     2     9    11    2
     3    13    11    1
     4    13    14    1
     5     7     6    2
     6    11    10    1
     7    14    12    1
     8     6     5    1
     9     6     8    1
    10    10    12    1
    11    10     8    2
    12     5     1    1
    13     3     2    1
    14     1     2    1
    15     2     4    2
