@<TRIPOS>MOLECULE
/home/cewinharhar/GITHUB/reincatalyze/data/processed/docking_pred/2023-May-24-1506_sub9_nm5_bs15_s42_ex16_mel10_mts10000_k50_ec02_g099_lra3e-4_lrc3e-3/4d7b7b7c0b5100424baa50ff90452051f7b35606_ligand_9.pdbqt
 14 15 0 0 0
SMALL
GASTEIGER

@<TRIPOS>ATOM
      1  C          5.7240    1.3150   -0.3030 C.3     1  UNL1        0.0800
      2  C          5.1830    1.2330    1.0830 C.2     1  UNL1        0.1300
      3  C          5.4110    0.0390    1.9400 C.3     1  UNL1        0.0870
      4  O          4.5330    2.1500    1.5570 O.2     1  UNL1       -0.3000
      5  C          7.2260    1.1170   -0.3200 C.3     1  UNL1        0.0430
      6  C          7.6000   -0.1760   -0.9210 C.2     1  UNL1       -0.0440
      7  C          7.6180   -0.3610   -2.3090 C.2     1  UNL1        0.0080
      8  C          7.9440   -1.2320   -0.1090 C.2     1  UNL1        0.0540
      9  C          7.9780   -1.5960   -2.8160 C.2     1  UNL1        0.0510
     10  C          8.3080   -2.4790   -0.6270 C.2     1  UNL1        0.1660
     11  C          8.3250   -2.6620   -1.9910 C.2     1  UNL1        0.1650
     12  O          8.6840   -3.6670   -0.0380 O.2     1  UNL1       -0.4540
     13  O          8.7160   -3.9730   -2.2150 O.2     1  UNL1       -0.4540
     14  C          9.0420   -4.6190   -1.0070 C.3     1  UNL1        0.4680
@<TRIPOS>BOND
     1     9     7    1
     2     9    11    2
     3     7     6    2
     4    13    11    1
     5    13    14    1
     6    11    10    1
     7    14    12    1
     8     6     5    1
     9     6     8    1
    10    10     8    2
    11    10    12    1
    12     5     1    1
    13     1     2    1
    14     2     4    2
    15     2     3    1
