@<TRIPOS>MOLECULE
/home/cewinharhar/GITHUB/reincatalyze/data/processed/docking_pred/2023-May-24-1506_sub9_nm5_bs15_s42_ex16_mel10_mts10000_k50_ec02_g099_lra3e-4_lrc3e-3/4d7b7b7c0b5100424baa50ff90452051f7b35606_ligand_9.pdbqt
 14 15 0 0 0
SMALL
GASTEIGER

@<TRIPOS>ATOM
      1  C          5.5140    1.9140    1.2660 C.3     1  UNL1        0.0800
      2  C          5.0670    0.6940    1.9960 C.2     1  UNL1        0.1300
      3  C          5.9460   -0.4970    2.1390 C.3     1  UNL1        0.0870
      4  O          3.9570    0.6380    2.5000 O.2     1  UNL1       -0.3000
      5  C          5.3940    1.7320   -0.2340 C.3     1  UNL1        0.0430
      6  C          6.5620    1.0310   -0.7950 C.2     1  UNL1       -0.0440
      7  C          7.8690    1.4600   -0.5370 C.2     1  UNL1        0.0080
      8  C          6.3750   -0.0760   -1.5910 C.2     1  UNL1        0.0540
      9  C          8.9260    0.7620   -1.0900 C.2     1  UNL1        0.0510
     10  C          7.4480   -0.7790   -2.1480 C.2     1  UNL1        0.1660
     11  C          8.7340   -0.3570   -1.8950 C.2     1  UNL1        0.1650
     12  O          7.5230   -1.8910   -2.9600 O.2     1  UNL1       -0.4540
     13  O          9.5810   -1.2270   -2.5640 O.2     1  UNL1       -0.4540
     14  C          8.8580   -2.2680   -3.1770 C.3     1  UNL1        0.4680
@<TRIPOS>BOND
     1    14    12    1
     2    14    13    1
     3    12    10    1
     4    13    11    1
     5    10    11    2
     6    10     8    1
     7    11     9    1
     8     8     6    2
     9     9     7    2
    10     6     7    1
    11     6     5    1
    12     5     1    1
    13     1     2    1
    14     2     3    1
    15     2     4    2
