@<TRIPOS>MOLECULE
/home/cewinharhar/GITHUB/reincatalyze/data/processed/docking_pred/2023-May-24-1506_sub9_nm5_bs15_s42_ex16_mel10_mts10000_k50_ec02_g099_lra3e-4_lrc3e-3/4dfe2a4ebf2cd2c58b23ebebd9c83ff91bb12173_ligand_9.pdbqt
 14 15 0 0 0
SMALL
GASTEIGER

@<TRIPOS>ATOM
      1  C          5.5140    1.9100    1.2540 C.3     1  UNL1        0.0800
      2  C          5.0560    0.7010    1.9940 C.2     1  UNL1        0.1300
      3  C          5.9240   -0.4980    2.1430 C.3     1  UNL1        0.0870
      4  O          3.9470    0.6600    2.5020 O.2     1  UNL1       -0.3000
      5  C          5.3920    1.7180   -0.2450 C.3     1  UNL1        0.0430
      6  C          6.5620    1.0180   -0.8030 C.2     1  UNL1       -0.0440
      7  C          7.8670    1.4530   -0.5470 C.2     1  UNL1        0.0080
      8  C          6.3790   -0.0930   -1.5950 C.2     1  UNL1        0.0540
      9  C          8.9270    0.7560   -1.0980 C.2     1  UNL1        0.0510
     10  C          7.4540   -0.7950   -2.1490 C.2     1  UNL1        0.1660
     11  C          8.7390   -0.3660   -1.8980 C.2     1  UNL1        0.1650
     12  O          7.5320   -1.9090   -2.9560 O.2     1  UNL1       -0.4540
     13  O          9.5880   -1.2370   -2.5630 O.2     1  UNL1       -0.4540
     14  C          8.8690   -2.2830   -3.1720 C.3     1  UNL1        0.4680
@<TRIPOS>BOND
     1    14    12    1
     2    14    13    1
     3    12    10    1
     4    13    11    1
     5    10    11    2
     6    10     8    1
     7    11     9    1
     8     8     6    2
     9     9     7    2
    10     6     7    1
    11     6     5    1
    12     5     1    1
    13     1     2    1
    14     2     3    1
    15     2     4    2
