@<TRIPOS>MOLECULE
/home/cewinharhar/GITHUB/reincatalyze/data/processed/docking_pred/2023-May-24-1506_sub9_nm5_bs15_s42_ex16_mel10_mts10000_k50_ec02_g099_lra3e-4_lrc3e-3/4e2e003c692afcef440410ba16f5bc8e831af6c9_ligand_9.pdbqt
 14 15 0 0 0
SMALL
GASTEIGER

@<TRIPOS>ATOM
      1  C          5.5010    1.9420    1.2590 C.3     1  UNL1        0.0800
      2  C          5.0700    0.7240    2.0000 C.2     1  UNL1        0.1300
      3  C          5.9650   -0.4540    2.1540 C.3     1  UNL1        0.0870
      4  O          3.9610    0.6570    2.5060 O.2     1  UNL1       -0.3000
      5  C          5.3800    1.7460   -0.2390 C.3     1  UNL1        0.0430
      6  C          6.5520    1.0470   -0.7950 C.2     1  UNL1       -0.0440
      7  C          7.8570    1.4820   -0.5350 C.2     1  UNL1        0.0080
      8  C          6.3710   -0.0640   -1.5880 C.2     1  UNL1        0.0540
      9  C          8.9180    0.7850   -1.0840 C.2     1  UNL1        0.0510
     10  C          7.4470   -0.7650   -2.1390 C.2     1  UNL1        0.1660
     11  C          8.7310   -0.3370   -1.8850 C.2     1  UNL1        0.1650
     12  O          7.5280   -1.8790   -2.9470 O.2     1  UNL1       -0.4540
     13  O          9.5830   -1.2070   -2.5480 O.2     1  UNL1       -0.4540
     14  C          8.8650   -2.2530   -3.1590 C.3     1  UNL1        0.4680
@<TRIPOS>BOND
     1    14    12    1
     2    14    13    1
     3    12    10    1
     4    13    11    1
     5    10    11    2
     6    10     8    1
     7    11     9    1
     8     8     6    2
     9     9     7    2
    10     6     7    1
    11     6     5    1
    12     5     1    1
    13     1     2    1
    14     2     3    1
    15     2     4    2
