@<TRIPOS>MOLECULE
/home/cewinharhar/GITHUB/reincatalyze/data/processed/docking_pred/2023-May-24-1506_sub9_nm5_bs15_s42_ex16_mel10_mts10000_k50_ec02_g099_lra3e-4_lrc3e-3/4f8485ffa73320ccf1b94cd7b1ea99ef776c762b_ligand_9.pdbqt
 14 15 0 0 0
SMALL
GASTEIGER

@<TRIPOS>ATOM
      1  C          5.3230   -0.1260    1.9650 C.3     1  UNL1        0.0800
      2  C          5.2890    1.0590    1.0640 C.2     1  UNL1        0.1300
      3  C          5.9080    1.0310   -0.2880 C.3     1  UNL1        0.0870
      4  O          4.7470    2.0960    1.4130 O.2     1  UNL1       -0.3000
      5  C          6.0670   -1.2820    1.3260 C.3     1  UNL1        0.0430
      6  C          7.3240   -1.5820    2.0340 C.2     1  UNL1       -0.0440
      7  C          8.3610   -2.2920    1.4180 C.2     1  UNL1        0.0080
      8  C          7.4940   -1.1560    3.3320 C.2     1  UNL1        0.0540
      9  C          9.5180   -2.5440    2.1320 C.2     1  UNL1        0.0510
     10  C          8.6670   -1.4120    4.0490 C.2     1  UNL1        0.1660
     11  C          9.6870   -2.1120    3.4440 C.2     1  UNL1        0.1650
     12  O          9.0720   -1.1010    5.3300 O.2     1  UNL1       -0.4540
     13  O         10.7090   -2.2160    4.3750 O.2     1  UNL1       -0.4540
     14  C         10.3970   -1.5110    5.5530 C.3     1  UNL1        0.4680
@<TRIPOS>BOND
     1     3     2    1
     2     2     4    2
     3     2     1    1
     4     5     1    1
     5     5     6    1
     6     7     6    2
     7     7     9    1
     8     6     8    1
     9     9    11    2
    10     8    10    2
    11    11    10    1
    12    11    13    1
    13    10    12    1
    14    13    14    1
    15    12    14    1
