@<TRIPOS>MOLECULE
/home/cewinharhar/GITHUB/reincatalyze/data/processed/docking_pred/2023-May-24-1506_sub9_nm5_bs15_s42_ex16_mel10_mts10000_k50_ec02_g099_lra3e-4_lrc3e-3/4f8485ffa73320ccf1b94cd7b1ea99ef776c762b_ligand_9.pdbqt
 14 15 0 0 0
SMALL
GASTEIGER

@<TRIPOS>ATOM
      1  C          5.7490    1.3360   -0.2780 C.3     1  UNL1        0.0800
      2  C          5.0670    1.2690    1.0440 C.2     1  UNL1        0.1300
      3  C          5.2890    0.1350    1.9810 C.3     1  UNL1        0.0870
      4  O          4.3010    2.1500    1.3990 O.2     1  UNL1       -0.3000
      5  C          7.2310    1.0430   -0.1490 C.3     1  UNL1        0.0430
      6  C          7.5930   -0.2330   -0.7920 C.2     1  UNL1       -0.0440
      7  C          7.6110   -0.3730   -2.1840 C.2     1  UNL1        0.0080
      8  C          7.9270   -1.3180   -0.0140 C.2     1  UNL1        0.0540
      9  C          7.9600   -1.5950   -2.7310 C.2     1  UNL1        0.0510
     10  C          8.2800   -2.5510   -0.5710 C.2     1  UNL1        0.1660
     11  C          8.2960   -2.6900   -1.9410 C.2     1  UNL1        0.1650
     12  O          8.6450   -3.7610   -0.0210 O.2     1  UNL1       -0.4540
     13  O          8.6760   -3.9960   -2.2070 O.2     1  UNL1       -0.4540
     14  C          8.9950   -4.6840   -1.0200 C.3     1  UNL1        0.4680
@<TRIPOS>BOND
     1     9     7    1
     2     9    11    2
     3    13    11    1
     4    13    14    1
     5     7     6    2
     6    11    10    1
     7    14    12    1
     8     6     5    1
     9     6     8    1
    10    10    12    1
    11    10     8    2
    12     1     5    1
    13     1     2    1
    14     2     4    2
    15     2     3    1
