@<TRIPOS>MOLECULE
/home/cewinharhar/GITHUB/reincatalyze/data/processed/docking_pred/2023-May-24-1506_sub9_nm5_bs15_s42_ex16_mel10_mts10000_k50_ec02_g099_lra3e-4_lrc3e-3/4f8485ffa73320ccf1b94cd7b1ea99ef776c762b_ligand_9.pdbqt
 14 15 0 0 0
SMALL
GASTEIGER

@<TRIPOS>ATOM
      1  C          6.9310   -0.4150    1.6530 C.3     1  UNL1        0.0800
      2  C          5.7460    0.4570    1.4180 C.2     1  UNL1        0.1300
      3  C          5.5800    1.2250    0.1550 C.3     1  UNL1        0.0870
      4  O          4.8720    0.5670    2.2620 O.2     1  UNL1       -0.3000
      5  C          6.9090   -1.0100    3.0470 C.3     1  UNL1        0.0430
      6  C          8.2290   -1.5380    3.4370 C.2     1  UNL1       -0.0440
      7  C          8.7760   -1.2830    4.7000 C.2     1  UNL1        0.0080
      8  C          8.9480   -2.3020    2.5460 C.2     1  UNL1        0.0540
      9  C         10.0180   -1.8060    5.0100 C.2     1  UNL1        0.0510
     10  C         10.2030   -2.8280    2.8650 C.2     1  UNL1        0.1660
     11  C         10.7430   -2.5780    4.1070 C.2     1  UNL1        0.1650
     12  O         11.1020   -3.6050    2.1650 O.2     1  UNL1       -0.4540
     13  O         11.9740   -3.2130    4.1450 O.2     1  UNL1       -0.4540
     14  C         12.2010   -3.9510    2.9680 C.3     1  UNL1        0.4680
@<TRIPOS>BOND
     1     3     2    1
     2     2     1    1
     3     2     4    2
     4     1     5    1
     5    12    10    1
     6    12    14    1
     7     8    10    1
     8     8     6    2
     9    10    11    2
    10    14    13    1
    11     5     6    1
    12     6     7    1
    13    11    13    1
    14    11     9    1
    15     7     9    2
