@<TRIPOS>MOLECULE
/home/cewinharhar/GITHUB/reincatalyze/data/processed/docking_pred/2023-May-24-1506_sub9_nm5_bs15_s42_ex16_mel10_mts10000_k50_ec02_g099_lra3e-4_lrc3e-3/4f8485ffa73320ccf1b94cd7b1ea99ef776c762b_ligand_9.pdbqt
 14 15 0 0 0
SMALL
GASTEIGER

@<TRIPOS>ATOM
      1  C          5.4940    1.9160    1.2490 C.3     1  UNL1        0.0800
      2  C          4.9960    0.7190    1.9830 C.2     1  UNL1        0.1300
      3  C          5.8020   -0.5270    2.0820 C.3     1  UNL1        0.0870
      4  O          3.9040    0.7280    2.5260 O.2     1  UNL1       -0.3000
      5  C          5.3810    1.7290   -0.2510 C.3     1  UNL1        0.0430
      6  C          6.5540    1.0300   -0.8050 C.2     1  UNL1       -0.0440
      7  C          7.8580    1.4620   -0.5390 C.2     1  UNL1        0.0080
      8  C          6.3750   -0.0770   -1.6040 C.2     1  UNL1        0.0540
      9  C          8.9210    0.7670   -1.0850 C.2     1  UNL1        0.0510
     10  C          7.4520   -0.7770   -2.1540 C.2     1  UNL1        0.1660
     11  C          8.7360   -0.3520   -1.8930 C.2     1  UNL1        0.1650
     12  O          7.5350   -1.8880   -2.9660 O.2     1  UNL1       -0.4540
     13  O          9.5890   -1.2200   -2.5560 O.2     1  UNL1       -0.4540
     14  C          8.8730   -2.2620   -3.1740 C.3     1  UNL1        0.4680
@<TRIPOS>BOND
     1    14    12    1
     2    14    13    1
     3    12    10    1
     4    13    11    1
     5    10    11    2
     6    10     8    1
     7    11     9    1
     8     8     6    2
     9     9     7    2
    10     6     7    1
    11     6     5    1
    12     5     1    1
    13     1     2    1
    14     2     3    1
    15     2     4    2
