@<TRIPOS>MOLECULE
/home/cewinharhar/GITHUB/reincatalyze/data/processed/docking_pred/2023-May-24-1506_sub9_nm5_bs15_s42_ex16_mel10_mts10000_k50_ec02_g099_lra3e-4_lrc3e-3/4f8485ffa73320ccf1b94cd7b1ea99ef776c762b_ligand_9.pdbqt
 14 15 0 0 0
SMALL
GASTEIGER

@<TRIPOS>ATOM
      1  C          5.5410   -0.2010    1.9350 C.3     1  UNL1        0.0800
      2  C          5.3400    1.0110    1.0920 C.2     1  UNL1        0.1300
      3  C          5.8660    1.0920   -0.2970 C.3     1  UNL1        0.0870
      4  O          4.7330    1.9790    1.5210 O.2     1  UNL1       -0.3000
      5  C          6.4890   -1.1810    1.2720 C.3     1  UNL1        0.0430
      6  C          7.6100   -1.5410    2.1580 C.2     1  UNL1       -0.0440
      7  C          7.6100   -1.2010    3.5160 C.2     1  UNL1        0.0080
      8  C          8.6880   -2.2300    1.6500 C.2     1  UNL1        0.0540
      9  C          8.6900   -1.5660    4.2990 C.2     1  UNL1        0.0510
     10  C          9.7760   -2.5980    2.4460 C.2     1  UNL1        0.1660
     11  C          9.7780   -2.2620    3.7820 C.2     1  UNL1        0.1650
     12  O         10.9480   -3.2740    2.1810 O.2     1  UNL1       -0.4540
     13  O         10.9620   -2.7460    4.3150 O.2     1  UNL1       -0.4540
     14  C         11.6920   -3.4730    3.3560 C.3     1  UNL1        0.4680
@<TRIPOS>BOND
     1     3     2    1
     2     2     4    2
     3     2     1    1
     4     5     1    1
     5     5     6    1
     6     8     6    2
     7     8    10    1
     8     6     7    1
     9    12    10    1
    10    12    14    1
    11    10    11    2
    12    14    13    1
    13     7     9    2
    14    11     9    1
    15    11    13    1
