MODEL 1
REMARK VINA RESULT:      -7.5      0.000      0.000
REMARK SMILES CC(=O)CCc1ccc2c(c1)OCO2
REMARK SMILES IDX 4 1 2 2 1 3 3 4 5 5 6 6 7 7 11 8 8 9 10 10 9 11 12 12 14 13
REMARK SMILES IDX 13 14
REMARK H PARENT
REMARK Flexibility Score: inf
ROOT
ATOM      1  C   UNL     1       5.541  -0.201   1.935  1.00  0.00     0.080 C 
ENDROOT
BRANCH   1   2
ATOM      2  C   UNL     1       5.340   1.011   1.092  1.00  0.00     0.130 C 
ATOM      3  C   UNL     1       5.866   1.092  -0.297  1.00  0.00     0.087 C 
ATOM      4  O   UNL     1       4.733   1.979   1.521  1.00  0.00    -0.300 OA
ENDBRANCH   1   2
BRANCH   1   5
ATOM      5  C   UNL     1       6.489  -1.181   1.272  1.00  0.00     0.043 C 
BRANCH   5   6
ATOM      6  C   UNL     1       7.610  -1.541   2.158  1.00  0.00    -0.044 A 
ATOM      7  C   UNL     1       7.610  -1.201   3.516  1.00  0.00     0.008 A 
ATOM      8  C   UNL     1       8.688  -2.230   1.650  1.00  0.00     0.054 A 
ATOM      9  C   UNL     1       8.690  -1.566   4.299  1.00  0.00     0.051 A 
ATOM     10  C   UNL     1       9.776  -2.598   2.446  1.00  0.00     0.166 A 
ATOM     11  C   UNL     1       9.778  -2.262   3.782  1.00  0.00     0.165 A 
ATOM     12  O   UNL     1      10.948  -3.274   2.181  1.00  0.00    -0.454 OA
ATOM     13  O   UNL     1      10.962  -2.746   4.315  1.00  0.00    -0.454 OA
ATOM     14  C   UNL     1      11.692  -3.473   3.356  1.00  0.00     0.468 C 
ENDBRANCH   5   6
ENDBRANCH   1   5
TORSDOF 3
ENDMDL
MODEL 2
REMARK VINA RESULT:      -7.3      3.866      4.892
REMARK SMILES CC(=O)CCc1ccc2c(c1)OCO2
REMARK SMILES IDX 4 1 2 2 1 3 3 4 5 5 6 6 7 7 11 8 8 9 10 10 9 11 12 12 14 13
REMARK SMILES IDX 13 14
REMARK H PARENT
REMARK Flexibility Score: inf
ROOT
ATOM      1  C   UNL     1       5.494   1.916   1.249  1.00  0.00     0.080 C 
ENDROOT
BRANCH   1   2
ATOM      2  C   UNL     1       4.996   0.719   1.983  1.00  0.00     0.130 C 
ATOM      3  C   UNL     1       5.802  -0.527   2.082  1.00  0.00     0.087 C 
ATOM      4  O   UNL     1       3.904   0.728   2.526  1.00  0.00    -0.300 OA
ENDBRANCH   1   2
BRANCH   1   5
ATOM      5  C   UNL     1       5.381   1.729  -0.251  1.00  0.00     0.043 C 
BRANCH   5   6
ATOM      6  C   UNL     1       6.554   1.030  -0.805  1.00  0.00    -0.044 A 
ATOM      7  C   UNL     1       7.858   1.462  -0.539  1.00  0.00     0.008 A 
ATOM      8  C   UNL     1       6.375  -0.077  -1.604  1.00  0.00     0.054 A 
ATOM      9  C   UNL     1       8.921   0.767  -1.085  1.00  0.00     0.051 A 
ATOM     10  C   UNL     1       7.452  -0.777  -2.154  1.00  0.00     0.166 A 
ATOM     11  C   UNL     1       8.736  -0.352  -1.893  1.00  0.00     0.165 A 
ATOM     12  O   UNL     1       7.535  -1.888  -2.966  1.00  0.00    -0.454 OA
ATOM     13  O   UNL     1       9.589  -1.220  -2.556  1.00  0.00    -0.454 OA
ATOM     14  C   UNL     1       8.873  -2.262  -3.174  1.00  0.00     0.468 C 
ENDBRANCH   5   6
ENDBRANCH   1   5
TORSDOF 3
ENDMDL
MODEL 3
REMARK VINA RESULT:      -7.1      0.927      1.208
REMARK SMILES CC(=O)CCc1ccc2c(c1)OCO2
REMARK SMILES IDX 4 1 2 2 1 3 3 4 5 5 6 6 7 7 11 8 8 9 10 10 9 11 12 12 14 13
REMARK SMILES IDX 13 14
REMARK H PARENT
REMARK Flexibility Score: inf
ROOT
ATOM      1  C   UNL     1       6.931  -0.415   1.653  1.00  0.00     0.080 C 
ENDROOT
BRANCH   1   2
ATOM      2  C   UNL     1       5.746   0.457   1.418  1.00  0.00     0.130 C 
ATOM      3  C   UNL     1       5.580   1.225   0.155  1.00  0.00     0.087 C 
ATOM      4  O   UNL     1       4.872   0.567   2.262  1.00  0.00    -0.300 OA
ENDBRANCH   1   2
BRANCH   1   5
ATOM      5  C   UNL     1       6.909  -1.010   3.047  1.00  0.00     0.043 C 
BRANCH   5   6
ATOM      6  C   UNL     1       8.229  -1.538   3.437  1.00  0.00    -0.044 A 
ATOM      7  C   UNL     1       8.776  -1.283   4.700  1.00  0.00     0.008 A 
ATOM      8  C   UNL     1       8.948  -2.302   2.546  1.00  0.00     0.054 A 
ATOM      9  C   UNL     1      10.018  -1.806   5.010  1.00  0.00     0.051 A 
ATOM     10  C   UNL     1      10.203  -2.828   2.865  1.00  0.00     0.166 A 
ATOM     11  C   UNL     1      10.743  -2.578   4.107  1.00  0.00     0.165 A 
ATOM     12  O   UNL     1      11.102  -3.605   2.165  1.00  0.00    -0.454 OA
ATOM     13  O   UNL     1      11.974  -3.213   4.145  1.00  0.00    -0.454 OA
ATOM     14  C   UNL     1      12.201  -3.951   2.968  1.00  0.00     0.468 C 
ENDBRANCH   5   6
ENDBRANCH   1   5
TORSDOF 3
ENDMDL
MODEL 4
REMARK VINA RESULT:      -7.1      3.110      4.255
REMARK SMILES CC(=O)CCc1ccc2c(c1)OCO2
REMARK SMILES IDX 4 1 2 2 1 3 3 4 5 5 6 6 7 7 11 8 8 9 10 10 9 11 12 12 14 13
REMARK SMILES IDX 13 14
REMARK H PARENT
REMARK Flexibility Score: inf
ROOT
ATOM      1  C   UNL     1       5.749   1.336  -0.278  1.00  0.00     0.080 C 
ENDROOT
BRANCH   1   2
ATOM      2  C   UNL     1       5.067   1.269   1.044  1.00  0.00     0.130 C 
ATOM      3  C   UNL     1       5.289   0.135   1.981  1.00  0.00     0.087 C 
ATOM      4  O   UNL     1       4.301   2.150   1.399  1.00  0.00    -0.300 OA
ENDBRANCH   1   2
BRANCH   1   5
ATOM      5  C   UNL     1       7.231   1.043  -0.149  1.00  0.00     0.043 C 
BRANCH   5   6
ATOM      6  C   UNL     1       7.593  -0.233  -0.792  1.00  0.00    -0.044 A 
ATOM      7  C   UNL     1       7.611  -0.373  -2.184  1.00  0.00     0.008 A 
ATOM      8  C   UNL     1       7.927  -1.318  -0.014  1.00  0.00     0.054 A 
ATOM      9  C   UNL     1       7.960  -1.595  -2.731  1.00  0.00     0.051 A 
ATOM     10  C   UNL     1       8.280  -2.551  -0.571  1.00  0.00     0.166 A 
ATOM     11  C   UNL     1       8.296  -2.690  -1.941  1.00  0.00     0.165 A 
ATOM     12  O   UNL     1       8.645  -3.761  -0.021  1.00  0.00    -0.454 OA
ATOM     13  O   UNL     1       8.676  -3.996  -2.207  1.00  0.00    -0.454 OA
ATOM     14  C   UNL     1       8.995  -4.684  -1.020  1.00  0.00     0.468 C 
ENDBRANCH   5   6
ENDBRANCH   1   5
TORSDOF 3
ENDMDL
MODEL 5
REMARK VINA RESULT:      -7.0      0.971      1.936
REMARK SMILES CC(=O)CCc1ccc2c(c1)OCO2
REMARK SMILES IDX 4 1 2 2 1 3 3 4 5 5 6 6 7 7 11 8 8 9 10 10 9 11 12 12 14 13
REMARK SMILES IDX 13 14
REMARK H PARENT
REMARK Flexibility Score: inf
ROOT
ATOM      1  C   UNL     1       5.323  -0.126   1.965  1.00  0.00     0.080 C 
ENDROOT
BRANCH   1   2
ATOM      2  C   UNL     1       5.289   1.059   1.064  1.00  0.00     0.130 C 
ATOM      3  C   UNL     1       5.908   1.031  -0.288  1.00  0.00     0.087 C 
ATOM      4  O   UNL     1       4.747   2.096   1.413  1.00  0.00    -0.300 OA
ENDBRANCH   1   2
BRANCH   1   5
ATOM      5  C   UNL     1       6.067  -1.282   1.326  1.00  0.00     0.043 C 
BRANCH   5   6
ATOM      6  C   UNL     1       7.324  -1.582   2.034  1.00  0.00    -0.044 A 
ATOM      7  C   UNL     1       8.361  -2.292   1.418  1.00  0.00     0.008 A 
ATOM      8  C   UNL     1       7.494  -1.156   3.332  1.00  0.00     0.054 A 
ATOM      9  C   UNL     1       9.518  -2.544   2.132  1.00  0.00     0.051 A 
ATOM     10  C   UNL     1       8.667  -1.412   4.049  1.00  0.00     0.166 A 
ATOM     11  C   UNL     1       9.687  -2.112   3.444  1.00  0.00     0.165 A 
ATOM     12  O   UNL     1       9.072  -1.101   5.330  1.00  0.00    -0.454 OA
ATOM     13  O   UNL     1      10.709  -2.216   4.375  1.00  0.00    -0.454 OA
ATOM     14  C   UNL     1      10.397  -1.511   5.553  1.00  0.00     0.468 C 
ENDBRANCH   5   6
ENDBRANCH   1   5
TORSDOF 3
ENDMDL
