@<TRIPOS>MOLECULE
/home/cewinharhar/GITHUB/reincatalyze/data/processed/docking_pred/2023-May-24-1506_sub9_nm5_bs15_s42_ex16_mel10_mts10000_k50_ec02_g099_lra3e-4_lrc3e-3/4fd116288ae20ad94bf91d23a53b6bc9c92e4cae_ligand_9.pdbqt
 14 15 0 0 0
SMALL
GASTEIGER

@<TRIPOS>ATOM
      1  C          5.4490   -0.0410    2.0310 C.3     1  UNL1        0.0800
      2  C          4.5630    1.1270    1.7700 C.2     1  UNL1        0.1300
      3  C          4.8780    2.1260    0.7140 C.3     1  UNL1        0.0870
      4  O          3.5450    1.2990    2.4210 O.2     1  UNL1       -0.3000
      5  C          6.8690    0.2320    1.5740 C.3     1  UNL1        0.0430
      6  C          7.2910   -0.7020    0.5160 C.2     1  UNL1       -0.0440
      7  C          7.1730   -0.3760   -0.8400 C.2     1  UNL1        0.0080
      8  C          7.8190   -1.9260    0.8580 C.2     1  UNL1        0.0540
      9  C          7.5870   -1.2930   -1.7890 C.2     1  UNL1        0.0510
     10  C          8.2370   -2.8500   -0.1060 C.2     1  UNL1        0.1660
     11  C          8.1200   -2.5300   -1.4400 C.2     1  UNL1        0.1650
     12  O          8.7850   -4.1120   -0.0220 O.2     1  UNL1       -0.4540
     13  O          8.6040   -3.6140   -2.1560 O.2     1  UNL1       -0.4540
     14  C          9.1200   -4.6020   -1.2950 C.3     1  UNL1        0.4680
@<TRIPOS>BOND
     1    13    11    1
     2    13    14    1
     3     9    11    2
     4     9     7    1
     5    11    10    1
     6    14    12    1
     7     7     6    2
     8    10    12    1
     9    10     8    2
    10     6     8    1
    11     6     5    1
    12     3     2    1
    13     5     1    1
    14     2     1    1
    15     2     4    2
