@<TRIPOS>MOLECULE
/home/cewinharhar/GITHUB/reincatalyze/data/processed/docking_pred/2023-May-24-1506_sub9_nm5_bs15_s42_ex16_mel10_mts10000_k50_ec02_g099_lra3e-4_lrc3e-3/4fd116288ae20ad94bf91d23a53b6bc9c92e4cae_ligand_9.pdbqt
 14 15 0 0 0
SMALL
GASTEIGER

@<TRIPOS>ATOM
      1  C          8.3090    0.1710   -2.6640 C.3     1  UNL1        0.0800
      2  C          8.0540   -1.2920   -2.7820 C.2     1  UNL1        0.1300
      3  C          9.1610   -2.2620   -3.0040 C.3     1  UNL1        0.0870
      4  O          6.9220   -1.7400   -2.7010 O.2     1  UNL1       -0.3000
      5  C          8.8440    0.5270   -1.2910 C.3     1  UNL1        0.0430
      6  C          7.8090    0.3920   -0.2500 C.2     1  UNL1       -0.0440
      7  C          7.9080   -0.5700    0.7610 C.2     1  UNL1        0.0080
      8  C          6.7170    1.2290   -0.2610 C.2     1  UNL1        0.0540
      9  C          6.9070   -0.6500    1.7120 C.2     1  UNL1        0.0510
     10  C          5.7080    1.1450    0.7030 C.2     1  UNL1        0.1660
     11  C          5.8040    0.1980    1.6980 C.2     1  UNL1        0.1650
     12  O          4.5400    1.8500    0.9050 O.2     1  UNL1       -0.4540
     13  O          4.6820    0.3430    2.4990 O.2     1  UNL1       -0.4540
     14  C          3.9000    1.4380    2.0860 C.3     1  UNL1        0.4680
@<TRIPOS>BOND
     1     3     2    1
     2     2     4    2
     3     2     1    1
     4     1     5    1
     5     5     6    1
     6     8     6    2
     7     8    10    1
     8     6     7    1
     9    10    12    1
    10    10    11    2
    11     7     9    2
    12    12    14    1
    13    11     9    1
    14    11    13    1
    15    14    13    1
