MODEL 1
REMARK VINA RESULT:      -7.6      0.000      0.000
REMARK SMILES CC(=O)CCc1ccc2c(c1)OCO2
REMARK SMILES IDX 4 1 2 2 1 3 3 4 5 5 6 6 7 7 11 8 8 9 10 10 9 11 12 12 14 13
REMARK SMILES IDX 13 14
REMARK H PARENT
REMARK Flexibility Score: inf
ROOT
ATOM      1  C   UNL     1       5.547   1.902   1.289  1.00  0.00     0.080 C 
ENDROOT
BRANCH   1   2
ATOM      2  C   UNL     1       5.123   0.678   2.025  1.00  0.00     0.130 C 
ATOM      3  C   UNL     1       6.030  -0.489   2.187  1.00  0.00     0.087 C 
ATOM      4  O   UNL     1       4.010   0.598   2.518  1.00  0.00    -0.300 OA
ENDBRANCH   1   2
BRANCH   1   5
ATOM      5  C   UNL     1       5.413   1.718  -0.209  1.00  0.00     0.043 C 
BRANCH   5   6
ATOM      6  C   UNL     1       6.578   1.018  -0.780  1.00  0.00    -0.044 A 
ATOM      7  C   UNL     1       7.886   1.449  -0.530  1.00  0.00     0.008 A 
ATOM      8  C   UNL     1       6.387  -0.087  -1.578  1.00  0.00     0.054 A 
ATOM      9  C   UNL     1       8.941   0.752  -1.093  1.00  0.00     0.051 A 
ATOM     10  C   UNL     1       7.456  -0.787  -2.144  1.00  0.00     0.166 A 
ATOM     11  C   UNL     1       8.744  -0.364  -1.899  1.00  0.00     0.165 A 
ATOM     12  O   UNL     1       7.526  -1.897  -2.959  1.00  0.00    -0.454 OA
ATOM     13  O   UNL     1       9.586  -1.232  -2.576  1.00  0.00    -0.454 OA
ATOM     14  C   UNL     1       8.860  -2.273  -3.186  1.00  0.00     0.468 C 
ENDBRANCH   5   6
ENDBRANCH   1   5
TORSDOF 3
ENDMDL
MODEL 2
REMARK VINA RESULT:      -7.4      1.948      2.446
REMARK SMILES CC(=O)CCc1ccc2c(c1)OCO2
REMARK SMILES IDX 4 1 2 2 1 3 3 4 5 5 6 6 7 7 11 8 8 9 10 10 9 11 12 12 14 13
REMARK SMILES IDX 13 14
REMARK H PARENT
REMARK Flexibility Score: inf
ROOT
ATOM      1  C   UNL     1       5.767   1.256  -0.284  1.00  0.00     0.080 C 
ENDROOT
BRANCH   1   2
ATOM      2  C   UNL     1       5.264   1.235   1.118  1.00  0.00     0.130 C 
ATOM      3  C   UNL     1       5.566   0.108   2.040  1.00  0.00     0.087 C 
ATOM      4  O   UNL     1       4.582   2.150   1.552  1.00  0.00    -0.300 OA
ENDBRANCH   1   2
BRANCH   1   5
ATOM      5  C   UNL     1       7.268   1.044  -0.333  1.00  0.00     0.043 C 
BRANCH   5   6
ATOM      6  C   UNL     1       7.617  -0.261  -0.921  1.00  0.00    -0.044 A 
ATOM      7  C   UNL     1       7.639  -0.459  -2.306  1.00  0.00     0.008 A 
ATOM      8  C   UNL     1       7.932  -1.318  -0.097  1.00  0.00     0.054 A 
ATOM      9  C   UNL     1       7.975  -1.706  -2.801  1.00  0.00     0.051 A 
ATOM     10  C   UNL     1       8.272  -2.577  -0.602  1.00  0.00     0.166 A 
ATOM     11  C   UNL     1       8.293  -2.772  -1.965  1.00  0.00     0.165 A 
ATOM     12  O   UNL     1       8.618  -3.768  -0.001  1.00  0.00    -0.454 OA
ATOM     13  O   UNL     1       8.657  -4.093  -2.175  1.00  0.00    -0.454 OA
ATOM     14  C   UNL     1       8.961  -4.736  -0.960  1.00  0.00     0.468 C 
ENDBRANCH   5   6
ENDBRANCH   1   5
TORSDOF 3
ENDMDL
MODEL 3
REMARK VINA RESULT:      -7.2      2.053      2.615
REMARK SMILES CC(=O)CCc1ccc2c(c1)OCO2
REMARK SMILES IDX 4 1 2 2 1 3 3 4 5 5 6 6 7 7 11 8 8 9 10 10 9 11 12 12 14 13
REMARK SMILES IDX 13 14
REMARK H PARENT
REMARK Flexibility Score: inf
ROOT
ATOM      1  C   UNL     1       5.449  -0.041   2.031  1.00  0.00     0.080 C 
ENDROOT
BRANCH   1   2
ATOM      2  C   UNL     1       4.563   1.127   1.770  1.00  0.00     0.130 C 
ATOM      3  C   UNL     1       4.878   2.126   0.714  1.00  0.00     0.087 C 
ATOM      4  O   UNL     1       3.545   1.299   2.421  1.00  0.00    -0.300 OA
ENDBRANCH   1   2
BRANCH   1   5
ATOM      5  C   UNL     1       6.869   0.232   1.574  1.00  0.00     0.043 C 
BRANCH   5   6
ATOM      6  C   UNL     1       7.291  -0.702   0.516  1.00  0.00    -0.044 A 
ATOM      7  C   UNL     1       7.173  -0.376  -0.840  1.00  0.00     0.008 A 
ATOM      8  C   UNL     1       7.819  -1.926   0.858  1.00  0.00     0.054 A 
ATOM      9  C   UNL     1       7.587  -1.293  -1.789  1.00  0.00     0.051 A 
ATOM     10  C   UNL     1       8.237  -2.850  -0.106  1.00  0.00     0.166 A 
ATOM     11  C   UNL     1       8.120  -2.530  -1.440  1.00  0.00     0.165 A 
ATOM     12  O   UNL     1       8.785  -4.112  -0.022  1.00  0.00    -0.454 OA
ATOM     13  O   UNL     1       8.604  -3.614  -2.156  1.00  0.00    -0.454 OA
ATOM     14  C   UNL     1       9.120  -4.602  -1.295  1.00  0.00     0.468 C 
ENDBRANCH   5   6
ENDBRANCH   1   5
TORSDOF 3
ENDMDL
MODEL 4
REMARK VINA RESULT:      -7.1      1.240      1.441
REMARK SMILES CC(=O)CCc1ccc2c(c1)OCO2
REMARK SMILES IDX 4 1 2 2 1 3 3 4 5 5 6 6 7 7 11 8 8 9 10 10 9 11 12 12 14 13
REMARK SMILES IDX 13 14
REMARK H PARENT
REMARK Flexibility Score: inf
ROOT
ATOM      1  C   UNL     1       6.343   1.258   0.873  1.00  0.00     0.080 C 
ENDROOT
BRANCH   1   2
ATOM      2  C   UNL     1       5.665   0.433   1.912  1.00  0.00     0.130 C 
ATOM      3  C   UNL     1       6.305  -0.782   2.483  1.00  0.00     0.087 C 
ATOM      4  O   UNL     1       4.557   0.733   2.326  1.00  0.00    -0.300 OA
ENDBRANCH   1   2
BRANCH   1   5
ATOM      5  C   UNL     1       5.829   0.927  -0.514  1.00  0.00     0.043 C 
BRANCH   5   6
ATOM      6  C   UNL     1       6.794   0.112  -1.274  1.00  0.00    -0.044 A 
ATOM      7  C   UNL     1       7.503   0.639  -2.360  1.00  0.00     0.008 A 
ATOM      8  C   UNL     1       7.014  -1.198  -0.914  1.00  0.00     0.054 A 
ATOM      9  C   UNL     1       8.397  -0.173  -3.035  1.00  0.00     0.051 A 
ATOM     10  C   UNL     1       7.919  -2.014  -1.599  1.00  0.00     0.166 A 
ATOM     11  C   UNL     1       8.616  -1.497  -2.669  1.00  0.00     0.165 A 
ATOM     12  O   UNL     1       8.307  -3.327  -1.440  1.00  0.00    -0.454 OA
ATOM     13  O   UNL     1       9.427  -2.514  -3.147  1.00  0.00    -0.454 OA
ATOM     14  C   UNL     1       9.330  -3.664  -2.341  1.00  0.00     0.468 C 
ENDBRANCH   5   6
ENDBRANCH   1   5
TORSDOF 3
ENDMDL
MODEL 5
REMARK VINA RESULT:      -6.8      1.184      5.182
REMARK SMILES CC(=O)CCc1ccc2c(c1)OCO2
REMARK SMILES IDX 4 1 2 2 1 3 3 4 5 5 6 6 7 7 11 8 8 9 10 10 9 11 12 12 14 13
REMARK SMILES IDX 13 14
REMARK H PARENT
REMARK Flexibility Score: inf
ROOT
ATOM      1  C   UNL     1       8.309   0.171  -2.664  1.00  0.00     0.080 C 
ENDROOT
BRANCH   1   2
ATOM      2  C   UNL     1       8.054  -1.292  -2.782  1.00  0.00     0.130 C 
ATOM      3  C   UNL     1       9.161  -2.262  -3.004  1.00  0.00     0.087 C 
ATOM      4  O   UNL     1       6.922  -1.740  -2.701  1.00  0.00    -0.300 OA
ENDBRANCH   1   2
BRANCH   1   5
ATOM      5  C   UNL     1       8.844   0.527  -1.291  1.00  0.00     0.043 C 
BRANCH   5   6
ATOM      6  C   UNL     1       7.809   0.392  -0.250  1.00  0.00    -0.044 A 
ATOM      7  C   UNL     1       7.908  -0.570   0.761  1.00  0.00     0.008 A 
ATOM      8  C   UNL     1       6.717   1.229  -0.261  1.00  0.00     0.054 A 
ATOM      9  C   UNL     1       6.907  -0.650   1.712  1.00  0.00     0.051 A 
ATOM     10  C   UNL     1       5.708   1.145   0.703  1.00  0.00     0.166 A 
ATOM     11  C   UNL     1       5.804   0.198   1.698  1.00  0.00     0.165 A 
ATOM     12  O   UNL     1       4.540   1.850   0.905  1.00  0.00    -0.454 OA
ATOM     13  O   UNL     1       4.682   0.343   2.499  1.00  0.00    -0.454 OA
ATOM     14  C   UNL     1       3.900   1.438   2.086  1.00  0.00     0.468 C 
ENDBRANCH   5   6
ENDBRANCH   1   5
TORSDOF 3
ENDMDL
