@<TRIPOS>MOLECULE
/home/cewinharhar/GITHUB/reincatalyze/data/processed/docking_pred/2023-May-24-1506_sub9_nm5_bs15_s42_ex16_mel10_mts10000_k50_ec02_g099_lra3e-4_lrc3e-3/4fd116288ae20ad94bf91d23a53b6bc9c92e4cae_ligand_9.pdbqt
 14 15 0 0 0
SMALL
GASTEIGER

@<TRIPOS>ATOM
      1  C          6.3430    1.2580    0.8730 C.3     1  UNL1        0.0800
      2  C          5.6650    0.4330    1.9120 C.2     1  UNL1        0.1300
      3  C          6.3050   -0.7820    2.4830 C.3     1  UNL1        0.0870
      4  O          4.5570    0.7330    2.3260 O.2     1  UNL1       -0.3000
      5  C          5.8290    0.9270   -0.5140 C.3     1  UNL1        0.0430
      6  C          6.7940    0.1120   -1.2740 C.2     1  UNL1       -0.0440
      7  C          7.5030    0.6390   -2.3600 C.2     1  UNL1        0.0080
      8  C          7.0140   -1.1980   -0.9140 C.2     1  UNL1        0.0540
      9  C          8.3970   -0.1730   -3.0350 C.2     1  UNL1        0.0510
     10  C          7.9190   -2.0140   -1.5990 C.2     1  UNL1        0.1660
     11  C          8.6160   -1.4970   -2.6690 C.2     1  UNL1        0.1650
     12  O          8.3070   -3.3270   -1.4400 O.2     1  UNL1       -0.4540
     13  O          9.4270   -2.5140   -3.1470 O.2     1  UNL1       -0.4540
     14  C          9.3300   -3.6640   -2.3410 C.3     1  UNL1        0.4680
@<TRIPOS>BOND
     1    13    11    1
     2    13    14    1
     3     9    11    2
     4     9     7    1
     5    11    10    1
     6     7     6    2
     7    14    12    1
     8    10    12    1
     9    10     8    2
    10     6     8    1
    11     6     5    1
    12     5     1    1
    13     1     2    1
    14     2     4    2
    15     2     3    1
