@<TRIPOS>MOLECULE
/home/cewinharhar/GITHUB/reincatalyze/data/processed/docking_pred/2023-May-24-1506_sub9_nm5_bs15_s42_ex16_mel10_mts10000_k50_ec02_g099_lra3e-4_lrc3e-3/4fd116288ae20ad94bf91d23a53b6bc9c92e4cae_ligand_9.pdbqt
 14 15 0 0 0
SMALL
GASTEIGER

@<TRIPOS>ATOM
      1  C          5.7670    1.2560   -0.2840 C.3     1  UNL1        0.0800
      2  C          5.2640    1.2350    1.1180 C.2     1  UNL1        0.1300
      3  C          5.5660    0.1080    2.0400 C.3     1  UNL1        0.0870
      4  O          4.5820    2.1500    1.5520 O.2     1  UNL1       -0.3000
      5  C          7.2680    1.0440   -0.3330 C.3     1  UNL1        0.0430
      6  C          7.6170   -0.2610   -0.9210 C.2     1  UNL1       -0.0440
      7  C          7.6390   -0.4590   -2.3060 C.2     1  UNL1        0.0080
      8  C          7.9320   -1.3180   -0.0970 C.2     1  UNL1        0.0540
      9  C          7.9750   -1.7060   -2.8010 C.2     1  UNL1        0.0510
     10  C          8.2720   -2.5770   -0.6020 C.2     1  UNL1        0.1660
     11  C          8.2930   -2.7720   -1.9650 C.2     1  UNL1        0.1650
     12  O          8.6180   -3.7680   -0.0010 O.2     1  UNL1       -0.4540
     13  O          8.6570   -4.0930   -2.1750 O.2     1  UNL1       -0.4540
     14  C          8.9610   -4.7360   -0.9600 C.3     1  UNL1        0.4680
@<TRIPOS>BOND
     1     9     7    1
     2     9    11    2
     3     7     6    2
     4    13    11    1
     5    13    14    1
     6    11    10    1
     7    14    12    1
     8     6     5    1
     9     6     8    1
    10    10     8    2
    11    10    12    1
    12     5     1    1
    13     1     2    1
    14     2     4    2
    15     2     3    1
