@<TRIPOS>MOLECULE
/home/cewinharhar/GITHUB/reincatalyze/data/processed/docking_pred/2023-May-24-1506_sub9_nm5_bs15_s42_ex16_mel10_mts10000_k50_ec02_g099_lra3e-4_lrc3e-3/5131ba4422f83928eab452067adeb3f7f7723c60_ligand_9.pdbqt
 14 15 0 0 0
SMALL
GASTEIGER

@<TRIPOS>ATOM
      1  C          5.4220   -0.0480    2.0000 C.3     1  UNL1        0.0800
      2  C          4.5740    1.1520    1.7570 C.2     1  UNL1        0.1300
      3  C          4.9010    2.1360    0.6900 C.3     1  UNL1        0.0870
      4  O          3.5800    1.3640    2.4320 O.2     1  UNL1       -0.3000
      5  C          6.8580    0.2000    1.5830 C.3     1  UNL1        0.0430
      6  C          7.2850   -0.7250    0.5170 C.2     1  UNL1       -0.0440
      7  C          7.1580   -0.3910   -0.8360 C.2     1  UNL1        0.0080
      8  C          7.8240   -1.9470    0.8500 C.2     1  UNL1        0.0540
      9  C          7.5770   -1.2980   -1.7920 C.2     1  UNL1        0.0510
     10  C          8.2460   -2.8600   -0.1210 C.2     1  UNL1        0.1660
     11  C          8.1210   -2.5330   -1.4530 C.2     1  UNL1        0.1650
     12  O          8.8050   -4.1180   -0.0480 O.2     1  UNL1       -0.4540
     13  O          8.6120   -3.6090   -2.1770 O.2     1  UNL1       -0.4540
     14  C          9.1390   -4.5970   -1.3250 C.3     1  UNL1        0.4680
@<TRIPOS>BOND
     1    13    11    1
     2    13    14    1
     3     9    11    2
     4     9     7    1
     5    11    10    1
     6    14    12    1
     7     7     6    2
     8    10    12    1
     9    10     8    2
    10     6     8    1
    11     6     5    1
    12     3     2    1
    13     5     1    1
    14     2     1    1
    15     2     4    2
