@<TRIPOS>MOLECULE
/home/cewinharhar/GITHUB/reincatalyze/data/processed/docking_pred/2023-May-24-1506_sub9_nm5_bs15_s42_ex16_mel10_mts10000_k50_ec02_g099_lra3e-4_lrc3e-3/5131ba4422f83928eab452067adeb3f7f7723c60_ligand_9.pdbqt
 14 15 0 0 0
SMALL
GASTEIGER

@<TRIPOS>ATOM
      1  C          6.3300    1.2700    0.8800 C.3     1  UNL1        0.0800
      2  C          5.6640    0.4200    1.9050 C.2     1  UNL1        0.1300
      3  C          6.3310   -0.7810    2.4770 C.3     1  UNL1        0.0870
      4  O          4.5430    0.6850    2.3090 O.2     1  UNL1       -0.3000
      5  C          5.8270    0.9480   -0.5130 C.3     1  UNL1        0.0430
      6  C          6.7910    0.1250   -1.2660 C.2     1  UNL1       -0.0440
      7  C          7.5100    0.6450   -2.3490 C.2     1  UNL1        0.0080
      8  C          7.0010   -1.1850   -0.9010 C.2     1  UNL1        0.0540
      9  C          8.4020   -0.1740   -3.0170 C.2     1  UNL1        0.0510
     10  C          7.9040   -2.0090   -1.5790 C.2     1  UNL1        0.1660
     11  C          8.6100   -1.4990   -2.6460 C.2     1  UNL1        0.1650
     12  O          8.2840   -3.3240   -1.4130 O.2     1  UNL1       -0.4540
     13  O          9.4180   -2.5220   -3.1170 O.2     1  UNL1       -0.4540
     14  C          9.3090   -3.6690   -2.3090 C.3     1  UNL1        0.4680
@<TRIPOS>BOND
     1    13    11    1
     2    13    14    1
     3     9    11    2
     4     9     7    1
     5    11    10    1
     6     7     6    2
     7    14    12    1
     8    10    12    1
     9    10     8    2
    10     6     8    1
    11     6     5    1
    12     5     1    1
    13     1     2    1
    14     2     4    2
    15     2     3    1
