MODEL 1
REMARK VINA RESULT:      -7.7      0.000      0.000
REMARK SMILES CC(=O)CCc1ccc2c(c1)OCO2
REMARK SMILES IDX 4 1 2 2 1 3 3 4 5 5 6 6 7 7 11 8 8 9 10 10 9 11 12 12 14 13
REMARK SMILES IDX 13 14
REMARK H PARENT
REMARK Flexibility Score: inf
ROOT
ATOM      1  C   UNL     1       5.508   1.921   1.261  1.00  0.00     0.080 C 
ENDROOT
BRANCH   1   2
ATOM      2  C   UNL     1       5.058   0.707   1.997  1.00  0.00     0.130 C 
ATOM      3  C   UNL     1       5.935  -0.485   2.149  1.00  0.00     0.087 C 
ATOM      4  O   UNL     1       3.947   0.655   2.501  1.00  0.00    -0.300 OA
ENDBRANCH   1   2
BRANCH   1   5
ATOM      5  C   UNL     1       5.387   1.732  -0.238  1.00  0.00     0.043 C 
BRANCH   5   6
ATOM      6  C   UNL     1       6.557   1.030  -0.796  1.00  0.00    -0.044 A 
ATOM      7  C   UNL     1       7.863   1.464  -0.540  1.00  0.00     0.008 A 
ATOM      8  C   UNL     1       6.372  -0.080  -1.589  1.00  0.00     0.054 A 
ATOM      9  C   UNL     1       8.922   0.765  -1.090  1.00  0.00     0.051 A 
ATOM     10  C   UNL     1       7.446  -0.783  -2.142  1.00  0.00     0.166 A 
ATOM     11  C   UNL     1       8.732  -0.357  -1.891  1.00  0.00     0.165 A 
ATOM     12  O   UNL     1       7.523  -1.898  -2.950  1.00  0.00    -0.454 OA
ATOM     13  O   UNL     1       9.580  -1.228  -2.556  1.00  0.00    -0.454 OA
ATOM     14  C   UNL     1       8.860  -2.273  -3.165  1.00  0.00     0.468 C 
ENDBRANCH   5   6
ENDBRANCH   1   5
TORSDOF 3
ENDMDL
MODEL 2
REMARK VINA RESULT:      -7.4      1.910      2.375
REMARK SMILES CC(=O)CCc1ccc2c(c1)OCO2
REMARK SMILES IDX 4 1 2 2 1 3 3 4 5 5 6 6 7 7 11 8 8 9 10 10 9 11 12 12 14 13
REMARK SMILES IDX 13 14
REMARK H PARENT
REMARK Flexibility Score: inf
ROOT
ATOM      1  C   UNL     1       5.767   1.367  -0.281  1.00  0.00     0.080 C 
ENDROOT
BRANCH   1   2
ATOM      2  C   UNL     1       5.140   1.269   1.066  1.00  0.00     0.130 C 
ATOM      3  C   UNL     1       5.381   0.103   1.957  1.00  0.00     0.087 C 
ATOM      4  O   UNL     1       4.403   2.150   1.480  1.00  0.00    -0.300 OA
ENDBRANCH   1   2
BRANCH   1   5
ATOM      5  C   UNL     1       7.259   1.109  -0.213  1.00  0.00     0.043 C 
BRANCH   5   6
ATOM      6  C   UNL     1       7.621  -0.174  -0.842  1.00  0.00    -0.044 A 
ATOM      7  C   UNL     1       7.633  -0.330  -2.233  1.00  0.00     0.008 A 
ATOM      8  C   UNL     1       7.960  -1.249  -0.053  1.00  0.00     0.054 A 
ATOM      9  C   UNL     1       7.982  -1.557  -2.767  1.00  0.00     0.051 A 
ATOM     10  C   UNL     1       8.313  -2.488  -0.598  1.00  0.00     0.166 A 
ATOM     11  C   UNL     1       8.323  -2.643  -1.967  1.00  0.00     0.165 A 
ATOM     12  O   UNL     1       8.683  -3.691  -0.036  1.00  0.00    -0.454 OA
ATOM     13  O   UNL     1       8.704  -3.952  -2.218  1.00  0.00    -0.454 OA
ATOM     14  C   UNL     1       9.030  -4.625  -1.026  1.00  0.00     0.468 C 
ENDBRANCH   5   6
ENDBRANCH   1   5
TORSDOF 3
ENDMDL
MODEL 3
REMARK VINA RESULT:      -7.2      2.049      2.617
REMARK SMILES CC(=O)CCc1ccc2c(c1)OCO2
REMARK SMILES IDX 4 1 2 2 1 3 3 4 5 5 6 6 7 7 11 8 8 9 10 10 9 11 12 12 14 13
REMARK SMILES IDX 13 14
REMARK H PARENT
REMARK Flexibility Score: inf
ROOT
ATOM      1  C   UNL     1       5.422  -0.048   2.000  1.00  0.00     0.080 C 
ENDROOT
BRANCH   1   2
ATOM      2  C   UNL     1       4.574   1.152   1.757  1.00  0.00     0.130 C 
ATOM      3  C   UNL     1       4.901   2.136   0.690  1.00  0.00     0.087 C 
ATOM      4  O   UNL     1       3.580   1.364   2.432  1.00  0.00    -0.300 OA
ENDBRANCH   1   2
BRANCH   1   5
ATOM      5  C   UNL     1       6.858   0.200   1.583  1.00  0.00     0.043 C 
BRANCH   5   6
ATOM      6  C   UNL     1       7.285  -0.725   0.517  1.00  0.00    -0.044 A 
ATOM      7  C   UNL     1       7.158  -0.391  -0.836  1.00  0.00     0.008 A 
ATOM      8  C   UNL     1       7.824  -1.947   0.850  1.00  0.00     0.054 A 
ATOM      9  C   UNL     1       7.577  -1.298  -1.792  1.00  0.00     0.051 A 
ATOM     10  C   UNL     1       8.246  -2.860  -0.121  1.00  0.00     0.166 A 
ATOM     11  C   UNL     1       8.121  -2.533  -1.453  1.00  0.00     0.165 A 
ATOM     12  O   UNL     1       8.805  -4.118  -0.048  1.00  0.00    -0.454 OA
ATOM     13  O   UNL     1       8.612  -3.609  -2.177  1.00  0.00    -0.454 OA
ATOM     14  C   UNL     1       9.139  -4.597  -1.325  1.00  0.00     0.468 C 
ENDBRANCH   5   6
ENDBRANCH   1   5
TORSDOF 3
ENDMDL
MODEL 4
REMARK VINA RESULT:      -7.1      1.243      1.445
REMARK SMILES CC(=O)CCc1ccc2c(c1)OCO2
REMARK SMILES IDX 4 1 2 2 1 3 3 4 5 5 6 6 7 7 11 8 8 9 10 10 9 11 12 12 14 13
REMARK SMILES IDX 13 14
REMARK H PARENT
REMARK Flexibility Score: inf
ROOT
ATOM      1  C   UNL     1       6.330   1.270   0.880  1.00  0.00     0.080 C 
ENDROOT
BRANCH   1   2
ATOM      2  C   UNL     1       5.664   0.420   1.905  1.00  0.00     0.130 C 
ATOM      3  C   UNL     1       6.331  -0.781   2.477  1.00  0.00     0.087 C 
ATOM      4  O   UNL     1       4.543   0.685   2.309  1.00  0.00    -0.300 OA
ENDBRANCH   1   2
BRANCH   1   5
ATOM      5  C   UNL     1       5.827   0.948  -0.513  1.00  0.00     0.043 C 
BRANCH   5   6
ATOM      6  C   UNL     1       6.791   0.125  -1.266  1.00  0.00    -0.044 A 
ATOM      7  C   UNL     1       7.510   0.645  -2.349  1.00  0.00     0.008 A 
ATOM      8  C   UNL     1       7.001  -1.185  -0.901  1.00  0.00     0.054 A 
ATOM      9  C   UNL     1       8.402  -0.174  -3.017  1.00  0.00     0.051 A 
ATOM     10  C   UNL     1       7.904  -2.009  -1.579  1.00  0.00     0.166 A 
ATOM     11  C   UNL     1       8.610  -1.499  -2.646  1.00  0.00     0.165 A 
ATOM     12  O   UNL     1       8.284  -3.324  -1.413  1.00  0.00    -0.454 OA
ATOM     13  O   UNL     1       9.418  -2.522  -3.117  1.00  0.00    -0.454 OA
ATOM     14  C   UNL     1       9.309  -3.669  -2.309  1.00  0.00     0.468 C 
ENDBRANCH   5   6
ENDBRANCH   1   5
TORSDOF 3
ENDMDL
MODEL 5
REMARK VINA RESULT:      -7.1      1.974      2.525
REMARK SMILES CC(=O)CCc1ccc2c(c1)OCO2
REMARK SMILES IDX 4 1 2 2 1 3 3 4 5 5 6 6 7 7 11 8 8 9 10 10 9 11 12 12 14 13
REMARK SMILES IDX 13 14
REMARK H PARENT
REMARK Flexibility Score: inf
ROOT
ATOM      1  C   UNL     1       6.764   0.617   1.339  1.00  0.00     0.080 C 
ENDROOT
BRANCH   1   2
ATOM      2  C   UNL     1       5.340   1.027   1.492  1.00  0.00     0.130 C 
ATOM      3  C   UNL     1       4.728   2.063   0.617  1.00  0.00     0.087 C 
ATOM      4  O   UNL     1       4.630   0.521   2.345  1.00  0.00    -0.300 OA
ENDBRANCH   1   2
BRANCH   1   5
ATOM      5  C   UNL     1       7.265   0.883  -0.066  1.00  0.00     0.043 C 
BRANCH   5   6
ATOM      6  C   UNL     1       7.689  -0.358  -0.739  1.00  0.00    -0.044 A 
ATOM      7  C   UNL     1       7.883  -0.412  -2.124  1.00  0.00     0.008 A 
ATOM      8  C   UNL     1       7.906  -1.497   0.004  1.00  0.00     0.054 A 
ATOM      9  C   UNL     1       8.282  -1.605  -2.700  1.00  0.00     0.051 A 
ATOM     10  C   UNL     1       8.310  -2.700  -0.583  1.00  0.00     0.166 A 
ATOM     11  C   UNL     1       8.499  -2.754  -1.946  1.00  0.00     0.165 A 
ATOM     12  O   UNL     1       8.585  -3.950  -0.070  1.00  0.00    -0.454 OA
ATOM     13  O   UNL     1       8.892  -4.049  -2.245  1.00  0.00    -0.454 OA
ATOM     14  C   UNL     1       9.047  -4.816  -1.074  1.00  0.00     0.468 C 
ENDBRANCH   5   6
ENDBRANCH   1   5
TORSDOF 3
ENDMDL
