@<TRIPOS>MOLECULE
/home/cewinharhar/GITHUB/reincatalyze/data/processed/docking_pred/2023-May-24-1506_sub9_nm5_bs15_s42_ex16_mel10_mts10000_k50_ec02_g099_lra3e-4_lrc3e-3/5131ba4422f83928eab452067adeb3f7f7723c60_ligand_9.pdbqt
 14 15 0 0 0
SMALL
GASTEIGER

@<TRIPOS>ATOM
      1  C          5.7670    1.3670   -0.2810 C.3     1  UNL1        0.0800
      2  C          5.1400    1.2690    1.0660 C.2     1  UNL1        0.1300
      3  C          5.3810    0.1030    1.9570 C.3     1  UNL1        0.0870
      4  O          4.4030    2.1500    1.4800 O.2     1  UNL1       -0.3000
      5  C          7.2590    1.1090   -0.2130 C.3     1  UNL1        0.0430
      6  C          7.6210   -0.1740   -0.8420 C.2     1  UNL1       -0.0440
      7  C          7.6330   -0.3300   -2.2330 C.2     1  UNL1        0.0080
      8  C          7.9600   -1.2490   -0.0530 C.2     1  UNL1        0.0540
      9  C          7.9820   -1.5570   -2.7670 C.2     1  UNL1        0.0510
     10  C          8.3130   -2.4880   -0.5980 C.2     1  UNL1        0.1660
     11  C          8.3230   -2.6430   -1.9670 C.2     1  UNL1        0.1650
     12  O          8.6830   -3.6910   -0.0360 O.2     1  UNL1       -0.4540
     13  O          8.7040   -3.9520   -2.2180 O.2     1  UNL1       -0.4540
     14  C          9.0300   -4.6250   -1.0260 C.3     1  UNL1        0.4680
@<TRIPOS>BOND
     1     9     7    1
     2     9    11    2
     3     7     6    2
     4    13    11    1
     5    13    14    1
     6    11    10    1
     7    14    12    1
     8     6     5    1
     9     6     8    1
    10    10     8    2
    11    10    12    1
    12     1     5    1
    13     1     2    1
    14     2     4    2
    15     2     3    1
