@<TRIPOS>MOLECULE
/home/cewinharhar/GITHUB/reincatalyze/data/processed/docking_pred/2023-May-24-1506_sub9_nm5_bs15_s42_ex16_mel10_mts10000_k50_ec02_g099_lra3e-4_lrc3e-3/5131ba4422f83928eab452067adeb3f7f7723c60_ligand_9.pdbqt
 14 15 0 0 0
SMALL
GASTEIGER

@<TRIPOS>ATOM
      1  C          6.7640    0.6170    1.3390 C.3     1  UNL1        0.0800
      2  C          5.3400    1.0270    1.4920 C.2     1  UNL1        0.1300
      3  C          4.7280    2.0630    0.6170 C.3     1  UNL1        0.0870
      4  O          4.6300    0.5210    2.3450 O.2     1  UNL1       -0.3000
      5  C          7.2650    0.8830   -0.0660 C.3     1  UNL1        0.0430
      6  C          7.6890   -0.3580   -0.7390 C.2     1  UNL1       -0.0440
      7  C          7.8830   -0.4120   -2.1240 C.2     1  UNL1        0.0080
      8  C          7.9060   -1.4970    0.0040 C.2     1  UNL1        0.0540
      9  C          8.2820   -1.6050   -2.7000 C.2     1  UNL1        0.0510
     10  C          8.3100   -2.7000   -0.5830 C.2     1  UNL1        0.1660
     11  C          8.4990   -2.7540   -1.9460 C.2     1  UNL1        0.1650
     12  O          8.5850   -3.9500   -0.0700 O.2     1  UNL1       -0.4540
     13  O          8.8920   -4.0490   -2.2450 O.2     1  UNL1       -0.4540
     14  C          9.0470   -4.8160   -1.0740 C.3     1  UNL1        0.4680
@<TRIPOS>BOND
     1     9     7    1
     2     9    11    2
     3    13    11    1
     4    13    14    1
     5     7     6    2
     6    11    10    1
     7    14    12    1
     8     6     5    1
     9     6     8    1
    10    10    12    1
    11    10     8    2
    12     5     1    1
    13     3     2    1
    14     1     2    1
    15     2     4    2
