@<TRIPOS>MOLECULE
/home/cewinharhar/GITHUB/reincatalyze/data/processed/docking_pred/2023-May-24-1506_sub9_nm5_bs15_s42_ex16_mel10_mts10000_k50_ec02_g099_lra3e-4_lrc3e-3/51335195432d6c3c52ef841bfe8bb9323d602809_ligand_9.pdbqt
 14 15 0 0 0
SMALL
GASTEIGER

@<TRIPOS>ATOM
      1  C          5.8080    1.3680   -0.2540 C.3     1  UNL1        0.0800
      2  C          5.2150    1.2430    1.1070 C.2     1  UNL1        0.1300
      3  C          5.4000    0.0180    1.9290 C.3     1  UNL1        0.0870
      4  O          4.5550    2.1500    1.5890 O.2     1  UNL1       -0.3000
      5  C          7.3000    1.1020   -0.2310 C.3     1  UNL1        0.0430
      6  C          7.6340   -0.1900   -0.8570 C.2     1  UNL1       -0.0440
      7  C          7.6460   -0.3490   -2.2480 C.2     1  UNL1        0.0080
      8  C          7.9470   -1.2710   -0.0650 C.2     1  UNL1        0.0540
      9  C          7.9680   -1.5850   -2.7790 C.2     1  UNL1        0.0510
     10  C          8.2730   -2.5180   -0.6070 C.2     1  UNL1        0.1660
     11  C          8.2830   -2.6760   -1.9750 C.2     1  UNL1        0.1650
     12  O          8.6140   -3.7280   -0.0410 O.2     1  UNL1       -0.4540
     13  O          8.6350   -3.9930   -2.2240 O.2     1  UNL1       -0.4540
     14  C          8.9420   -4.6720   -1.0290 C.3     1  UNL1        0.4680
@<TRIPOS>BOND
     1     9     7    1
     2     9    11    2
     3     7     6    2
     4    13    11    1
     5    13    14    1
     6    11    10    1
     7    14    12    1
     8     6     5    1
     9     6     8    1
    10    10     8    2
    11    10    12    1
    12     1     5    1
    13     1     2    1
    14     2     4    2
    15     2     3    1
