@<TRIPOS>MOLECULE
/home/cewinharhar/GITHUB/reincatalyze/data/processed/docking_pred/2023-May-24-1506_sub9_nm5_bs15_s42_ex16_mel10_mts10000_k50_ec02_g099_lra3e-4_lrc3e-3/51542704134b89ca57269b08ae0f223fe531e163_ligand_9.pdbqt
 14 15 0 0 0
SMALL
GASTEIGER

@<TRIPOS>ATOM
      1  C          5.4620   -0.0280    2.0050 C.3     1  UNL1        0.0800
      2  C          4.5890    1.1540    1.7600 C.2     1  UNL1        0.1300
      3  C          4.8900    2.1380    0.6870 C.3     1  UNL1        0.0870
      4  O          3.5930    1.3490    2.4390 O.2     1  UNL1       -0.3000
      5  C          6.8830    0.2330    1.5470 C.3     1  UNL1        0.0430
      6  C          7.2990   -0.7110    0.4940 C.2     1  UNL1       -0.0440
      7  C          7.1670   -0.3980   -0.8640 C.2     1  UNL1        0.0080
      8  C          7.8330   -1.9300    0.8430 C.2     1  UNL1        0.0540
      9  C          7.5760   -1.3230   -1.8080 C.2     1  UNL1        0.0510
     10  C          8.2460   -2.8610   -0.1150 C.2     1  UNL1        0.1660
     11  C          8.1150   -2.5550   -1.4510 C.2     1  UNL1        0.1650
     12  O          8.7980   -4.1210   -0.0240 O.2     1  UNL1       -0.4540
     13  O          8.5960   -3.6440   -2.1610 O.2     1  UNL1       -0.4540
     14  C          9.1230   -4.6220   -1.2950 C.3     1  UNL1        0.4680
@<TRIPOS>BOND
     1    13    11    1
     2    13    14    1
     3     9    11    2
     4     9     7    1
     5    11    10    1
     6    14    12    1
     7     7     6    2
     8    10    12    1
     9    10     8    2
    10     6     8    1
    11     6     5    1
    12     3     2    1
    13     5     1    1
    14     2     1    1
    15     2     4    2
