MODEL 1
REMARK VINA RESULT:      -7.7      0.000      0.000
REMARK SMILES CC(=O)CCc1ccc2c(c1)OCO2
REMARK SMILES IDX 4 1 2 2 1 3 3 4 5 5 6 6 7 7 11 8 8 9 10 10 9 11 12 12 14 13
REMARK SMILES IDX 13 14
REMARK H PARENT
REMARK Flexibility Score: inf
ROOT
ATOM      1  C   UNL     1       5.500   1.945   1.247  1.00  0.00     0.080 C 
ENDROOT
BRANCH   1   2
ATOM      2  C   UNL     1       5.080   0.729   1.997  1.00  0.00     0.130 C 
ATOM      3  C   UNL     1       5.991  -0.435   2.169  1.00  0.00     0.087 C 
ATOM      4  O   UNL     1       3.969   0.652   2.496  1.00  0.00    -0.300 OA
ENDBRANCH   1   2
BRANCH   1   5
ATOM      5  C   UNL     1       5.378   1.738  -0.250  1.00  0.00     0.043 C 
BRANCH   5   6
ATOM      6  C   UNL     1       6.550   1.036  -0.802  1.00  0.00    -0.044 A 
ATOM      7  C   UNL     1       7.855   1.466  -0.534  1.00  0.00     0.008 A 
ATOM      8  C   UNL     1       6.370  -0.071  -1.599  1.00  0.00     0.054 A 
ATOM      9  C   UNL     1       8.917   0.768  -1.079  1.00  0.00     0.051 A 
ATOM     10  C   UNL     1       7.447  -0.774  -2.147  1.00  0.00     0.166 A 
ATOM     11  C   UNL     1       8.731  -0.351  -1.885  1.00  0.00     0.165 A 
ATOM     12  O   UNL     1       7.528  -1.886  -2.958  1.00  0.00    -0.454 OA
ATOM     13  O   UNL     1       9.583  -1.222  -2.546  1.00  0.00    -0.454 OA
ATOM     14  C   UNL     1       8.865  -2.264  -3.164  1.00  0.00     0.468 C 
ENDBRANCH   5   6
ENDBRANCH   1   5
TORSDOF 3
ENDMDL
MODEL 2
REMARK VINA RESULT:      -7.4      1.830      2.292
REMARK SMILES CC(=O)CCc1ccc2c(c1)OCO2
REMARK SMILES IDX 4 1 2 2 1 3 3 4 5 5 6 6 7 7 11 8 8 9 10 10 9 11 12 12 14 13
REMARK SMILES IDX 13 14
REMARK H PARENT
REMARK Flexibility Score: inf
ROOT
ATOM      1  C   UNL     1       5.784   1.524  -0.204  1.00  0.00     0.080 C 
ENDROOT
BRANCH   1   2
ATOM      2  C   UNL     1       5.118   1.321   1.113  1.00  0.00     0.130 C 
ATOM      3  C   UNL     1       5.513   0.215   2.026  1.00  0.00     0.087 C 
ATOM      4  O   UNL     1       4.222   2.063   1.482  1.00  0.00    -0.300 OA
ENDBRANCH   1   2
BRANCH   1   5
ATOM      5  C   UNL     1       7.263   1.202  -0.128  1.00  0.00     0.043 C 
BRANCH   5   6
ATOM      6  C   UNL     1       7.582  -0.068  -0.804  1.00  0.00    -0.044 A 
ATOM      7  C   UNL     1       7.541  -0.187  -2.198  1.00  0.00     0.008 A 
ATOM      8  C   UNL     1       7.933  -1.169  -0.056  1.00  0.00     0.054 A 
ATOM      9  C   UNL     1       7.851  -1.404  -2.776  1.00  0.00     0.051 A 
ATOM     10  C   UNL     1       8.246  -2.397  -0.646  1.00  0.00     0.166 A 
ATOM     11  C   UNL     1       8.204  -2.516  -2.018  1.00  0.00     0.165 A 
ATOM     12  O   UNL     1       8.618  -3.621  -0.130  1.00  0.00    -0.454 OA
ATOM     13  O   UNL     1       8.556  -3.823  -2.318  1.00  0.00    -0.454 OA
ATOM     14  C   UNL     1       8.914  -4.532  -1.156  1.00  0.00     0.468 C 
ENDBRANCH   5   6
ENDBRANCH   1   5
TORSDOF 3
ENDMDL
MODEL 3
REMARK VINA RESULT:      -7.2      2.062      2.630
REMARK SMILES CC(=O)CCc1ccc2c(c1)OCO2
REMARK SMILES IDX 4 1 2 2 1 3 3 4 5 5 6 6 7 7 11 8 8 9 10 10 9 11 12 12 14 13
REMARK SMILES IDX 13 14
REMARK H PARENT
REMARK Flexibility Score: inf
ROOT
ATOM      1  C   UNL     1       5.462  -0.028   2.005  1.00  0.00     0.080 C 
ENDROOT
BRANCH   1   2
ATOM      2  C   UNL     1       4.589   1.154   1.760  1.00  0.00     0.130 C 
ATOM      3  C   UNL     1       4.890   2.138   0.687  1.00  0.00     0.087 C 
ATOM      4  O   UNL     1       3.593   1.349   2.439  1.00  0.00    -0.300 OA
ENDBRANCH   1   2
BRANCH   1   5
ATOM      5  C   UNL     1       6.883   0.233   1.547  1.00  0.00     0.043 C 
BRANCH   5   6
ATOM      6  C   UNL     1       7.299  -0.711   0.494  1.00  0.00    -0.044 A 
ATOM      7  C   UNL     1       7.167  -0.398  -0.864  1.00  0.00     0.008 A 
ATOM      8  C   UNL     1       7.833  -1.930   0.843  1.00  0.00     0.054 A 
ATOM      9  C   UNL     1       7.576  -1.323  -1.808  1.00  0.00     0.051 A 
ATOM     10  C   UNL     1       8.246  -2.861  -0.115  1.00  0.00     0.166 A 
ATOM     11  C   UNL     1       8.115  -2.555  -1.451  1.00  0.00     0.165 A 
ATOM     12  O   UNL     1       8.798  -4.121  -0.024  1.00  0.00    -0.454 OA
ATOM     13  O   UNL     1       8.596  -3.644  -2.161  1.00  0.00    -0.454 OA
ATOM     14  C   UNL     1       9.123  -4.622  -1.295  1.00  0.00     0.468 C 
ENDBRANCH   5   6
ENDBRANCH   1   5
TORSDOF 3
ENDMDL
MODEL 4
REMARK VINA RESULT:      -7.1      1.271      1.494
REMARK SMILES CC(=O)CCc1ccc2c(c1)OCO2
REMARK SMILES IDX 4 1 2 2 1 3 3 4 5 5 6 6 7 7 11 8 8 9 10 10 9 11 12 12 14 13
REMARK SMILES IDX 13 14
REMARK H PARENT
REMARK Flexibility Score: inf
ROOT
ATOM      1  C   UNL     1       6.405   1.197   0.933  1.00  0.00     0.080 C 
ENDROOT
BRANCH   1   2
ATOM      2  C   UNL     1       5.667   0.376   1.934  1.00  0.00     0.130 C 
ATOM      3  C   UNL     1       6.261  -0.852   2.526  1.00  0.00     0.087 C 
ATOM      4  O   UNL     1       4.546   0.692   2.299  1.00  0.00    -0.300 OA
ENDBRANCH   1   2
BRANCH   1   5
ATOM      5  C   UNL     1       5.903   0.931  -0.473  1.00  0.00     0.043 C 
BRANCH   5   6
ATOM      6  C   UNL     1       6.844   0.096  -1.240  1.00  0.00    -0.044 A 
ATOM      7  C   UNL     1       7.533   0.597  -2.350  1.00  0.00     0.008 A 
ATOM      8  C   UNL     1       7.060  -1.210  -0.863  1.00  0.00     0.054 A 
ATOM      9  C   UNL     1       8.404  -0.233  -3.031  1.00  0.00     0.051 A 
ATOM     10  C   UNL     1       7.942  -2.046  -1.554  1.00  0.00     0.166 A 
ATOM     11  C   UNL     1       8.619  -1.554  -2.648  1.00  0.00     0.165 A 
ATOM     12  O   UNL     1       8.322  -3.360  -1.381  1.00  0.00    -0.454 OA
ATOM     13  O   UNL     1       9.411  -2.586  -3.127  1.00  0.00    -0.454 OA
ATOM     14  C   UNL     1       9.322  -3.721  -2.300  1.00  0.00     0.468 C 
ENDBRANCH   5   6
ENDBRANCH   1   5
TORSDOF 3
ENDMDL
MODEL 5
REMARK VINA RESULT:      -7.1      1.943      2.498
REMARK SMILES CC(=O)CCc1ccc2c(c1)OCO2
REMARK SMILES IDX 4 1 2 2 1 3 3 4 5 5 6 6 7 7 11 8 8 9 10 10 9 11 12 12 14 13
REMARK SMILES IDX 13 14
REMARK H PARENT
REMARK Flexibility Score: inf
ROOT
ATOM      1  C   UNL     1       6.688   0.683   1.268  1.00  0.00     0.080 C 
ENDROOT
BRANCH   1   2
ATOM      2  C   UNL     1       5.271   1.094   1.469  1.00  0.00     0.130 C 
ATOM      3  C   UNL     1       4.637   2.148   0.632  1.00  0.00     0.087 C 
ATOM      4  O   UNL     1       4.584   0.574   2.334  1.00  0.00    -0.300 OA
ENDBRANCH   1   2
BRANCH   1   5
ATOM      5  C   UNL     1       7.134   0.925  -0.160  1.00  0.00     0.043 C 
BRANCH   5   6
ATOM      6  C   UNL     1       7.590  -0.318  -0.808  1.00  0.00    -0.044 A 
ATOM      7  C   UNL     1       7.789  -0.392  -2.192  1.00  0.00     0.008 A 
ATOM      8  C   UNL     1       7.832  -1.437  -0.044  1.00  0.00     0.054 A 
ATOM      9  C   UNL     1       8.218  -1.585  -2.745  1.00  0.00     0.051 A 
ATOM     10  C   UNL     1       8.267  -2.640  -0.608  1.00  0.00     0.166 A 
ATOM     11  C   UNL     1       8.461  -2.715  -1.969  1.00  0.00     0.165 A 
ATOM     12  O   UNL     1       8.571  -3.873  -0.071  1.00  0.00    -0.454 OA
ATOM     13  O   UNL     1       8.886  -4.005  -2.243  1.00  0.00    -0.454 OA
ATOM     14  C   UNL     1       9.057  -4.747  -1.058  1.00  0.00     0.468 C 
ENDBRANCH   5   6
ENDBRANCH   1   5
TORSDOF 3
ENDMDL
