@<TRIPOS>MOLECULE
/home/cewinharhar/GITHUB/reincatalyze/data/processed/docking_pred/2023-May-24-1506_sub9_nm5_bs15_s42_ex16_mel10_mts10000_k50_ec02_g099_lra3e-4_lrc3e-3/51cadb519a72bd0ce332fe372f57097c9ba117cb_ligand_9.pdbqt
 14 15 0 0 0
SMALL
GASTEIGER

@<TRIPOS>ATOM
      1  C          6.7780    0.7650    1.3190 C.3     1  UNL1        0.0800
      2  C          5.3470    1.1560    1.4530 C.2     1  UNL1        0.1300
      3  C          4.7200    2.1490    0.5410 C.3     1  UNL1        0.0870
      4  O          4.6440    0.6690    2.3240 O.2     1  UNL1       -0.3000
      5  C          7.2740    0.9710   -0.0990 C.3     1  UNL1        0.0430
      6  C          7.6100   -0.3080   -0.7510 C.2     1  UNL1       -0.0440
      7  C          7.5750   -0.4520   -2.1420 C.2     1  UNL1        0.0080
      8  C          7.9700   -1.3910    0.0180 C.2     1  UNL1        0.0540
      9  C          7.9010   -1.6760   -2.6980 C.2     1  UNL1        0.0510
     10  C          8.3000   -2.6260   -0.5490 C.2     1  UNL1        0.1660
     11  C          8.2650   -2.7690   -1.9180 C.2     1  UNL1        0.1650
     12  O          8.6840   -3.8350   -0.0090 O.2     1  UNL1       -0.4540
     13  O          8.6320   -4.0770   -2.1940 O.2     1  UNL1       -0.4540
     14  C          8.9940   -4.7620   -1.0180 C.3     1  UNL1        0.4680
@<TRIPOS>BOND
     1     9     7    1
     2     9    11    2
     3    13    11    1
     4    13    14    1
     5     7     6    2
     6    11    10    1
     7    14    12    1
     8     6     5    1
     9     6     8    1
    10    10    12    1
    11    10     8    2
    12     5     1    1
    13     3     2    1
    14     1     2    1
    15     2     4    2
