@<TRIPOS>MOLECULE
/home/cewinharhar/GITHUB/reincatalyze/data/processed/docking_pred/2023-May-24-1506_sub9_nm5_bs15_s42_ex16_mel10_mts10000_k50_ec02_g099_lra3e-4_lrc3e-3/51cadb519a72bd0ce332fe372f57097c9ba117cb_ligand_9.pdbqt
 14 15 0 0 0
SMALL
GASTEIGER

@<TRIPOS>ATOM
      1  C          6.3670    1.2510    0.9180 C.3     1  UNL1        0.0800
      2  C          5.6560    0.4100    1.9200 C.2     1  UNL1        0.1300
      3  C          6.2840   -0.8040    2.5080 C.3     1  UNL1        0.0870
      4  O          4.5280    0.6940    2.2900 O.2     1  UNL1       -0.3000
      5  C          5.8700    0.9730   -0.4870 C.3     1  UNL1        0.0430
      6  C          6.8160    0.1360   -1.2460 C.2     1  UNL1       -0.0440
      7  C          7.5170    0.6370   -2.3490 C.2     1  UNL1        0.0080
      8  C          7.0260   -1.1710   -0.8680 C.2     1  UNL1        0.0540
      9  C          8.3930   -0.1950   -3.0220 C.2     1  UNL1        0.0510
     10  C          7.9130   -2.0080   -1.5510 C.2     1  UNL1        0.1660
     11  C          8.6020   -1.5160   -2.6370 C.2     1  UNL1        0.1650
     12  O          8.2890   -3.3230   -1.3750 O.2     1  UNL1       -0.4540
     13  O          9.3950   -2.5490   -3.1100 O.2     1  UNL1       -0.4540
     14  C          9.2960   -3.6850   -2.2850 C.3     1  UNL1        0.4680
@<TRIPOS>BOND
     1    13    11    1
     2    13    14    1
     3     9    11    2
     4     9     7    1
     5    11    10    1
     6     7     6    2
     7    14    12    1
     8    10    12    1
     9    10     8    2
    10     6     8    1
    11     6     5    1
    12     5     1    1
    13     1     2    1
    14     2     4    2
    15     2     3    1
