MODEL 1
REMARK VINA RESULT:      -7.5      0.000      0.000
REMARK SMILES CC(=O)CCc1ccc2c(c1)OCO2
REMARK SMILES IDX 4 1 2 2 1 3 3 4 5 5 6 6 7 7 11 8 8 9 10 10 9 11 12 12 14 13
REMARK SMILES IDX 13 14
REMARK H PARENT
REMARK Flexibility Score: inf
ROOT
ATOM      1  C   UNL     1       5.548   1.890   1.291  1.00  0.00     0.080 C 
ENDROOT
BRANCH   1   2
ATOM      2  C   UNL     1       5.105   0.668   2.019  1.00  0.00     0.130 C 
ATOM      3  C   UNL     1       5.997  -0.512   2.179  1.00  0.00     0.087 C 
ATOM      4  O   UNL     1       3.989   0.599   2.508  1.00  0.00    -0.300 OA
ENDBRANCH   1   2
BRANCH   1   5
ATOM      5  C   UNL     1       5.413   1.717  -0.208  1.00  0.00     0.043 C 
BRANCH   5   6
ATOM      6  C   UNL     1       6.576   1.021  -0.786  1.00  0.00    -0.044 A 
ATOM      7  C   UNL     1       7.884   1.461  -0.552  1.00  0.00     0.008 A 
ATOM      8  C   UNL     1       6.385  -0.092  -1.573  1.00  0.00     0.054 A 
ATOM      9  C   UNL     1       8.937   0.768  -1.119  1.00  0.00     0.051 A 
ATOM     10  C   UNL     1       7.453  -0.790  -2.144  1.00  0.00     0.166 A 
ATOM     11  C   UNL     1       8.740  -0.357  -1.915  1.00  0.00     0.165 A 
ATOM     12  O   UNL     1       7.522  -1.906  -2.951  1.00  0.00    -0.454 OA
ATOM     13  O   UNL     1       9.582  -1.224  -2.593  1.00  0.00    -0.454 OA
ATOM     14  C   UNL     1       8.857  -2.274  -3.188  1.00  0.00     0.468 C 
ENDBRANCH   5   6
ENDBRANCH   1   5
TORSDOF 3
ENDMDL
MODEL 2
REMARK VINA RESULT:      -7.2      1.928      2.429
REMARK SMILES CC(=O)CCc1ccc2c(c1)OCO2
REMARK SMILES IDX 4 1 2 2 1 3 3 4 5 5 6 6 7 7 11 8 8 9 10 10 9 11 12 12 14 13
REMARK SMILES IDX 13 14
REMARK H PARENT
REMARK Flexibility Score: inf
ROOT
ATOM      1  C   UNL     1       5.743   1.192  -0.358  1.00  0.00     0.080 C 
ENDROOT
BRANCH   1   2
ATOM      2  C   UNL     1       5.255   1.186   1.050  1.00  0.00     0.130 C 
ATOM      3  C   UNL     1       5.463   0.014   1.943  1.00  0.00     0.087 C 
ATOM      4  O   UNL     1       4.667   2.149   1.514  1.00  0.00    -0.300 OA
ENDBRANCH   1   2
BRANCH   1   5
ATOM      5  C   UNL     1       7.250   1.048  -0.419  1.00  0.00     0.043 C 
BRANCH   5   6
ATOM      6  C   UNL     1       7.653  -0.248  -0.995  1.00  0.00    -0.044 A 
ATOM      7  C   UNL     1       7.751  -0.436  -2.378  1.00  0.00     0.008 A 
ATOM      8  C   UNL     1       7.944  -1.304  -0.161  1.00  0.00     0.054 A 
ATOM      9  C   UNL     1       8.134  -1.674  -2.861  1.00  0.00     0.051 A 
ATOM     10  C   UNL     1       8.331  -2.553  -0.654  1.00  0.00     0.166 A 
ATOM     11  C   UNL     1       8.427  -2.740  -2.015  1.00  0.00     0.165 A 
ATOM     12  O   UNL     1       8.668  -3.742  -0.042  1.00  0.00    -0.454 OA
ATOM     13  O   UNL     1       8.825  -4.053  -2.213  1.00  0.00    -0.454 OA
ATOM     14  C   UNL     1       9.077  -4.697  -0.987  1.00  0.00     0.468 C 
ENDBRANCH   5   6
ENDBRANCH   1   5
TORSDOF 3
ENDMDL
MODEL 3
REMARK VINA RESULT:      -7.0      1.245      1.443
REMARK SMILES CC(=O)CCc1ccc2c(c1)OCO2
REMARK SMILES IDX 4 1 2 2 1 3 3 4 5 5 6 6 7 7 11 8 8 9 10 10 9 11 12 12 14 13
REMARK SMILES IDX 13 14
REMARK H PARENT
REMARK Flexibility Score: inf
ROOT
ATOM      1  C   UNL     1       6.367   1.251   0.918  1.00  0.00     0.080 C 
ENDROOT
BRANCH   1   2
ATOM      2  C   UNL     1       5.656   0.410   1.920  1.00  0.00     0.130 C 
ATOM      3  C   UNL     1       6.284  -0.804   2.508  1.00  0.00     0.087 C 
ATOM      4  O   UNL     1       4.528   0.694   2.290  1.00  0.00    -0.300 OA
ENDBRANCH   1   2
BRANCH   1   5
ATOM      5  C   UNL     1       5.870   0.973  -0.487  1.00  0.00     0.043 C 
BRANCH   5   6
ATOM      6  C   UNL     1       6.816   0.136  -1.246  1.00  0.00    -0.044 A 
ATOM      7  C   UNL     1       7.517   0.637  -2.349  1.00  0.00     0.008 A 
ATOM      8  C   UNL     1       7.026  -1.171  -0.868  1.00  0.00     0.054 A 
ATOM      9  C   UNL     1       8.393  -0.195  -3.022  1.00  0.00     0.051 A 
ATOM     10  C   UNL     1       7.913  -2.008  -1.551  1.00  0.00     0.166 A 
ATOM     11  C   UNL     1       8.602  -1.516  -2.637  1.00  0.00     0.165 A 
ATOM     12  O   UNL     1       8.289  -3.323  -1.375  1.00  0.00    -0.454 OA
ATOM     13  O   UNL     1       9.395  -2.549  -3.110  1.00  0.00    -0.454 OA
ATOM     14  C   UNL     1       9.296  -3.685  -2.285  1.00  0.00     0.468 C 
ENDBRANCH   5   6
ENDBRANCH   1   5
TORSDOF 3
ENDMDL
MODEL 4
REMARK VINA RESULT:      -7.0      2.035      2.599
REMARK SMILES CC(=O)CCc1ccc2c(c1)OCO2
REMARK SMILES IDX 4 1 2 2 1 3 3 4 5 5 6 6 7 7 11 8 8 9 10 10 9 11 12 12 14 13
REMARK SMILES IDX 13 14
REMARK H PARENT
REMARK Flexibility Score: inf
ROOT
ATOM      1  C   UNL     1       5.443  -0.040   1.997  1.00  0.00     0.080 C 
ENDROOT
BRANCH   1   2
ATOM      2  C   UNL     1       4.580   1.150   1.756  1.00  0.00     0.130 C 
ATOM      3  C   UNL     1       4.895   2.139   0.691  1.00  0.00     0.087 C 
ATOM      4  O   UNL     1       3.583   1.348   2.431  1.00  0.00    -0.300 OA
ENDBRANCH   1   2
BRANCH   1   5
ATOM      5  C   UNL     1       6.871   0.217   1.559  1.00  0.00     0.043 C 
BRANCH   5   6
ATOM      6  C   UNL     1       7.290  -0.708   0.490  1.00  0.00    -0.044 A 
ATOM      7  C   UNL     1       7.142  -0.379  -0.863  1.00  0.00     0.008 A 
ATOM      8  C   UNL     1       7.842  -1.925   0.818  1.00  0.00     0.054 A 
ATOM      9  C   UNL     1       7.554  -1.286  -1.822  1.00  0.00     0.051 A 
ATOM     10  C   UNL     1       8.257  -2.838  -0.155  1.00  0.00     0.166 A 
ATOM     11  C   UNL     1       8.111  -2.516  -1.487  1.00  0.00     0.165 A 
ATOM     12  O   UNL     1       8.826  -4.092  -0.086  1.00  0.00    -0.454 OA
ATOM     13  O   UNL     1       8.599  -3.590  -2.214  1.00  0.00    -0.454 OA
ATOM     14  C   UNL     1       9.145  -4.573  -1.367  1.00  0.00     0.468 C 
ENDBRANCH   5   6
ENDBRANCH   1   5
TORSDOF 3
ENDMDL
MODEL 5
REMARK VINA RESULT:      -6.8      1.979      2.552
REMARK SMILES CC(=O)CCc1ccc2c(c1)OCO2
REMARK SMILES IDX 4 1 2 2 1 3 3 4 5 5 6 6 7 7 11 8 8 9 10 10 9 11 12 12 14 13
REMARK SMILES IDX 13 14
REMARK H PARENT
REMARK Flexibility Score: inf
ROOT
ATOM      1  C   UNL     1       6.778   0.765   1.319  1.00  0.00     0.080 C 
ENDROOT
BRANCH   1   2
ATOM      2  C   UNL     1       5.347   1.156   1.453  1.00  0.00     0.130 C 
ATOM      3  C   UNL     1       4.720   2.149   0.541  1.00  0.00     0.087 C 
ATOM      4  O   UNL     1       4.644   0.669   2.324  1.00  0.00    -0.300 OA
ENDBRANCH   1   2
BRANCH   1   5
ATOM      5  C   UNL     1       7.274   0.971  -0.099  1.00  0.00     0.043 C 
BRANCH   5   6
ATOM      6  C   UNL     1       7.610  -0.308  -0.751  1.00  0.00    -0.044 A 
ATOM      7  C   UNL     1       7.575  -0.452  -2.142  1.00  0.00     0.008 A 
ATOM      8  C   UNL     1       7.970  -1.391   0.018  1.00  0.00     0.054 A 
ATOM      9  C   UNL     1       7.901  -1.676  -2.698  1.00  0.00     0.051 A 
ATOM     10  C   UNL     1       8.300  -2.626  -0.549  1.00  0.00     0.166 A 
ATOM     11  C   UNL     1       8.265  -2.769  -1.918  1.00  0.00     0.165 A 
ATOM     12  O   UNL     1       8.684  -3.835  -0.009  1.00  0.00    -0.454 OA
ATOM     13  O   UNL     1       8.632  -4.077  -2.194  1.00  0.00    -0.454 OA
ATOM     14  C   UNL     1       8.994  -4.762  -1.018  1.00  0.00     0.468 C 
ENDBRANCH   5   6
ENDBRANCH   1   5
TORSDOF 3
ENDMDL
