@<TRIPOS>MOLECULE
/home/cewinharhar/GITHUB/reincatalyze/data/processed/docking_pred/2023-May-24-1506_sub9_nm5_bs15_s42_ex16_mel10_mts10000_k50_ec02_g099_lra3e-4_lrc3e-3/51cadb519a72bd0ce332fe372f57097c9ba117cb_ligand_9.pdbqt
 14 15 0 0 0
SMALL
GASTEIGER

@<TRIPOS>ATOM
      1  C          5.4430   -0.0400    1.9970 C.3     1  UNL1        0.0800
      2  C          4.5800    1.1500    1.7560 C.2     1  UNL1        0.1300
      3  C          4.8950    2.1390    0.6910 C.3     1  UNL1        0.0870
      4  O          3.5830    1.3480    2.4310 O.2     1  UNL1       -0.3000
      5  C          6.8710    0.2170    1.5590 C.3     1  UNL1        0.0430
      6  C          7.2900   -0.7080    0.4900 C.2     1  UNL1       -0.0440
      7  C          7.1420   -0.3790   -0.8630 C.2     1  UNL1        0.0080
      8  C          7.8420   -1.9250    0.8180 C.2     1  UNL1        0.0540
      9  C          7.5540   -1.2860   -1.8220 C.2     1  UNL1        0.0510
     10  C          8.2570   -2.8380   -0.1550 C.2     1  UNL1        0.1660
     11  C          8.1110   -2.5160   -1.4870 C.2     1  UNL1        0.1650
     12  O          8.8260   -4.0920   -0.0860 O.2     1  UNL1       -0.4540
     13  O          8.5990   -3.5900   -2.2140 O.2     1  UNL1       -0.4540
     14  C          9.1450   -4.5730   -1.3670 C.3     1  UNL1        0.4680
@<TRIPOS>BOND
     1    13    11    1
     2    13    14    1
     3     9    11    2
     4     9     7    1
     5    11    10    1
     6    14    12    1
     7     7     6    2
     8    10    12    1
     9    10     8    2
    10     6     8    1
    11     6     5    1
    12     3     2    1
    13     5     1    1
    14     2     1    1
    15     2     4    2
