@<TRIPOS>MOLECULE
/home/cewinharhar/GITHUB/reincatalyze/data/processed/docking_pred/2023-May-24-1506_sub9_nm5_bs15_s42_ex16_mel10_mts10000_k50_ec02_g099_lra3e-4_lrc3e-3/51cf10a7bcbc20e2348aab739992049d1dff2046_ligand_9.pdbqt
 14 15 0 0 0
SMALL
GASTEIGER

@<TRIPOS>ATOM
      1  C          6.9910    0.9040    1.1160 C.3     1  UNL1        0.0800
      2  C          5.5560    1.1630    1.4210 C.2     1  UNL1        0.1300
      3  C          4.7580    2.1500    0.6450 C.3     1  UNL1        0.0870
      4  O          4.9900    0.5680    2.3230 O.2     1  UNL1       -0.3000
      5  C          7.2650    1.0110   -0.3710 C.3     1  UNL1        0.0430
      6  C          7.6520   -0.2880   -0.9500 C.2     1  UNL1       -0.0440
      7  C          7.7320   -0.4800   -2.3340 C.2     1  UNL1        0.0080
      8  C          7.9470   -1.3450   -0.1180 C.2     1  UNL1        0.0540
      9  C          8.1010   -1.7210   -2.8200 C.2     1  UNL1        0.0510
     10  C          8.3210   -2.5970   -0.6140 C.2     1  UNL1        0.1660
     11  C          8.3980   -2.7870   -1.9760 C.2     1  UNL1        0.1650
     12  O          8.6570   -3.7870   -0.0040 O.2     1  UNL1       -0.4540
     13  O          8.7850   -4.1030   -2.1760 O.2     1  UNL1       -0.4540
     14  C          9.0490   -4.7470   -0.9530 C.3     1  UNL1        0.4680
@<TRIPOS>BOND
     1     9     7    1
     2     9    11    2
     3     7     6    2
     4    13    11    1
     5    13    14    1
     6    11    10    1
     7    14    12    1
     8     6     5    1
     9     6     8    1
    10    10     8    2
    11    10    12    1
    12     5     1    1
    13     3     2    1
    14     1     2    1
    15     2     4    2
