MODEL 1
REMARK VINA RESULT:      -7.6      0.000      0.000
REMARK SMILES CC(=O)CCc1ccc2c(c1)OCO2
REMARK SMILES IDX 4 1 2 2 1 3 3 4 5 5 6 6 7 7 11 8 8 9 10 10 9 11 12 12 14 13
REMARK SMILES IDX 13 14
REMARK H PARENT
REMARK Flexibility Score: inf
ROOT
ATOM      1  C   UNL     1       5.538   1.892   1.291  1.00  0.00     0.080 C 
ENDROOT
BRANCH   1   2
ATOM      2  C   UNL     1       5.095   0.671   2.020  1.00  0.00     0.130 C 
ATOM      3  C   UNL     1       5.986  -0.508   2.182  1.00  0.00     0.087 C 
ATOM      4  O   UNL     1       3.979   0.604   2.509  1.00  0.00    -0.300 OA
ENDBRANCH   1   2
BRANCH   1   5
ATOM      5  C   UNL     1       5.405   1.717  -0.209  1.00  0.00     0.043 C 
BRANCH   5   6
ATOM      6  C   UNL     1       6.571   1.021  -0.783  1.00  0.00    -0.044 A 
ATOM      7  C   UNL     1       7.878   1.462  -0.545  1.00  0.00     0.008 A 
ATOM      8  C   UNL     1       6.381  -0.091  -1.571  1.00  0.00     0.054 A 
ATOM      9  C   UNL     1       8.933   0.768  -1.110  1.00  0.00     0.051 A 
ATOM     10  C   UNL     1       7.451  -0.789  -2.139  1.00  0.00     0.166 A 
ATOM     11  C   UNL     1       8.738  -0.355  -1.907  1.00  0.00     0.165 A 
ATOM     12  O   UNL     1       7.523  -1.904  -2.947  1.00  0.00    -0.454 OA
ATOM     13  O   UNL     1       9.581  -1.223  -2.583  1.00  0.00    -0.454 OA
ATOM     14  C   UNL     1       8.858  -2.272  -3.181  1.00  0.00     0.468 C 
ENDBRANCH   5   6
ENDBRANCH   1   5
TORSDOF 3
ENDMDL
MODEL 2
REMARK VINA RESULT:      -7.4      1.867      2.327
REMARK SMILES CC(=O)CCc1ccc2c(c1)OCO2
REMARK SMILES IDX 4 1 2 2 1 3 3 4 5 5 6 6 7 7 11 8 8 9 10 10 9 11 12 12 14 13
REMARK SMILES IDX 13 14
REMARK H PARENT
REMARK Flexibility Score: inf
ROOT
ATOM      1  C   UNL     1       5.735   1.405  -0.290  1.00  0.00     0.080 C 
ENDROOT
BRANCH   1   2
ATOM      2  C   UNL     1       5.180   1.286   1.087  1.00  0.00     0.130 C 
ATOM      3  C   UNL     1       5.488   0.117   1.954  1.00  0.00     0.087 C 
ATOM      4  O   UNL     1       4.451   2.150   1.547  1.00  0.00    -0.300 OA
ENDBRANCH   1   2
BRANCH   1   5
ATOM      5  C   UNL     1       7.236   1.193  -0.299  1.00  0.00     0.043 C 
BRANCH   5   6
ATOM      6  C   UNL     1       7.601  -0.096  -0.911  1.00  0.00    -0.044 A 
ATOM      7  C   UNL     1       7.672  -0.255  -2.300  1.00  0.00     0.008 A 
ATOM      8  C   UNL     1       7.885  -1.177  -0.108  1.00  0.00     0.054 A 
ATOM      9  C   UNL     1       8.021  -1.488  -2.818  1.00  0.00     0.051 A 
ATOM     10  C   UNL     1       8.239  -2.422  -0.636  1.00  0.00     0.166 A 
ATOM     11  C   UNL     1       8.307  -2.579  -2.003  1.00  0.00     0.165 A 
ATOM     12  O   UNL     1       8.561  -3.631  -0.058  1.00  0.00    -0.454 OA
ATOM     13  O   UNL     1       8.675  -3.895  -2.237  1.00  0.00    -0.454 OA
ATOM     14  C   UNL     1       8.934  -4.573  -1.031  1.00  0.00     0.468 C 
ENDBRANCH   5   6
ENDBRANCH   1   5
TORSDOF 3
ENDMDL
MODEL 3
REMARK VINA RESULT:      -7.2      2.107      2.634
REMARK SMILES CC(=O)CCc1ccc2c(c1)OCO2
REMARK SMILES IDX 4 1 2 2 1 3 3 4 5 5 6 6 7 7 11 8 8 9 10 10 9 11 12 12 14 13
REMARK SMILES IDX 13 14
REMARK H PARENT
REMARK Flexibility Score: inf
ROOT
ATOM      1  C   UNL     1       5.623   0.041   1.920  1.00  0.00     0.080 C 
ENDROOT
BRANCH   1   2
ATOM      2  C   UNL     1       4.706   1.169   1.597  1.00  0.00     0.130 C 
ATOM      3  C   UNL     1       4.987   2.108   0.479  1.00  0.00     0.087 C 
ATOM      4  O   UNL     1       3.690   1.356   2.247  1.00  0.00    -0.300 OA
ENDBRANCH   1   2
BRANCH   1   5
ATOM      5  C   UNL     1       7.022   0.301   1.396  1.00  0.00     0.043 C 
BRANCH   5   6
ATOM      6  C   UNL     1       7.417  -0.689   0.379  1.00  0.00    -0.044 A 
ATOM      7  C   UNL     1       7.323  -0.411  -0.990  1.00  0.00     0.008 A 
ATOM      8  C   UNL     1       7.894  -1.918   0.772  1.00  0.00     0.054 A 
ATOM      9  C   UNL     1       7.710  -1.379  -1.899  1.00  0.00     0.051 A 
ATOM     10  C   UNL     1       8.284  -2.893  -0.151  1.00  0.00     0.166 A 
ATOM     11  C   UNL     1       8.191  -2.621  -1.498  1.00  0.00     0.165 A 
ATOM     12  O   UNL     1       8.782  -4.172  -0.013  1.00  0.00    -0.454 OA
ATOM     13  O   UNL     1       8.639  -3.750  -2.166  1.00  0.00    -0.454 OA
ATOM     14  C   UNL     1       9.108  -4.723  -1.264  1.00  0.00     0.468 C 
ENDBRANCH   5   6
ENDBRANCH   1   5
TORSDOF 3
ENDMDL
MODEL 4
REMARK VINA RESULT:      -7.1      1.256      1.478
REMARK SMILES CC(=O)CCc1ccc2c(c1)OCO2
REMARK SMILES IDX 4 1 2 2 1 3 3 4 5 5 6 6 7 7 11 8 8 9 10 10 9 11 12 12 14 13
REMARK SMILES IDX 13 14
REMARK H PARENT
REMARK Flexibility Score: inf
ROOT
ATOM      1  C   UNL     1       6.381   1.183   0.919  1.00  0.00     0.080 C 
ENDROOT
BRANCH   1   2
ATOM      2  C   UNL     1       5.668   0.362   1.937  1.00  0.00     0.130 C 
ATOM      3  C   UNL     1       6.273  -0.871   2.509  1.00  0.00     0.087 C 
ATOM      4  O   UNL     1       4.558   0.679   2.333  1.00  0.00    -0.300 OA
ENDBRANCH   1   2
BRANCH   1   5
ATOM      5  C   UNL     1       5.868   0.894  -0.478  1.00  0.00     0.043 C 
BRANCH   5   6
ATOM      6  C   UNL     1       6.818   0.074  -1.250  1.00  0.00    -0.044 A 
ATOM      7  C   UNL     1       7.501   0.589  -2.357  1.00  0.00     0.008 A 
ATOM      8  C   UNL     1       7.049  -1.232  -0.879  1.00  0.00     0.054 A 
ATOM      9  C   UNL     1       8.381  -0.228  -3.043  1.00  0.00     0.051 A 
ATOM     10  C   UNL     1       7.941  -2.054  -1.575  1.00  0.00     0.166 A 
ATOM     11  C   UNL     1       8.612  -1.548  -2.666  1.00  0.00     0.165 A 
ATOM     12  O   UNL     1       8.337  -3.364  -1.409  1.00  0.00    -0.454 OA
ATOM     13  O   UNL     1       9.415  -2.568  -3.152  1.00  0.00    -0.454 OA
ATOM     14  C   UNL     1       9.340  -3.709  -2.330  1.00  0.00     0.468 C 
ENDBRANCH   5   6
ENDBRANCH   1   5
TORSDOF 3
ENDMDL
MODEL 5
REMARK VINA RESULT:      -7.0      1.962      2.561
REMARK SMILES CC(=O)CCc1ccc2c(c1)OCO2
REMARK SMILES IDX 4 1 2 2 1 3 3 4 5 5 6 6 7 7 11 8 8 9 10 10 9 11 12 12 14 13
REMARK SMILES IDX 13 14
REMARK H PARENT
REMARK Flexibility Score: inf
ROOT
ATOM      1  C   UNL     1       6.991   0.904   1.116  1.00  0.00     0.080 C 
ENDROOT
BRANCH   1   2
ATOM      2  C   UNL     1       5.556   1.163   1.421  1.00  0.00     0.130 C 
ATOM      3  C   UNL     1       4.758   2.150   0.645  1.00  0.00     0.087 C 
ATOM      4  O   UNL     1       4.990   0.568   2.323  1.00  0.00    -0.300 OA
ENDBRANCH   1   2
BRANCH   1   5
ATOM      5  C   UNL     1       7.265   1.011  -0.371  1.00  0.00     0.043 C 
BRANCH   5   6
ATOM      6  C   UNL     1       7.652  -0.288  -0.950  1.00  0.00    -0.044 A 
ATOM      7  C   UNL     1       7.732  -0.480  -2.334  1.00  0.00     0.008 A 
ATOM      8  C   UNL     1       7.947  -1.345  -0.118  1.00  0.00     0.054 A 
ATOM      9  C   UNL     1       8.101  -1.721  -2.820  1.00  0.00     0.051 A 
ATOM     10  C   UNL     1       8.321  -2.597  -0.614  1.00  0.00     0.166 A 
ATOM     11  C   UNL     1       8.398  -2.787  -1.976  1.00  0.00     0.165 A 
ATOM     12  O   UNL     1       8.657  -3.787  -0.004  1.00  0.00    -0.454 OA
ATOM     13  O   UNL     1       8.785  -4.103  -2.176  1.00  0.00    -0.454 OA
ATOM     14  C   UNL     1       9.049  -4.747  -0.953  1.00  0.00     0.468 C 
ENDBRANCH   5   6
ENDBRANCH   1   5
TORSDOF 3
ENDMDL
