@<TRIPOS>MOLECULE
/home/cewinharhar/GITHUB/reincatalyze/data/processed/docking_pred/2023-May-24-1506_sub9_nm5_bs15_s42_ex16_mel10_mts10000_k50_ec02_g099_lra3e-4_lrc3e-3/51cf10a7bcbc20e2348aab739992049d1dff2046_ligand_9.pdbqt
 14 15 0 0 0
SMALL
GASTEIGER

@<TRIPOS>ATOM
      1  C          5.7350    1.4050   -0.2900 C.3     1  UNL1        0.0800
      2  C          5.1800    1.2860    1.0870 C.2     1  UNL1        0.1300
      3  C          5.4880    0.1170    1.9540 C.3     1  UNL1        0.0870
      4  O          4.4510    2.1500    1.5470 O.2     1  UNL1       -0.3000
      5  C          7.2360    1.1930   -0.2990 C.3     1  UNL1        0.0430
      6  C          7.6010   -0.0960   -0.9110 C.2     1  UNL1       -0.0440
      7  C          7.6720   -0.2550   -2.3000 C.2     1  UNL1        0.0080
      8  C          7.8850   -1.1770   -0.1080 C.2     1  UNL1        0.0540
      9  C          8.0210   -1.4880   -2.8180 C.2     1  UNL1        0.0510
     10  C          8.2390   -2.4220   -0.6360 C.2     1  UNL1        0.1660
     11  C          8.3070   -2.5790   -2.0030 C.2     1  UNL1        0.1650
     12  O          8.5610   -3.6310   -0.0580 O.2     1  UNL1       -0.4540
     13  O          8.6750   -3.8950   -2.2370 O.2     1  UNL1       -0.4540
     14  C          8.9340   -4.5730   -1.0310 C.3     1  UNL1        0.4680
@<TRIPOS>BOND
     1     9     7    1
     2     9    11    2
     3     7     6    2
     4    13    11    1
     5    13    14    1
     6    11    10    1
     7    14    12    1
     8     6     5    1
     9     6     8    1
    10    10     8    2
    11    10    12    1
    12     5     1    1
    13     1     2    1
    14     2     4    2
    15     2     3    1
