@<TRIPOS>MOLECULE
/home/cewinharhar/GITHUB/reincatalyze/data/processed/docking_pred/2023-May-24-1506_sub9_nm5_bs15_s42_ex16_mel10_mts10000_k50_ec02_g099_lra3e-4_lrc3e-3/51cf10a7bcbc20e2348aab739992049d1dff2046_ligand_9.pdbqt
 14 15 0 0 0
SMALL
GASTEIGER

@<TRIPOS>ATOM
      1  C          5.6230    0.0410    1.9200 C.3     1  UNL1        0.0800
      2  C          4.7060    1.1690    1.5970 C.2     1  UNL1        0.1300
      3  C          4.9870    2.1080    0.4790 C.3     1  UNL1        0.0870
      4  O          3.6900    1.3560    2.2470 O.2     1  UNL1       -0.3000
      5  C          7.0220    0.3010    1.3960 C.3     1  UNL1        0.0430
      6  C          7.4170   -0.6890    0.3790 C.2     1  UNL1       -0.0440
      7  C          7.3230   -0.4110   -0.9900 C.2     1  UNL1        0.0080
      8  C          7.8940   -1.9180    0.7720 C.2     1  UNL1        0.0540
      9  C          7.7100   -1.3790   -1.8990 C.2     1  UNL1        0.0510
     10  C          8.2840   -2.8930   -0.1510 C.2     1  UNL1        0.1660
     11  C          8.1910   -2.6210   -1.4980 C.2     1  UNL1        0.1650
     12  O          8.7820   -4.1720   -0.0130 O.2     1  UNL1       -0.4540
     13  O          8.6390   -3.7500   -2.1660 O.2     1  UNL1       -0.4540
     14  C          9.1080   -4.7230   -1.2640 C.3     1  UNL1        0.4680
@<TRIPOS>BOND
     1    13    11    1
     2    13    14    1
     3     9    11    2
     4     9     7    1
     5    11    10    1
     6    14    12    1
     7     7     6    2
     8    10    12    1
     9    10     8    2
    10     6     8    1
    11     6     5    1
    12     3     2    1
    13     5     1    1
    14     2     1    1
    15     2     4    2
