@<TRIPOS>MOLECULE
/home/cewinharhar/GITHUB/reincatalyze/data/processed/docking_pred/2023-May-24-1506_sub9_nm5_bs15_s42_ex16_mel10_mts10000_k50_ec02_g099_lra3e-4_lrc3e-3/51cf10a7bcbc20e2348aab739992049d1dff2046_ligand_9.pdbqt
 14 15 0 0 0
SMALL
GASTEIGER

@<TRIPOS>ATOM
      1  C          5.5380    1.8920    1.2910 C.3     1  UNL1        0.0800
      2  C          5.0950    0.6710    2.0200 C.2     1  UNL1        0.1300
      3  C          5.9860   -0.5080    2.1820 C.3     1  UNL1        0.0870
      4  O          3.9790    0.6040    2.5090 O.2     1  UNL1       -0.3000
      5  C          5.4050    1.7170   -0.2090 C.3     1  UNL1        0.0430
      6  C          6.5710    1.0210   -0.7830 C.2     1  UNL1       -0.0440
      7  C          7.8780    1.4620   -0.5450 C.2     1  UNL1        0.0080
      8  C          6.3810   -0.0910   -1.5710 C.2     1  UNL1        0.0540
      9  C          8.9330    0.7680   -1.1100 C.2     1  UNL1        0.0510
     10  C          7.4510   -0.7890   -2.1390 C.2     1  UNL1        0.1660
     11  C          8.7380   -0.3550   -1.9070 C.2     1  UNL1        0.1650
     12  O          7.5230   -1.9040   -2.9470 O.2     1  UNL1       -0.4540
     13  O          9.5810   -1.2230   -2.5830 O.2     1  UNL1       -0.4540
     14  C          8.8580   -2.2720   -3.1810 C.3     1  UNL1        0.4680
@<TRIPOS>BOND
     1    14    12    1
     2    14    13    1
     3    12    10    1
     4    13    11    1
     5    10    11    2
     6    10     8    1
     7    11     9    1
     8     8     6    2
     9     9     7    2
    10     6     7    1
    11     6     5    1
    12     5     1    1
    13     1     2    1
    14     2     3    1
    15     2     4    2
