@<TRIPOS>MOLECULE
/home/cewinharhar/GITHUB/reincatalyze/data/processed/docking_pred/2023-May-24-1506_sub9_nm5_bs15_s42_ex16_mel10_mts10000_k50_ec02_g099_lra3e-4_lrc3e-3/52b5f98accdadd66ce5c38e1753891e20422c2cb_ligand_9.pdbqt
 14 15 0 0 0
SMALL
GASTEIGER

@<TRIPOS>ATOM
      1  C          8.3390    0.1850   -2.6730 C.3     1  UNL1        0.0800
      2  C          8.0640   -1.2760   -2.7670 C.2     1  UNL1        0.1300
      3  C          9.1480   -2.2590   -3.0330 C.3     1  UNL1        0.0870
      4  O          6.9320   -1.7110   -2.6280 O.2     1  UNL1       -0.3000
      5  C          8.8700    0.5580   -1.3030 C.3     1  UNL1        0.0430
      6  C          7.8380    0.4160   -0.2600 C.2     1  UNL1       -0.0440
      7  C          7.9490   -0.5410    0.7550 C.2     1  UNL1        0.0080
      8  C          6.7370    1.2420   -0.2730 C.2     1  UNL1        0.0540
      9  C          6.9500   -0.6270    1.7080 C.2     1  UNL1        0.0510
     10  C          5.7300    1.1510    0.6930 C.2     1  UNL1        0.1660
     11  C          5.8380    0.2090    1.6910 C.2     1  UNL1        0.1650
     12  O          4.5560    1.8440    0.8940 O.2     1  UNL1       -0.4540
     13  O          4.7160    0.3450    2.4930 O.2     1  UNL1       -0.4540
     14  C          3.9220    1.4300    2.0770 C.3     1  UNL1        0.4680
@<TRIPOS>BOND
     1     3     2    1
     2     2     1    1
     3     2     4    2
     4     1     5    1
     5     5     6    1
     6     8     6    2
     7     8    10    1
     8     6     7    1
     9    10    12    1
    10    10    11    2
    11     7     9    2
    12    12    14    1
    13    11     9    1
    14    11    13    1
    15    14    13    1
