@<TRIPOS>MOLECULE
/home/cewinharhar/GITHUB/reincatalyze/data/processed/docking_pred/2023-May-24-1506_sub9_nm5_bs15_s42_ex16_mel10_mts10000_k50_ec02_g099_lra3e-4_lrc3e-3/52b5f98accdadd66ce5c38e1753891e20422c2cb_ligand_9.pdbqt
 14 15 0 0 0
SMALL
GASTEIGER

@<TRIPOS>ATOM
      1  C          5.5320    1.9400    1.2490 C.3     1  UNL1        0.0800
      2  C          5.1160    0.7200    1.9970 C.2     1  UNL1        0.1300
      3  C          6.0360   -0.4340    2.1820 C.3     1  UNL1        0.0870
      4  O          4.0000    0.6340    2.4830 O.2     1  UNL1       -0.3000
      5  C          5.4070    1.7370   -0.2470 C.3     1  UNL1        0.0430
      6  C          6.5730    1.0270   -0.8030 C.2     1  UNL1       -0.0440
      7  C          7.8820    1.4480   -0.5380 C.2     1  UNL1        0.0080
      8  C          6.3830   -0.0790   -1.5990 C.2     1  UNL1        0.0540
      9  C          8.9370    0.7430   -1.0860 C.2     1  UNL1        0.0510
     10  C          7.4540   -0.7900   -2.1500 C.2     1  UNL1        0.1660
     11  C          8.7410   -0.3750   -1.8910 C.2     1  UNL1        0.1650
     12  O          7.5250   -1.9020   -2.9610 O.2     1  UNL1       -0.4540
     13  O          9.5850   -1.2520   -2.5550 O.2     1  UNL1       -0.4540
     14  C          8.8590   -2.2880   -3.1710 C.3     1  UNL1        0.4680
@<TRIPOS>BOND
     1    14    12    1
     2    14    13    1
     3    12    10    1
     4    13    11    1
     5    10    11    2
     6    10     8    1
     7    11     9    1
     8     8     6    2
     9     9     7    2
    10     6     7    1
    11     6     5    1
    12     5     1    1
    13     1     2    1
    14     2     3    1
    15     2     4    2
