@<TRIPOS>MOLECULE
/home/cewinharhar/GITHUB/reincatalyze/data/processed/docking_pred/2023-May-24-1506_sub9_nm5_bs15_s42_ex16_mel10_mts10000_k50_ec02_g099_lra3e-4_lrc3e-3/52b5f98accdadd66ce5c38e1753891e20422c2cb_ligand_9.pdbqt
 14 15 0 0 0
SMALL
GASTEIGER

@<TRIPOS>ATOM
      1  C          5.7930    1.4010   -0.2560 C.3     1  UNL1        0.0800
      2  C          5.1260    1.2790    1.0700 C.2     1  UNL1        0.1300
      3  C          5.3490    0.1020    1.9510 C.3     1  UNL1        0.0870
      4  O          4.3700    2.1480    1.4730 O.2     1  UNL1       -0.3000
      5  C          7.2760    1.1030   -0.1560 C.3     1  UNL1        0.0430
      6  C          7.6190   -0.1810   -0.7920 C.2     1  UNL1       -0.0440
      7  C          7.6140   -0.3340   -2.1840 C.2     1  UNL1        0.0080
      8  C          7.9560   -1.2620   -0.0100 C.2     1  UNL1        0.0540
      9  C          7.9460   -1.5630   -2.7250 C.2     1  UNL1        0.0510
     10  C          8.2920   -2.5020   -0.5620 C.2     1  UNL1        0.1660
     11  C          8.2860   -2.6540   -1.9300 C.2     1  UNL1        0.1650
     12  O          8.6560   -3.7100   -0.0060 O.2     1  UNL1       -0.4540
     13  O          8.6520   -3.9650   -2.1900 O.2     1  UNL1       -0.4540
     14  C          8.9840   -4.6440   -1.0020 C.3     1  UNL1        0.4680
@<TRIPOS>BOND
     1     9     7    1
     2     9    11    2
     3    13    11    1
     4    13    14    1
     5     7     6    2
     6    11    10    1
     7    14    12    1
     8     6     5    1
     9     6     8    1
    10    10     8    2
    11    10    12    1
    12     1     5    1
    13     1     2    1
    14     2     4    2
    15     2     3    1
