MODEL 1
REMARK VINA RESULT:      -7.6      0.000      0.000
REMARK SMILES CC(=O)CCc1ccc2c(c1)OCO2
REMARK SMILES IDX 4 1 2 2 1 3 3 4 5 5 6 6 7 7 11 8 8 9 10 10 9 11 12 12 14 13
REMARK SMILES IDX 13 14
REMARK H PARENT
REMARK Flexibility Score: inf
ROOT
ATOM      1  C   UNL     1       5.532   1.940   1.249  1.00  0.00     0.080 C 
ENDROOT
BRANCH   1   2
ATOM      2  C   UNL     1       5.116   0.720   1.997  1.00  0.00     0.130 C 
ATOM      3  C   UNL     1       6.036  -0.434   2.182  1.00  0.00     0.087 C 
ATOM      4  O   UNL     1       4.000   0.634   2.483  1.00  0.00    -0.300 OA
ENDBRANCH   1   2
BRANCH   1   5
ATOM      5  C   UNL     1       5.407   1.737  -0.247  1.00  0.00     0.043 C 
BRANCH   5   6
ATOM      6  C   UNL     1       6.573   1.027  -0.803  1.00  0.00    -0.044 A 
ATOM      7  C   UNL     1       7.882   1.448  -0.538  1.00  0.00     0.008 A 
ATOM      8  C   UNL     1       6.383  -0.079  -1.599  1.00  0.00     0.054 A 
ATOM      9  C   UNL     1       8.937   0.743  -1.086  1.00  0.00     0.051 A 
ATOM     10  C   UNL     1       7.454  -0.790  -2.150  1.00  0.00     0.166 A 
ATOM     11  C   UNL     1       8.741  -0.375  -1.891  1.00  0.00     0.165 A 
ATOM     12  O   UNL     1       7.525  -1.902  -2.961  1.00  0.00    -0.454 OA
ATOM     13  O   UNL     1       9.585  -1.252  -2.555  1.00  0.00    -0.454 OA
ATOM     14  C   UNL     1       8.859  -2.288  -3.171  1.00  0.00     0.468 C 
ENDBRANCH   5   6
ENDBRANCH   1   5
TORSDOF 3
ENDMDL
MODEL 2
REMARK VINA RESULT:      -7.4      1.923      2.380
REMARK SMILES CC(=O)CCc1ccc2c(c1)OCO2
REMARK SMILES IDX 4 1 2 2 1 3 3 4 5 5 6 6 7 7 11 8 8 9 10 10 9 11 12 12 14 13
REMARK SMILES IDX 13 14
REMARK H PARENT
REMARK Flexibility Score: inf
ROOT
ATOM      1  C   UNL     1       5.793   1.401  -0.256  1.00  0.00     0.080 C 
ENDROOT
BRANCH   1   2
ATOM      2  C   UNL     1       5.126   1.279   1.070  1.00  0.00     0.130 C 
ATOM      3  C   UNL     1       5.349   0.102   1.951  1.00  0.00     0.087 C 
ATOM      4  O   UNL     1       4.370   2.148   1.473  1.00  0.00    -0.300 OA
ENDBRANCH   1   2
BRANCH   1   5
ATOM      5  C   UNL     1       7.276   1.103  -0.156  1.00  0.00     0.043 C 
BRANCH   5   6
ATOM      6  C   UNL     1       7.619  -0.181  -0.792  1.00  0.00    -0.044 A 
ATOM      7  C   UNL     1       7.614  -0.334  -2.184  1.00  0.00     0.008 A 
ATOM      8  C   UNL     1       7.956  -1.262  -0.010  1.00  0.00     0.054 A 
ATOM      9  C   UNL     1       7.946  -1.563  -2.725  1.00  0.00     0.051 A 
ATOM     10  C   UNL     1       8.292  -2.502  -0.562  1.00  0.00     0.166 A 
ATOM     11  C   UNL     1       8.286  -2.654  -1.930  1.00  0.00     0.165 A 
ATOM     12  O   UNL     1       8.656  -3.710  -0.006  1.00  0.00    -0.454 OA
ATOM     13  O   UNL     1       8.652  -3.965  -2.190  1.00  0.00    -0.454 OA
ATOM     14  C   UNL     1       8.984  -4.644  -1.002  1.00  0.00     0.468 C 
ENDBRANCH   5   6
ENDBRANCH   1   5
TORSDOF 3
ENDMDL
MODEL 3
REMARK VINA RESULT:      -7.1      1.240      1.429
REMARK SMILES CC(=O)CCc1ccc2c(c1)OCO2
REMARK SMILES IDX 4 1 2 2 1 3 3 4 5 5 6 6 7 7 11 8 8 9 10 10 9 11 12 12 14 13
REMARK SMILES IDX 13 14
REMARK H PARENT
REMARK Flexibility Score: inf
ROOT
ATOM      1  C   UNL     1       6.340   1.257   0.901  1.00  0.00     0.080 C 
ENDROOT
BRANCH   1   2
ATOM      2  C   UNL     1       5.656   0.419   1.926  1.00  0.00     0.130 C 
ATOM      3  C   UNL     1       6.302  -0.789   2.504  1.00  0.00     0.087 C 
ATOM      4  O   UNL     1       4.537   0.702   2.322  1.00  0.00    -0.300 OA
ENDBRANCH   1   2
BRANCH   1   5
ATOM      5  C   UNL     1       5.826   0.952  -0.492  1.00  0.00     0.043 C 
BRANCH   5   6
ATOM      6  C   UNL     1       6.783   0.137  -1.261  1.00  0.00    -0.044 A 
ATOM      7  C   UNL     1       7.475   0.661  -2.359  1.00  0.00     0.008 A 
ATOM      8  C   UNL     1       7.011  -1.171  -0.898  1.00  0.00     0.054 A 
ATOM      9  C   UNL     1       8.362  -0.151  -3.042  1.00  0.00     0.051 A 
ATOM     10  C   UNL     1       7.909  -1.988  -1.592  1.00  0.00     0.166 A 
ATOM     11  C   UNL     1       8.590  -1.473  -2.673  1.00  0.00     0.165 A 
ATOM     12  O   UNL     1       8.303  -3.299  -1.432  1.00  0.00    -0.454 OA
ATOM     13  O   UNL     1       9.397  -2.490  -3.159  1.00  0.00    -0.454 OA
ATOM     14  C   UNL     1       9.314  -3.637  -2.346  1.00  0.00     0.468 C 
ENDBRANCH   5   6
ENDBRANCH   1   5
TORSDOF 3
ENDMDL
MODEL 4
REMARK VINA RESULT:      -7.1      1.999      2.580
REMARK SMILES CC(=O)CCc1ccc2c(c1)OCO2
REMARK SMILES IDX 4 1 2 2 1 3 3 4 5 5 6 6 7 7 11 8 8 9 10 10 9 11 12 12 14 13
REMARK SMILES IDX 13 14
REMARK H PARENT
REMARK Flexibility Score: inf
ROOT
ATOM      1  C   UNL     1       6.705   0.622   1.322  1.00  0.00     0.080 C 
ENDROOT
BRANCH   1   2
ATOM      2  C   UNL     1       5.306   1.112   1.467  1.00  0.00     0.130 C 
ATOM      3  C   UNL     1       4.745   2.150   0.561  1.00  0.00     0.087 C 
ATOM      4  O   UNL     1       4.576   0.673   2.340  1.00  0.00    -0.300 OA
ENDBRANCH   1   2
BRANCH   1   5
ATOM      5  C   UNL     1       7.228   0.855  -0.082  1.00  0.00     0.043 C 
BRANCH   5   6
ATOM      6  C   UNL     1       7.614  -0.407  -0.738  1.00  0.00    -0.044 A 
ATOM      7  C   UNL     1       7.655  -0.525  -2.132  1.00  0.00     0.008 A 
ATOM      8  C   UNL     1       7.946  -1.500   0.028  1.00  0.00     0.054 A 
ATOM      9  C   UNL     1       8.025  -1.735  -2.692  1.00  0.00     0.051 A 
ATOM     10  C   UNL     1       8.320  -2.721  -0.542  1.00  0.00     0.166 A 
ATOM     11  C   UNL     1       8.360  -2.839  -1.914  1.00  0.00     0.165 A 
ATOM     12  O   UNL     1       8.689  -3.935  -0.005  1.00  0.00    -0.454 OA
ATOM     13  O   UNL     1       8.758  -4.137  -2.193  1.00  0.00    -0.454 OA
ATOM     14  C   UNL     1       9.064  -4.839  -1.013  1.00  0.00     0.468 C 
ENDBRANCH   5   6
ENDBRANCH   1   5
TORSDOF 3
ENDMDL
MODEL 5
REMARK VINA RESULT:      -6.8      1.184      5.165
REMARK SMILES CC(=O)CCc1ccc2c(c1)OCO2
REMARK SMILES IDX 4 1 2 2 1 3 3 4 5 5 6 6 7 7 11 8 8 9 10 10 9 11 12 12 14 13
REMARK SMILES IDX 13 14
REMARK H PARENT
REMARK Flexibility Score: inf
ROOT
ATOM      1  C   UNL     1       8.339   0.185  -2.673  1.00  0.00     0.080 C 
ENDROOT
BRANCH   1   2
ATOM      2  C   UNL     1       8.064  -1.276  -2.767  1.00  0.00     0.130 C 
ATOM      3  C   UNL     1       9.148  -2.259  -3.033  1.00  0.00     0.087 C 
ATOM      4  O   UNL     1       6.932  -1.711  -2.628  1.00  0.00    -0.300 OA
ENDBRANCH   1   2
BRANCH   1   5
ATOM      5  C   UNL     1       8.870   0.558  -1.303  1.00  0.00     0.043 C 
BRANCH   5   6
ATOM      6  C   UNL     1       7.838   0.416  -0.260  1.00  0.00    -0.044 A 
ATOM      7  C   UNL     1       7.949  -0.541   0.755  1.00  0.00     0.008 A 
ATOM      8  C   UNL     1       6.737   1.242  -0.273  1.00  0.00     0.054 A 
ATOM      9  C   UNL     1       6.950  -0.627   1.708  1.00  0.00     0.051 A 
ATOM     10  C   UNL     1       5.730   1.151   0.693  1.00  0.00     0.166 A 
ATOM     11  C   UNL     1       5.838   0.209   1.691  1.00  0.00     0.165 A 
ATOM     12  O   UNL     1       4.556   1.844   0.894  1.00  0.00    -0.454 OA
ATOM     13  O   UNL     1       4.716   0.345   2.493  1.00  0.00    -0.454 OA
ATOM     14  C   UNL     1       3.922   1.430   2.077  1.00  0.00     0.468 C 
ENDBRANCH   5   6
ENDBRANCH   1   5
TORSDOF 3
ENDMDL
