@<TRIPOS>MOLECULE
/home/cewinharhar/GITHUB/reincatalyze/data/processed/docking_pred/2023-May-24-1506_sub9_nm5_bs15_s42_ex16_mel10_mts10000_k50_ec02_g099_lra3e-4_lrc3e-3/52b5f98accdadd66ce5c38e1753891e20422c2cb_ligand_9.pdbqt
 14 15 0 0 0
SMALL
GASTEIGER

@<TRIPOS>ATOM
      1  C          6.3400    1.2570    0.9010 C.3     1  UNL1        0.0800
      2  C          5.6560    0.4190    1.9260 C.2     1  UNL1        0.1300
      3  C          6.3020   -0.7890    2.5040 C.3     1  UNL1        0.0870
      4  O          4.5370    0.7020    2.3220 O.2     1  UNL1       -0.3000
      5  C          5.8260    0.9520   -0.4920 C.3     1  UNL1        0.0430
      6  C          6.7830    0.1370   -1.2610 C.2     1  UNL1       -0.0440
      7  C          7.4750    0.6610   -2.3590 C.2     1  UNL1        0.0080
      8  C          7.0110   -1.1710   -0.8980 C.2     1  UNL1        0.0540
      9  C          8.3620   -0.1510   -3.0420 C.2     1  UNL1        0.0510
     10  C          7.9090   -1.9880   -1.5920 C.2     1  UNL1        0.1660
     11  C          8.5900   -1.4730   -2.6730 C.2     1  UNL1        0.1650
     12  O          8.3030   -3.2990   -1.4320 O.2     1  UNL1       -0.4540
     13  O          9.3970   -2.4900   -3.1590 O.2     1  UNL1       -0.4540
     14  C          9.3140   -3.6370   -2.3460 C.3     1  UNL1        0.4680
@<TRIPOS>BOND
     1    13    11    1
     2    13    14    1
     3     9    11    2
     4     9     7    1
     5    11    10    1
     6     7     6    2
     7    14    12    1
     8    10    12    1
     9    10     8    2
    10     6     8    1
    11     6     5    1
    12     5     1    1
    13     1     2    1
    14     2     4    2
    15     2     3    1
