MODEL 1
REMARK VINA RESULT:      -7.6      0.000      0.000
REMARK SMILES CC(=O)CCc1ccc2c(c1)OCO2
REMARK SMILES IDX 4 1 2 2 1 3 3 4 5 5 6 6 7 7 11 8 8 9 10 10 9 11 12 12 14 13
REMARK SMILES IDX 13 14
REMARK H PARENT
REMARK Flexibility Score: inf
ROOT
ATOM      1  C   UNL     1       5.566   1.879   1.302  1.00  0.00     0.080 C 
ENDROOT
BRANCH   1   2
ATOM      2  C   UNL     1       5.116   0.657   2.025  1.00  0.00     0.130 C 
ATOM      3  C   UNL     1       6.008  -0.521   2.199  1.00  0.00     0.087 C 
ATOM      4  O   UNL     1       3.993   0.586   2.497  1.00  0.00    -0.300 OA
ENDBRANCH   1   2
BRANCH   1   5
ATOM      5  C   UNL     1       5.432   1.712  -0.198  1.00  0.00     0.043 C 
BRANCH   5   6
ATOM      6  C   UNL     1       6.590   1.007  -0.775  1.00  0.00    -0.044 A 
ATOM      7  C   UNL     1       7.901   1.438  -0.544  1.00  0.00     0.008 A 
ATOM      8  C   UNL     1       6.389  -0.106  -1.561  1.00  0.00     0.054 A 
ATOM      9  C   UNL     1       8.949   0.736  -1.111  1.00  0.00     0.051 A 
ATOM     10  C   UNL     1       7.452  -0.813  -2.131  1.00  0.00     0.166 A 
ATOM     11  C   UNL     1       8.742  -0.388  -1.905  1.00  0.00     0.165 A 
ATOM     12  O   UNL     1       7.512  -1.930  -2.937  1.00  0.00    -0.454 OA
ATOM     13  O   UNL     1       9.577  -1.263  -2.582  1.00  0.00    -0.454 OA
ATOM     14  C   UNL     1       8.844  -2.309  -3.175  1.00  0.00     0.468 C 
ENDBRANCH   5   6
ENDBRANCH   1   5
TORSDOF 3
ENDMDL
MODEL 2
REMARK VINA RESULT:      -7.4      1.894      2.375
REMARK SMILES CC(=O)CCc1ccc2c(c1)OCO2
REMARK SMILES IDX 4 1 2 2 1 3 3 4 5 5 6 6 7 7 11 8 8 9 10 10 9 11 12 12 14 13
REMARK SMILES IDX 13 14
REMARK H PARENT
REMARK Flexibility Score: inf
ROOT
ATOM      1  C   UNL     1       5.739   1.298  -0.295  1.00  0.00     0.080 C 
ENDROOT
BRANCH   1   2
ATOM      2  C   UNL     1       5.207   1.233   1.095  1.00  0.00     0.130 C 
ATOM      3  C   UNL     1       5.456   0.059   1.972  1.00  0.00     0.087 C 
ATOM      4  O   UNL     1       4.545   2.149   1.556  1.00  0.00    -0.300 OA
ENDBRANCH   1   2
BRANCH   1   5
ATOM      5  C   UNL     1       7.240   1.092  -0.320  1.00  0.00     0.043 C 
BRANCH   5   6
ATOM      6  C   UNL     1       7.605  -0.200  -0.926  1.00  0.00    -0.044 A 
ATOM      7  C   UNL     1       7.626  -0.379  -2.314  1.00  0.00     0.008 A 
ATOM      8  C   UNL     1       7.937  -1.264  -0.118  1.00  0.00     0.054 A 
ATOM      9  C   UNL     1       7.977  -1.615  -2.826  1.00  0.00     0.051 A 
ATOM     10  C   UNL     1       8.291  -2.511  -0.640  1.00  0.00     0.166 A 
ATOM     11  C   UNL     1       8.311  -2.688  -2.006  1.00  0.00     0.165 A 
ATOM     12  O   UNL     1       8.656  -3.706  -0.056  1.00  0.00    -0.454 OA
ATOM     13  O   UNL     1       8.692  -4.001  -2.235  1.00  0.00    -0.454 OA
ATOM     14  C   UNL     1       9.008  -4.656  -1.029  1.00  0.00     0.468 C 
ENDBRANCH   5   6
ENDBRANCH   1   5
TORSDOF 3
ENDMDL
MODEL 3
REMARK VINA RESULT:      -7.2      2.059      2.649
REMARK SMILES CC(=O)CCc1ccc2c(c1)OCO2
REMARK SMILES IDX 4 1 2 2 1 3 3 4 5 5 6 6 7 7 11 8 8 9 10 10 9 11 12 12 14 13
REMARK SMILES IDX 13 14
REMARK H PARENT
REMARK Flexibility Score: inf
ROOT
ATOM      1  C   UNL     1       5.357  -0.117   2.016  1.00  0.00     0.080 C 
ENDROOT
BRANCH   1   2
ATOM      2  C   UNL     1       4.556   1.117   1.781  1.00  0.00     0.130 C 
ATOM      3  C   UNL     1       4.919   2.092   0.718  1.00  0.00     0.087 C 
ATOM      4  O   UNL     1       3.573   1.365   2.460  1.00  0.00    -0.300 OA
ENDBRANCH   1   2
BRANCH   1   5
ATOM      5  C   UNL     1       6.815   0.096   1.660  1.00  0.00     0.043 C 
BRANCH   5   6
ATOM      6  C   UNL     1       7.252  -0.810   0.583  1.00  0.00    -0.044 A 
ATOM      7  C   UNL     1       7.115  -0.465  -0.767  1.00  0.00     0.008 A 
ATOM      8  C   UNL     1       7.813  -2.026   0.900  1.00  0.00     0.054 A 
ATOM      9  C   UNL     1       7.545  -1.355  -1.734  1.00  0.00     0.051 A 
ATOM     10  C   UNL     1       8.246  -2.923  -0.081  1.00  0.00     0.166 A 
ATOM     11  C   UNL     1       8.110  -2.584  -1.409  1.00  0.00     0.165 A 
ATOM     12  O   UNL     1       8.825  -4.172  -0.023  1.00  0.00    -0.454 OA
ATOM     13  O   UNL     1       8.616  -3.644  -2.146  1.00  0.00    -0.454 OA
ATOM     14  C   UNL     1       9.162  -4.633  -1.306  1.00  0.00     0.468 C 
ENDBRANCH   5   6
ENDBRANCH   1   5
TORSDOF 3
ENDMDL
MODEL 4
REMARK VINA RESULT:      -7.1      1.236      1.428
REMARK SMILES CC(=O)CCc1ccc2c(c1)OCO2
REMARK SMILES IDX 4 1 2 2 1 3 3 4 5 5 6 6 7 7 11 8 8 9 10 10 9 11 12 12 14 13
REMARK SMILES IDX 13 14
REMARK H PARENT
REMARK Flexibility Score: inf
ROOT
ATOM      1  C   UNL     1       6.349   1.246   0.867  1.00  0.00     0.080 C 
ENDROOT
BRANCH   1   2
ATOM      2  C   UNL     1       5.661   0.434   1.909  1.00  0.00     0.130 C 
ATOM      3  C   UNL     1       6.279  -0.794   2.476  1.00  0.00     0.087 C 
ATOM      4  O   UNL     1       4.562   0.757   2.330  1.00  0.00    -0.300 OA
ENDBRANCH   1   2
BRANCH   1   5
ATOM      5  C   UNL     1       5.836   0.911  -0.520  1.00  0.00     0.043 C 
BRANCH   5   6
ATOM      6  C   UNL     1       6.803   0.097  -1.278  1.00  0.00    -0.044 A 
ATOM      7  C   UNL     1       7.520   0.628  -2.357  1.00  0.00     0.008 A 
ATOM      8  C   UNL     1       7.016  -1.215  -0.924  1.00  0.00     0.054 A 
ATOM      9  C   UNL     1       8.415  -0.183  -3.031  1.00  0.00     0.051 A 
ATOM     10  C   UNL     1       7.923  -2.031  -1.608  1.00  0.00     0.166 A 
ATOM     11  C   UNL     1       8.627  -1.510  -2.671  1.00  0.00     0.165 A 
ATOM     12  O   UNL     1       8.306  -3.346  -1.453  1.00  0.00    -0.454 OA
ATOM     13  O   UNL     1       9.438  -2.527  -3.151  1.00  0.00    -0.454 OA
ATOM     14  C   UNL     1       9.333  -3.681  -2.351  1.00  0.00     0.468 C 
ENDBRANCH   5   6
ENDBRANCH   1   5
TORSDOF 3
ENDMDL
MODEL 5
REMARK VINA RESULT:      -7.0      1.996      2.577
REMARK SMILES CC(=O)CCc1ccc2c(c1)OCO2
REMARK SMILES IDX 4 1 2 2 1 3 3 4 5 5 6 6 7 7 11 8 8 9 10 10 9 11 12 12 14 13
REMARK SMILES IDX 13 14
REMARK H PARENT
REMARK Flexibility Score: inf
ROOT
ATOM      1  C   UNL     1       6.774   0.593   1.254  1.00  0.00     0.080 C 
ENDROOT
BRANCH   1   2
ATOM      2  C   UNL     1       5.390   1.118   1.418  1.00  0.00     0.130 C 
ATOM      3  C   UNL     1       4.831   2.146   0.500  1.00  0.00     0.087 C 
ATOM      4  O   UNL     1       4.671   0.717   2.319  1.00  0.00    -0.300 OA
ENDBRANCH   1   2
BRANCH   1   5
ATOM      5  C   UNL     1       7.287   0.826  -0.153  1.00  0.00     0.043 C 
BRANCH   5   6
ATOM      6  C   UNL     1       7.712  -0.431  -0.795  1.00  0.00    -0.044 A 
ATOM      7  C   UNL     1       7.905  -0.519  -2.179  1.00  0.00     0.008 A 
ATOM      8  C   UNL     1       7.930  -1.550  -0.025  1.00  0.00     0.054 A 
ATOM      9  C   UNL     1       8.305  -1.725  -2.725  1.00  0.00     0.051 A 
ATOM     10  C   UNL     1       8.335  -2.767  -0.582  1.00  0.00     0.166 A 
ATOM     11  C   UNL     1       8.524  -2.855  -1.943  1.00  0.00     0.165 A 
ATOM     12  O   UNL     1       8.612  -4.004  -0.039  1.00  0.00    -0.454 OA
ATOM     13  O   UNL     1       8.918  -4.157  -2.210  1.00  0.00    -0.454 OA
ATOM     14  C   UNL     1       9.074  -4.894  -1.022  1.00  0.00     0.468 C 
ENDBRANCH   5   6
ENDBRANCH   1   5
TORSDOF 3
ENDMDL
