@<TRIPOS>MOLECULE
/home/cewinharhar/GITHUB/reincatalyze/data/processed/docking_pred/2023-May-24-1506_sub9_nm5_bs15_s42_ex16_mel10_mts10000_k50_ec02_g099_lra3e-4_lrc3e-3/544f4ddee7da09465e084ab518e20d4fbc72de61_ligand_9.pdbqt
 14 15 0 0 0
SMALL
GASTEIGER

@<TRIPOS>ATOM
      1  C          6.7740    0.5930    1.2540 C.3     1  UNL1        0.0800
      2  C          5.3900    1.1180    1.4180 C.2     1  UNL1        0.1300
      3  C          4.8310    2.1460    0.5000 C.3     1  UNL1        0.0870
      4  O          4.6710    0.7170    2.3190 O.2     1  UNL1       -0.3000
      5  C          7.2870    0.8260   -0.1530 C.3     1  UNL1        0.0430
      6  C          7.7120   -0.4310   -0.7950 C.2     1  UNL1       -0.0440
      7  C          7.9050   -0.5190   -2.1790 C.2     1  UNL1        0.0080
      8  C          7.9300   -1.5500   -0.0250 C.2     1  UNL1        0.0540
      9  C          8.3050   -1.7250   -2.7250 C.2     1  UNL1        0.0510
     10  C          8.3350   -2.7670   -0.5820 C.2     1  UNL1        0.1660
     11  C          8.5240   -2.8550   -1.9430 C.2     1  UNL1        0.1650
     12  O          8.6120   -4.0040   -0.0390 O.2     1  UNL1       -0.4540
     13  O          8.9180   -4.1570   -2.2100 O.2     1  UNL1       -0.4540
     14  C          9.0740   -4.8940   -1.0220 C.3     1  UNL1        0.4680
@<TRIPOS>BOND
     1     9     7    1
     2     9    11    2
     3    13    11    1
     4    13    14    1
     5     7     6    2
     6    11    10    1
     7    14    12    1
     8     6     5    1
     9     6     8    1
    10    10    12    1
    11    10     8    2
    12     5     1    1
    13     3     2    1
    14     1     2    1
    15     2     4    2
