MODEL 1
REMARK VINA RESULT:      -7.7      0.000      0.000
REMARK SMILES CC(=O)CCc1ccc2c(c1)OCO2
REMARK SMILES IDX 4 1 2 2 1 3 3 4 5 5 6 6 7 7 11 8 8 9 10 10 9 11 12 12 14 13
REMARK SMILES IDX 13 14
REMARK H PARENT
REMARK Flexibility Score: inf
ROOT
ATOM      1  C   UNL     1       5.548   1.891   1.297  1.00  0.00     0.080 C 
ENDROOT
BRANCH   1   2
ATOM      2  C   UNL     1       5.110   0.668   2.025  1.00  0.00     0.130 C 
ATOM      3  C   UNL     1       6.005  -0.509   2.185  1.00  0.00     0.087 C 
ATOM      4  O   UNL     1       3.994   0.596   2.514  1.00  0.00    -0.300 OA
ENDBRANCH   1   2
BRANCH   1   5
ATOM      5  C   UNL     1       5.411   1.718  -0.203  1.00  0.00     0.043 C 
BRANCH   5   6
ATOM      6  C   UNL     1       6.574   1.022  -0.781  1.00  0.00    -0.044 A 
ATOM      7  C   UNL     1       7.882   1.460  -0.547  1.00  0.00     0.008 A 
ATOM      8  C   UNL     1       6.381  -0.089  -1.571  1.00  0.00     0.054 A 
ATOM      9  C   UNL     1       8.935   0.767  -1.115  1.00  0.00     0.051 A 
ATOM     10  C   UNL     1       7.448  -0.787  -2.143  1.00  0.00     0.166 A 
ATOM     11  C   UNL     1       8.736  -0.356  -1.914  1.00  0.00     0.165 A 
ATOM     12  O   UNL     1       7.516  -1.901  -2.953  1.00  0.00    -0.454 OA
ATOM     13  O   UNL     1       9.576  -1.223  -2.594  1.00  0.00    -0.454 OA
ATOM     14  C   UNL     1       8.850  -2.271  -3.191  1.00  0.00     0.468 C 
ENDBRANCH   5   6
ENDBRANCH   1   5
TORSDOF 3
ENDMDL
MODEL 2
REMARK VINA RESULT:      -7.5      1.928      2.385
REMARK SMILES CC(=O)CCc1ccc2c(c1)OCO2
REMARK SMILES IDX 4 1 2 2 1 3 3 4 5 5 6 6 7 7 11 8 8 9 10 10 9 11 12 12 14 13
REMARK SMILES IDX 13 14
REMARK H PARENT
REMARK Flexibility Score: inf
ROOT
ATOM      1  C   UNL     1       5.754   1.386  -0.315  1.00  0.00     0.080 C 
ENDROOT
BRANCH   1   2
ATOM      2  C   UNL     1       5.110   1.298   1.025  1.00  0.00     0.130 C 
ATOM      3  C   UNL     1       5.399   0.176   1.957  1.00  0.00     0.087 C 
ATOM      4  O   UNL     1       4.320   2.150   1.398  1.00  0.00    -0.300 OA
ENDBRANCH   1   2
BRANCH   1   5
ATOM      5  C   UNL     1       7.245   1.127  -0.228  1.00  0.00     0.043 C 
BRANCH   5   6
ATOM      6  C   UNL     1       7.612  -0.162  -0.840  1.00  0.00    -0.044 A 
ATOM      7  C   UNL     1       7.684  -0.320  -2.229  1.00  0.00     0.008 A 
ATOM      8  C   UNL     1       7.896  -1.243  -0.037  1.00  0.00     0.054 A 
ATOM      9  C   UNL     1       8.035  -1.553  -2.747  1.00  0.00     0.051 A 
ATOM     10  C   UNL     1       8.251  -2.488  -0.565  1.00  0.00     0.166 A 
ATOM     11  C   UNL     1       8.321  -2.644  -1.932  1.00  0.00     0.165 A 
ATOM     12  O   UNL     1       8.574  -3.697   0.013  1.00  0.00    -0.454 OA
ATOM     13  O   UNL     1       8.690  -3.959  -2.166  1.00  0.00    -0.454 OA
ATOM     14  C   UNL     1       8.949  -4.637  -0.960  1.00  0.00     0.468 C 
ENDBRANCH   5   6
ENDBRANCH   1   5
TORSDOF 3
ENDMDL
MODEL 3
REMARK VINA RESULT:      -7.2      2.054      2.624
REMARK SMILES CC(=O)CCc1ccc2c(c1)OCO2
REMARK SMILES IDX 4 1 2 2 1 3 3 4 5 5 6 6 7 7 11 8 8 9 10 10 9 11 12 12 14 13
REMARK SMILES IDX 13 14
REMARK H PARENT
REMARK Flexibility Score: inf
ROOT
ATOM      1  C   UNL     1       5.414  -0.051   2.019  1.00  0.00     0.080 C 
ENDROOT
BRANCH   1   2
ATOM      2  C   UNL     1       4.562   1.146   1.772  1.00  0.00     0.130 C 
ATOM      3  C   UNL     1       4.891   2.133   0.709  1.00  0.00     0.087 C 
ATOM      4  O   UNL     1       3.562   1.352   2.441  1.00  0.00    -0.300 OA
ENDBRANCH   1   2
BRANCH   1   5
ATOM      5  C   UNL     1       6.849   0.199   1.599  1.00  0.00     0.043 C 
BRANCH   5   6
ATOM      6  C   UNL     1       7.276  -0.725   0.533  1.00  0.00    -0.044 A 
ATOM      7  C   UNL     1       7.147  -0.392  -0.821  1.00  0.00     0.008 A 
ATOM      8  C   UNL     1       7.817  -1.946   0.865  1.00  0.00     0.054 A 
ATOM      9  C   UNL     1       7.565  -1.299  -1.777  1.00  0.00     0.051 A 
ATOM     10  C   UNL     1       8.239  -2.859  -0.106  1.00  0.00     0.166 A 
ATOM     11  C   UNL     1       8.112  -2.533  -1.438  1.00  0.00     0.165 A 
ATOM     12  O   UNL     1       8.800  -4.116  -0.033  1.00  0.00    -0.454 OA
ATOM     13  O   UNL     1       8.603  -3.608  -2.162  1.00  0.00    -0.454 OA
ATOM     14  C   UNL     1       9.133  -4.595  -1.311  1.00  0.00     0.468 C 
ENDBRANCH   5   6
ENDBRANCH   1   5
TORSDOF 3
ENDMDL
MODEL 4
REMARK VINA RESULT:      -7.1      1.252      1.458
REMARK SMILES CC(=O)CCc1ccc2c(c1)OCO2
REMARK SMILES IDX 4 1 2 2 1 3 3 4 5 5 6 6 7 7 11 8 8 9 10 10 9 11 12 12 14 13
REMARK SMILES IDX 13 14
REMARK H PARENT
REMARK Flexibility Score: inf
ROOT
ATOM      1  C   UNL     1       6.379   1.180   0.967  1.00  0.00     0.080 C 
ENDROOT
BRANCH   1   2
ATOM      2  C   UNL     1       5.645   0.354   1.966  1.00  0.00     0.130 C 
ATOM      3  C   UNL     1       6.235  -0.884   2.541  1.00  0.00     0.087 C 
ATOM      4  O   UNL     1       4.529   0.673   2.343  1.00  0.00    -0.300 OA
ENDBRANCH   1   2
BRANCH   1   5
ATOM      5  C   UNL     1       5.869   0.926  -0.438  1.00  0.00     0.043 C 
BRANCH   5   6
ATOM      6  C   UNL     1       6.810   0.104  -1.221  1.00  0.00    -0.044 A 
ATOM      7  C   UNL     1       7.477   0.618  -2.338  1.00  0.00     0.008 A 
ATOM      8  C   UNL     1       7.046  -1.200  -0.851  1.00  0.00     0.054 A 
ATOM      9  C   UNL     1       8.349  -0.200  -3.034  1.00  0.00     0.051 A 
ATOM     10  C   UNL     1       7.929  -2.023  -1.557  1.00  0.00     0.166 A 
ATOM     11  C   UNL     1       8.585  -1.519  -2.658  1.00  0.00     0.165 A 
ATOM     12  O   UNL     1       8.327  -3.333  -1.394  1.00  0.00    -0.454 OA
ATOM     13  O   UNL     1       9.382  -2.539  -3.152  1.00  0.00    -0.454 OA
ATOM     14  C   UNL     1       9.318  -3.679  -2.328  1.00  0.00     0.468 C 
ENDBRANCH   5   6
ENDBRANCH   1   5
TORSDOF 3
ENDMDL
MODEL 5
REMARK VINA RESULT:      -7.0      1.982      2.531
REMARK SMILES CC(=O)CCc1ccc2c(c1)OCO2
REMARK SMILES IDX 4 1 2 2 1 3 3 4 5 5 6 6 7 7 11 8 8 9 10 10 9 11 12 12 14 13
REMARK SMILES IDX 13 14
REMARK H PARENT
REMARK Flexibility Score: inf
ROOT
ATOM      1  C   UNL     1       6.809   0.796   1.448  1.00  0.00     0.080 C 
ENDROOT
BRANCH   1   2
ATOM      2  C   UNL     1       5.350   1.089   1.526  1.00  0.00     0.130 C 
ATOM      3  C   UNL     1       4.701   2.070   0.615  1.00  0.00     0.087 C 
ATOM      4  O   UNL     1       4.641   0.530   2.347  1.00  0.00    -0.300 OA
ENDBRANCH   1   2
BRANCH   1   5
ATOM      5  C   UNL     1       7.340   1.017   0.046  1.00  0.00     0.043 C 
BRANCH   5   6
ATOM      6  C   UNL     1       7.634  -0.257  -0.634  1.00  0.00    -0.044 A 
ATOM      7  C   UNL     1       7.539  -0.385  -2.025  1.00  0.00     0.008 A 
ATOM      8  C   UNL     1       8.015  -1.353   0.106  1.00  0.00     0.054 A 
ATOM      9  C   UNL     1       7.828  -1.605  -2.608  1.00  0.00     0.051 A 
ATOM     10  C   UNL     1       8.307  -2.585  -0.489  1.00  0.00     0.166 A 
ATOM     11  C   UNL     1       8.212  -2.711  -1.857  1.00  0.00     0.165 A 
ATOM     12  O   UNL     1       8.700  -3.804   0.020  1.00  0.00    -0.454 OA
ATOM     13  O   UNL     1       8.553  -4.020  -2.163  1.00  0.00    -0.454 OA
ATOM     14  C   UNL     1       8.957  -4.722  -1.012  1.00  0.00     0.468 C 
ENDBRANCH   5   6
ENDBRANCH   1   5
TORSDOF 3
ENDMDL
