@<TRIPOS>MOLECULE
/home/cewinharhar/GITHUB/reincatalyze/data/processed/docking_pred/2023-May-24-1506_sub9_nm5_bs15_s42_ex16_mel10_mts10000_k50_ec02_g099_lra3e-4_lrc3e-3/547705a8e3f5f2e6a001ad7d66b93fdf788395f0_ligand_9.pdbqt
 14 15 0 0 0
SMALL
GASTEIGER

@<TRIPOS>ATOM
      1  C          5.5480    1.8910    1.2970 C.3     1  UNL1        0.0800
      2  C          5.1100    0.6680    2.0250 C.2     1  UNL1        0.1300
      3  C          6.0050   -0.5090    2.1850 C.3     1  UNL1        0.0870
      4  O          3.9940    0.5960    2.5140 O.2     1  UNL1       -0.3000
      5  C          5.4110    1.7180   -0.2030 C.3     1  UNL1        0.0430
      6  C          6.5740    1.0220   -0.7810 C.2     1  UNL1       -0.0440
      7  C          7.8820    1.4600   -0.5470 C.2     1  UNL1        0.0080
      8  C          6.3810   -0.0890   -1.5710 C.2     1  UNL1        0.0540
      9  C          8.9350    0.7670   -1.1150 C.2     1  UNL1        0.0510
     10  C          7.4480   -0.7870   -2.1430 C.2     1  UNL1        0.1660
     11  C          8.7360   -0.3560   -1.9140 C.2     1  UNL1        0.1650
     12  O          7.5160   -1.9010   -2.9530 O.2     1  UNL1       -0.4540
     13  O          9.5760   -1.2230   -2.5940 O.2     1  UNL1       -0.4540
     14  C          8.8500   -2.2710   -3.1910 C.3     1  UNL1        0.4680
@<TRIPOS>BOND
     1    14    12    1
     2    14    13    1
     3    12    10    1
     4    13    11    1
     5    10    11    2
     6    10     8    1
     7    11     9    1
     8     8     6    2
     9     9     7    2
    10     6     7    1
    11     6     5    1
    12     5     1    1
    13     1     2    1
    14     2     3    1
    15     2     4    2
