@<TRIPOS>MOLECULE
/home/cewinharhar/GITHUB/reincatalyze/data/processed/docking_pred/2023-May-24-1506_sub9_nm5_bs15_s42_ex16_mel10_mts10000_k50_ec02_g099_lra3e-4_lrc3e-3/547705a8e3f5f2e6a001ad7d66b93fdf788395f0_ligand_9.pdbqt
 14 15 0 0 0
SMALL
GASTEIGER

@<TRIPOS>ATOM
      1  C          5.4140   -0.0510    2.0190 C.3     1  UNL1        0.0800
      2  C          4.5620    1.1460    1.7720 C.2     1  UNL1        0.1300
      3  C          4.8910    2.1330    0.7090 C.3     1  UNL1        0.0870
      4  O          3.5620    1.3520    2.4410 O.2     1  UNL1       -0.3000
      5  C          6.8490    0.1990    1.5990 C.3     1  UNL1        0.0430
      6  C          7.2760   -0.7250    0.5330 C.2     1  UNL1       -0.0440
      7  C          7.1470   -0.3920   -0.8210 C.2     1  UNL1        0.0080
      8  C          7.8170   -1.9460    0.8650 C.2     1  UNL1        0.0540
      9  C          7.5650   -1.2990   -1.7770 C.2     1  UNL1        0.0510
     10  C          8.2390   -2.8590   -0.1060 C.2     1  UNL1        0.1660
     11  C          8.1120   -2.5330   -1.4380 C.2     1  UNL1        0.1650
     12  O          8.8000   -4.1160   -0.0330 O.2     1  UNL1       -0.4540
     13  O          8.6030   -3.6080   -2.1620 O.2     1  UNL1       -0.4540
     14  C          9.1330   -4.5950   -1.3110 C.3     1  UNL1        0.4680
@<TRIPOS>BOND
     1    13    11    1
     2    13    14    1
     3     9    11    2
     4     9     7    1
     5    11    10    1
     6    14    12    1
     7     7     6    2
     8    10    12    1
     9    10     8    2
    10     6     8    1
    11     6     5    1
    12     3     2    1
    13     5     1    1
    14     2     1    1
    15     2     4    2
