@<TRIPOS>MOLECULE
/home/cewinharhar/GITHUB/reincatalyze/data/processed/docking_pred/2023-May-24-1506_sub9_nm5_bs15_s42_ex16_mel10_mts10000_k50_ec02_g099_lra3e-4_lrc3e-3/547705a8e3f5f2e6a001ad7d66b93fdf788395f0_ligand_9.pdbqt
 14 15 0 0 0
SMALL
GASTEIGER

@<TRIPOS>ATOM
      1  C          6.8090    0.7960    1.4480 C.3     1  UNL1        0.0800
      2  C          5.3500    1.0890    1.5260 C.2     1  UNL1        0.1300
      3  C          4.7010    2.0700    0.6150 C.3     1  UNL1        0.0870
      4  O          4.6410    0.5300    2.3470 O.2     1  UNL1       -0.3000
      5  C          7.3400    1.0170    0.0460 C.3     1  UNL1        0.0430
      6  C          7.6340   -0.2570   -0.6340 C.2     1  UNL1       -0.0440
      7  C          7.5390   -0.3850   -2.0250 C.2     1  UNL1        0.0080
      8  C          8.0150   -1.3530    0.1060 C.2     1  UNL1        0.0540
      9  C          7.8280   -1.6050   -2.6080 C.2     1  UNL1        0.0510
     10  C          8.3070   -2.5850   -0.4890 C.2     1  UNL1        0.1660
     11  C          8.2120   -2.7110   -1.8570 C.2     1  UNL1        0.1650
     12  O          8.7000   -3.8040    0.0200 O.2     1  UNL1       -0.4540
     13  O          8.5530   -4.0200   -2.1630 O.2     1  UNL1       -0.4540
     14  C          8.9570   -4.7220   -1.0120 C.3     1  UNL1        0.4680
@<TRIPOS>BOND
     1     9     7    1
     2     9    11    2
     3    13    11    1
     4    13    14    1
     5     7     6    2
     6    11    10    1
     7    14    12    1
     8     6     5    1
     9     6     8    1
    10    10    12    1
    11    10     8    2
    12     5     1    1
    13     3     2    1
    14     1     2    1
    15     2     4    2
