@<TRIPOS>MOLECULE
/home/cewinharhar/GITHUB/reincatalyze/data/processed/docking_pred/2023-May-24-1506_sub9_nm5_bs15_s42_ex16_mel10_mts10000_k50_ec02_g099_lra3e-4_lrc3e-3/547705a8e3f5f2e6a001ad7d66b93fdf788395f0_ligand_9.pdbqt
 14 15 0 0 0
SMALL
GASTEIGER

@<TRIPOS>ATOM
      1  C          5.7540    1.3860   -0.3150 C.3     1  UNL1        0.0800
      2  C          5.1100    1.2980    1.0250 C.2     1  UNL1        0.1300
      3  C          5.3990    0.1760    1.9570 C.3     1  UNL1        0.0870
      4  O          4.3200    2.1500    1.3980 O.2     1  UNL1       -0.3000
      5  C          7.2450    1.1270   -0.2280 C.3     1  UNL1        0.0430
      6  C          7.6120   -0.1620   -0.8400 C.2     1  UNL1       -0.0440
      7  C          7.6840   -0.3200   -2.2290 C.2     1  UNL1        0.0080
      8  C          7.8960   -1.2430   -0.0370 C.2     1  UNL1        0.0540
      9  C          8.0350   -1.5530   -2.7470 C.2     1  UNL1        0.0510
     10  C          8.2510   -2.4880   -0.5650 C.2     1  UNL1        0.1660
     11  C          8.3210   -2.6440   -1.9320 C.2     1  UNL1        0.1650
     12  O          8.5740   -3.6970    0.0130 O.2     1  UNL1       -0.4540
     13  O          8.6900   -3.9590   -2.1660 O.2     1  UNL1       -0.4540
     14  C          8.9490   -4.6370   -0.9600 C.3     1  UNL1        0.4680
@<TRIPOS>BOND
     1     9     7    1
     2     9    11    2
     3     7     6    2
     4    13    11    1
     5    13    14    1
     6    11    10    1
     7    14    12    1
     8     6     5    1
     9     6     8    1
    10    10     8    2
    11    10    12    1
    12     1     5    1
    13     1     2    1
    14     2     4    2
    15     2     3    1
