@<TRIPOS>MOLECULE
/home/cewinharhar/GITHUB/reincatalyze/data/processed/docking_pred/2023-May-24-1506_sub9_nm5_bs15_s42_ex16_mel10_mts10000_k50_ec02_g099_lra3e-4_lrc3e-3/54a2e3ceee1b2a6ac8591f20fd198e2f201bb612_ligand_9.pdbqt
 14 15 0 0 0
SMALL
GASTEIGER

@<TRIPOS>ATOM
      1  C          5.7280    1.2630   -0.3050 C.3     1  UNL1        0.0800
      2  C          5.2040    1.2060    1.0880 C.2     1  UNL1        0.1300
      3  C          5.3950    0.0050    1.9450 C.3     1  UNL1        0.0870
      4  O          4.5990    2.1500    1.5690 O.2     1  UNL1       -0.3000
      5  C          7.2320    1.0810   -0.3360 C.3     1  UNL1        0.0430
      6  C          7.6150   -0.2060   -0.9440 C.2     1  UNL1       -0.0440
      7  C          7.6660   -0.3750   -2.3320 C.2     1  UNL1        0.0080
      8  C          7.9340   -1.2740   -0.1360 C.2     1  UNL1        0.0540
      9  C          8.0320   -1.6060   -2.8450 C.2     1  UNL1        0.0510
     10  C          8.3050   -2.5160   -0.6600 C.2     1  UNL1        0.1660
     11  C          8.3540   -2.6830   -2.0260 C.2     1  UNL1        0.1650
     12  O          8.6620   -3.7130   -0.0760 O.2     1  UNL1       -0.4540
     13  O          8.7460   -3.9930   -2.2550 O.2     1  UNL1       -0.4540
     14  C          9.0390   -4.6540   -1.0480 C.3     1  UNL1        0.4680
@<TRIPOS>BOND
     1     9     7    1
     2     9    11    2
     3     7     6    2
     4    13    11    1
     5    13    14    1
     6    11    10    1
     7    14    12    1
     8     6     5    1
     9     6     8    1
    10    10     8    2
    11    10    12    1
    12     5     1    1
    13     1     2    1
    14     2     4    2
    15     2     3    1
