MODEL 1
REMARK VINA RESULT:      -7.7      0.000      0.000
REMARK SMILES CC(=O)CCc1ccc2c(c1)OCO2
REMARK SMILES IDX 4 1 2 2 1 3 3 4 5 5 6 6 7 7 11 8 8 9 10 10 9 11 12 12 14 13
REMARK SMILES IDX 13 14
REMARK H PARENT
REMARK Flexibility Score: inf
ROOT
ATOM      1  C   UNL     1       5.513   1.901   1.276  1.00  0.00     0.080 C 
ENDROOT
BRANCH   1   2
ATOM      2  C   UNL     1       5.069   0.680   2.006  1.00  0.00     0.130 C 
ATOM      3  C   UNL     1       5.951  -0.509   2.147  1.00  0.00     0.087 C 
ATOM      4  O   UNL     1       3.960   0.621   2.511  1.00  0.00    -0.300 OA
ENDBRANCH   1   2
BRANCH   1   5
ATOM      5  C   UNL     1       5.389   1.721  -0.224  1.00  0.00     0.043 C 
BRANCH   5   6
ATOM      6  C   UNL     1       6.559   1.026  -0.789  1.00  0.00    -0.044 A 
ATOM      7  C   UNL     1       7.864   1.469  -0.544  1.00  0.00     0.008 A 
ATOM      8  C   UNL     1       6.376  -0.088  -1.577  1.00  0.00     0.054 A 
ATOM      9  C   UNL     1       8.924   0.776  -1.101  1.00  0.00     0.051 A 
ATOM     10  C   UNL     1       7.451  -0.785  -2.137  1.00  0.00     0.166 A 
ATOM     11  C   UNL     1       8.735  -0.349  -1.897  1.00  0.00     0.165 A 
ATOM     12  O   UNL     1       7.529  -1.901  -2.942  1.00  0.00    -0.454 OA
ATOM     13  O   UNL     1       9.584  -1.217  -2.567  1.00  0.00    -0.454 OA
ATOM     14  C   UNL     1       8.866  -2.268  -3.167  1.00  0.00     0.468 C 
ENDBRANCH   5   6
ENDBRANCH   1   5
TORSDOF 3
ENDMDL
MODEL 2
REMARK VINA RESULT:      -7.4      1.898      2.389
REMARK SMILES CC(=O)CCc1ccc2c(c1)OCO2
REMARK SMILES IDX 4 1 2 2 1 3 3 4 5 5 6 6 7 7 11 8 8 9 10 10 9 11 12 12 14 13
REMARK SMILES IDX 13 14
REMARK H PARENT
REMARK Flexibility Score: inf
ROOT
ATOM      1  C   UNL     1       5.728   1.263  -0.305  1.00  0.00     0.080 C 
ENDROOT
BRANCH   1   2
ATOM      2  C   UNL     1       5.204   1.206   1.088  1.00  0.00     0.130 C 
ATOM      3  C   UNL     1       5.395   0.005   1.945  1.00  0.00     0.087 C 
ATOM      4  O   UNL     1       4.599   2.150   1.569  1.00  0.00    -0.300 OA
ENDBRANCH   1   2
BRANCH   1   5
ATOM      5  C   UNL     1       7.232   1.081  -0.336  1.00  0.00     0.043 C 
BRANCH   5   6
ATOM      6  C   UNL     1       7.615  -0.206  -0.944  1.00  0.00    -0.044 A 
ATOM      7  C   UNL     1       7.666  -0.375  -2.332  1.00  0.00     0.008 A 
ATOM      8  C   UNL     1       7.934  -1.274  -0.136  1.00  0.00     0.054 A 
ATOM      9  C   UNL     1       8.032  -1.606  -2.845  1.00  0.00     0.051 A 
ATOM     10  C   UNL     1       8.305  -2.516  -0.660  1.00  0.00     0.166 A 
ATOM     11  C   UNL     1       8.354  -2.683  -2.026  1.00  0.00     0.165 A 
ATOM     12  O   UNL     1       8.662  -3.713  -0.076  1.00  0.00    -0.454 OA
ATOM     13  O   UNL     1       8.746  -3.993  -2.255  1.00  0.00    -0.454 OA
ATOM     14  C   UNL     1       9.039  -4.654  -1.048  1.00  0.00     0.468 C 
ENDBRANCH   5   6
ENDBRANCH   1   5
TORSDOF 3
ENDMDL
MODEL 3
REMARK VINA RESULT:      -7.2      2.065      2.637
REMARK SMILES CC(=O)CCc1ccc2c(c1)OCO2
REMARK SMILES IDX 4 1 2 2 1 3 3 4 5 5 6 6 7 7 11 8 8 9 10 10 9 11 12 12 14 13
REMARK SMILES IDX 13 14
REMARK H PARENT
REMARK Flexibility Score: inf
ROOT
ATOM      1  C   UNL     1       5.471  -0.066   1.985  1.00  0.00     0.080 C 
ENDROOT
BRANCH   1   2
ATOM      2  C   UNL     1       4.625   1.134   1.735  1.00  0.00     0.130 C 
ATOM      3  C   UNL     1       4.954   2.112   0.664  1.00  0.00     0.087 C 
ATOM      4  O   UNL     1       3.629   1.350   2.408  1.00  0.00    -0.300 OA
ENDBRANCH   1   2
BRANCH   1   5
ATOM      5  C   UNL     1       6.905   0.172   1.556  1.00  0.00     0.043 C 
BRANCH   5   6
ATOM      6  C   UNL     1       7.320  -0.760   0.493  1.00  0.00    -0.044 A 
ATOM      7  C   UNL     1       7.185  -0.435  -0.861  1.00  0.00     0.008 A 
ATOM      8  C   UNL     1       7.856  -1.983   0.829  1.00  0.00     0.054 A 
ATOM      9  C   UNL     1       7.593  -1.350  -1.815  1.00  0.00     0.051 A 
ATOM     10  C   UNL     1       8.267  -2.904  -0.139  1.00  0.00     0.166 A 
ATOM     11  C   UNL     1       8.134  -2.585  -1.472  1.00  0.00     0.165 A 
ATOM     12  O   UNL     1       8.820  -4.165  -0.062  1.00  0.00    -0.454 OA
ATOM     13  O   UNL     1       8.614  -3.667  -2.193  1.00  0.00    -0.454 OA
ATOM     14  C   UNL     1       9.142  -4.653  -1.338  1.00  0.00     0.468 C 
ENDBRANCH   5   6
ENDBRANCH   1   5
TORSDOF 3
ENDMDL
MODEL 4
REMARK VINA RESULT:      -7.1      1.239      1.432
REMARK SMILES CC(=O)CCc1ccc2c(c1)OCO2
REMARK SMILES IDX 4 1 2 2 1 3 3 4 5 5 6 6 7 7 11 8 8 9 10 10 9 11 12 12 14 13
REMARK SMILES IDX 13 14
REMARK H PARENT
REMARK Flexibility Score: inf
ROOT
ATOM      1  C   UNL     1       6.345   1.283   0.903  1.00  0.00     0.080 C 
ENDROOT
BRANCH   1   2
ATOM      2  C   UNL     1       5.661   0.423   1.910  1.00  0.00     0.130 C 
ATOM      3  C   UNL     1       6.326  -0.771   2.497  1.00  0.00     0.087 C 
ATOM      4  O   UNL     1       4.528   0.677   2.284  1.00  0.00    -0.300 OA
ENDBRANCH   1   2
BRANCH   1   5
ATOM      5  C   UNL     1       5.848   0.990  -0.498  1.00  0.00     0.043 C 
BRANCH   5   6
ATOM      6  C   UNL     1       6.801   0.156  -1.253  1.00  0.00    -0.044 A 
ATOM      7  C   UNL     1       7.516   0.664  -2.344  1.00  0.00     0.008 A 
ATOM      8  C   UNL     1       7.003  -1.154  -0.882  1.00  0.00     0.054 A 
ATOM      9  C   UNL     1       8.397  -0.165  -3.013  1.00  0.00     0.051 A 
ATOM     10  C   UNL     1       7.896  -1.988  -1.562  1.00  0.00     0.166 A 
ATOM     11  C   UNL     1       8.598  -1.490  -2.636  1.00  0.00     0.165 A 
ATOM     12  O   UNL     1       8.266  -3.305  -1.392  1.00  0.00    -0.454 OA
ATOM     13  O   UNL     1       9.395  -2.522  -3.108  1.00  0.00    -0.454 OA
ATOM     14  C   UNL     1       9.283  -3.663  -2.293  1.00  0.00     0.468 C 
ENDBRANCH   5   6
ENDBRANCH   1   5
TORSDOF 3
ENDMDL
MODEL 5
REMARK VINA RESULT:      -7.0      1.975      2.544
REMARK SMILES CC(=O)CCc1ccc2c(c1)OCO2
REMARK SMILES IDX 4 1 2 2 1 3 3 4 5 5 6 6 7 7 11 8 8 9 10 10 9 11 12 12 14 13
REMARK SMILES IDX 13 14
REMARK H PARENT
REMARK Flexibility Score: inf
ROOT
ATOM      1  C   UNL     1       6.914   0.896   1.212  1.00  0.00     0.080 C 
ENDROOT
BRANCH   1   2
ATOM      2  C   UNL     1       5.463   1.115   1.468  1.00  0.00     0.130 C 
ATOM      3  C   UNL     1       4.687   2.148   0.731  1.00  0.00     0.087 C 
ATOM      4  O   UNL     1       4.866   0.448   2.296  1.00  0.00    -0.300 OA
ENDBRANCH   1   2
BRANCH   1   5
ATOM      5  C   UNL     1       7.239   1.028  -0.263  1.00  0.00     0.043 C 
BRANCH   5   6
ATOM      6  C   UNL     1       7.616  -0.267  -0.857  1.00  0.00    -0.044 A 
ATOM      7  C   UNL     1       7.673  -0.449  -2.244  1.00  0.00     0.008 A 
ATOM      8  C   UNL     1       7.924  -1.329  -0.038  1.00  0.00     0.054 A 
ATOM      9  C   UNL     1       8.034  -1.687  -2.744  1.00  0.00     0.051 A 
ATOM     10  C   UNL     1       8.290  -2.579  -0.549  1.00  0.00     0.166 A 
ATOM     11  C   UNL     1       8.345  -2.759  -1.913  1.00  0.00     0.165 A 
ATOM     12  O   UNL     1       8.636  -3.773   0.047  1.00  0.00    -0.454 OA
ATOM     13  O   UNL     1       8.729  -4.073  -2.128  1.00  0.00    -0.454 OA
ATOM     14  C   UNL     1       9.012  -4.726  -0.914  1.00  0.00     0.468 C 
ENDBRANCH   5   6
ENDBRANCH   1   5
TORSDOF 3
ENDMDL
