@<TRIPOS>MOLECULE
/home/cewinharhar/GITHUB/reincatalyze/data/processed/docking_pred/2023-May-24-1506_sub9_nm5_bs15_s42_ex16_mel10_mts10000_k50_ec02_g099_lra3e-4_lrc3e-3/54a2e3ceee1b2a6ac8591f20fd198e2f201bb612_ligand_9.pdbqt
 14 15 0 0 0
SMALL
GASTEIGER

@<TRIPOS>ATOM
      1  C          6.3450    1.2830    0.9030 C.3     1  UNL1        0.0800
      2  C          5.6610    0.4230    1.9100 C.2     1  UNL1        0.1300
      3  C          6.3260   -0.7710    2.4970 C.3     1  UNL1        0.0870
      4  O          4.5280    0.6770    2.2840 O.2     1  UNL1       -0.3000
      5  C          5.8480    0.9900   -0.4980 C.3     1  UNL1        0.0430
      6  C          6.8010    0.1560   -1.2530 C.2     1  UNL1       -0.0440
      7  C          7.5160    0.6640   -2.3440 C.2     1  UNL1        0.0080
      8  C          7.0030   -1.1540   -0.8820 C.2     1  UNL1        0.0540
      9  C          8.3970   -0.1650   -3.0130 C.2     1  UNL1        0.0510
     10  C          7.8960   -1.9880   -1.5620 C.2     1  UNL1        0.1660
     11  C          8.5980   -1.4900   -2.6360 C.2     1  UNL1        0.1650
     12  O          8.2660   -3.3050   -1.3920 O.2     1  UNL1       -0.4540
     13  O          9.3950   -2.5220   -3.1080 O.2     1  UNL1       -0.4540
     14  C          9.2830   -3.6630   -2.2930 C.3     1  UNL1        0.4680
@<TRIPOS>BOND
     1    13    11    1
     2    13    14    1
     3     9    11    2
     4     9     7    1
     5    11    10    1
     6     7     6    2
     7    14    12    1
     8    10    12    1
     9    10     8    2
    10     6     8    1
    11     6     5    1
    12     5     1    1
    13     1     2    1
    14     2     4    2
    15     2     3    1
