@<TRIPOS>MOLECULE
/home/cewinharhar/GITHUB/reincatalyze/data/processed/docking_pred/2023-May-24-1506_sub9_nm5_bs15_s42_ex16_mel10_mts10000_k50_ec02_g099_lra3e-4_lrc3e-3/54a2e3ceee1b2a6ac8591f20fd198e2f201bb612_ligand_9.pdbqt
 14 15 0 0 0
SMALL
GASTEIGER

@<TRIPOS>ATOM
      1  C          5.4710   -0.0660    1.9850 C.3     1  UNL1        0.0800
      2  C          4.6250    1.1340    1.7350 C.2     1  UNL1        0.1300
      3  C          4.9540    2.1120    0.6640 C.3     1  UNL1        0.0870
      4  O          3.6290    1.3500    2.4080 O.2     1  UNL1       -0.3000
      5  C          6.9050    0.1720    1.5560 C.3     1  UNL1        0.0430
      6  C          7.3200   -0.7600    0.4930 C.2     1  UNL1       -0.0440
      7  C          7.1850   -0.4350   -0.8610 C.2     1  UNL1        0.0080
      8  C          7.8560   -1.9830    0.8290 C.2     1  UNL1        0.0540
      9  C          7.5930   -1.3500   -1.8150 C.2     1  UNL1        0.0510
     10  C          8.2670   -2.9040   -0.1390 C.2     1  UNL1        0.1660
     11  C          8.1340   -2.5850   -1.4720 C.2     1  UNL1        0.1650
     12  O          8.8200   -4.1650   -0.0620 O.2     1  UNL1       -0.4540
     13  O          8.6140   -3.6670   -2.1930 O.2     1  UNL1       -0.4540
     14  C          9.1420   -4.6530   -1.3380 C.3     1  UNL1        0.4680
@<TRIPOS>BOND
     1    13    11    1
     2    13    14    1
     3     9    11    2
     4     9     7    1
     5    11    10    1
     6    14    12    1
     7     7     6    2
     8    10    12    1
     9    10     8    2
    10     6     8    1
    11     6     5    1
    12     3     2    1
    13     5     1    1
    14     2     1    1
    15     2     4    2
