MODEL 1
REMARK VINA RESULT:      -7.6      0.000      0.000
REMARK SMILES CC(=O)CCc1ccc2c(c1)OCO2
REMARK SMILES IDX 4 1 2 2 1 3 3 4 5 5 6 6 7 7 11 8 8 9 10 10 9 11 12 12 14 13
REMARK SMILES IDX 13 14
REMARK H PARENT
REMARK Flexibility Score: inf
ROOT
ATOM      1  C   UNL     1       5.533   1.926   1.256  1.00  0.00     0.080 C 
ENDROOT
BRANCH   1   2
ATOM      2  C   UNL     1       5.106   0.711   2.005  1.00  0.00     0.130 C 
ATOM      3  C   UNL     1       6.012  -0.456   2.181  1.00  0.00     0.087 C 
ATOM      4  O   UNL     1       3.993   0.637   2.498  1.00  0.00    -0.300 OA
ENDBRANCH   1   2
BRANCH   1   5
ATOM      5  C   UNL     1       5.397   1.726  -0.240  1.00  0.00     0.043 C 
BRANCH   5   6
ATOM      6  C   UNL     1       6.565   1.028  -0.807  1.00  0.00    -0.044 A 
ATOM      7  C   UNL     1       7.871   1.467  -0.561  1.00  0.00     0.008 A 
ATOM      8  C   UNL     1       6.379  -0.084  -1.595  1.00  0.00     0.054 A 
ATOM      9  C   UNL     1       8.929   0.771  -1.118  1.00  0.00     0.051 A 
ATOM     10  C   UNL     1       7.451  -0.785  -2.156  1.00  0.00     0.166 A 
ATOM     11  C   UNL     1       8.737  -0.353  -1.916  1.00  0.00     0.165 A 
ATOM     12  O   UNL     1       7.526  -1.900  -2.962  1.00  0.00    -0.454 OA
ATOM     13  O   UNL     1       9.583  -1.223  -2.586  1.00  0.00    -0.454 OA
ATOM     14  C   UNL     1       8.862  -2.271  -3.187  1.00  0.00     0.468 C 
ENDBRANCH   5   6
ENDBRANCH   1   5
TORSDOF 3
ENDMDL
MODEL 2
REMARK VINA RESULT:      -7.4      1.960      2.429
REMARK SMILES CC(=O)CCc1ccc2c(c1)OCO2
REMARK SMILES IDX 4 1 2 2 1 3 3 4 5 5 6 6 7 7 11 8 8 9 10 10 9 11 12 12 14 13
REMARK SMILES IDX 13 14
REMARK H PARENT
REMARK Flexibility Score: inf
ROOT
ATOM      1  C   UNL     1       5.765   1.192  -0.314  1.00  0.00     0.080 C 
ENDROOT
BRANCH   1   2
ATOM      2  C   UNL     1       5.179   1.204   1.056  1.00  0.00     0.130 C 
ATOM      3  C   UNL     1       5.388   0.077   2.004  1.00  0.00     0.087 C 
ATOM      4  O   UNL     1       4.506   2.146   1.441  1.00  0.00    -0.300 OA
ENDBRANCH   1   2
BRANCH   1   5
ATOM      5  C   UNL     1       7.268   1.003  -0.268  1.00  0.00     0.043 C 
BRANCH   5   6
ATOM      6  C   UNL     1       7.678  -0.275  -0.876  1.00  0.00    -0.044 A 
ATOM      7  C   UNL     1       7.844  -0.408  -2.259  1.00  0.00     0.008 A 
ATOM      8  C   UNL     1       7.906  -1.370  -0.074  1.00  0.00     0.054 A 
ATOM      9  C   UNL     1       8.231  -1.633  -2.774  1.00  0.00     0.051 A 
ATOM     10  C   UNL     1       8.298  -2.605  -0.599  1.00  0.00     0.166 A 
ATOM     11  C   UNL     1       8.461  -2.738  -1.960  1.00  0.00     0.165 A 
ATOM     12  O   UNL     1       8.581  -3.825  -0.021  1.00  0.00    -0.454 OA
ATOM     13  O   UNL     1       8.846  -4.049  -2.192  1.00  0.00    -0.454 OA
ATOM     14  C   UNL     1       9.022  -4.748  -0.983  1.00  0.00     0.468 C 
ENDBRANCH   5   6
ENDBRANCH   1   5
TORSDOF 3
ENDMDL
MODEL 3
REMARK VINA RESULT:      -7.2      2.087      2.623
REMARK SMILES CC(=O)CCc1ccc2c(c1)OCO2
REMARK SMILES IDX 4 1 2 2 1 3 3 4 5 5 6 6 7 7 11 8 8 9 10 10 9 11 12 12 14 13
REMARK SMILES IDX 13 14
REMARK H PARENT
REMARK Flexibility Score: inf
ROOT
ATOM      1  C   UNL     1       5.538   0.024   1.961  1.00  0.00     0.080 C 
ENDROOT
BRANCH   1   2
ATOM      2  C   UNL     1       4.654   1.181   1.651  1.00  0.00     0.130 C 
ATOM      3  C   UNL     1       4.961   2.124   0.542  1.00  0.00     0.087 C 
ATOM      4  O   UNL     1       3.644   1.391   2.303  1.00  0.00    -0.300 OA
ENDBRANCH   1   2
BRANCH   1   5
ATOM      5  C   UNL     1       6.959   0.277   1.497  1.00  0.00     0.043 C 
BRANCH   5   6
ATOM      6  C   UNL     1       7.373  -0.682   0.457  1.00  0.00    -0.044 A 
ATOM      7  C   UNL     1       7.293  -0.367  -0.904  1.00  0.00     0.008 A 
ATOM      8  C   UNL     1       7.854  -1.919   0.822  1.00  0.00     0.054 A 
ATOM      9  C   UNL     1       7.697  -1.307  -1.835  1.00  0.00     0.051 A 
ATOM     10  C   UNL     1       8.261  -2.865  -0.123  1.00  0.00     0.166 A 
ATOM     11  C   UNL     1       8.182  -2.557  -1.463  1.00  0.00     0.165 A 
ATOM     12  O   UNL     1       8.766  -4.144  -0.015  1.00  0.00    -0.454 OA
ATOM     13  O   UNL     1       8.645  -3.663  -2.157  1.00  0.00    -0.454 OA
ATOM     14  C   UNL     1       9.111  -4.658  -1.276  1.00  0.00     0.468 C 
ENDBRANCH   5   6
ENDBRANCH   1   5
TORSDOF 3
ENDMDL
MODEL 4
REMARK VINA RESULT:      -7.1      1.269      1.482
REMARK SMILES CC(=O)CCc1ccc2c(c1)OCO2
REMARK SMILES IDX 4 1 2 2 1 3 3 4 5 5 6 6 7 7 11 8 8 9 10 10 9 11 12 12 14 13
REMARK SMILES IDX 13 14
REMARK H PARENT
REMARK Flexibility Score: inf
ROOT
ATOM      1  C   UNL     1       6.392   1.169   0.963  1.00  0.00     0.080 C 
ENDROOT
BRANCH   1   2
ATOM      2  C   UNL     1       5.645   0.343   1.952  1.00  0.00     0.130 C 
ATOM      3  C   UNL     1       6.234  -0.886   2.547  1.00  0.00     0.087 C 
ATOM      4  O   UNL     1       4.518   0.654   2.304  1.00  0.00    -0.300 OA
ENDBRANCH   1   2
BRANCH   1   5
ATOM      5  C   UNL     1       5.893   0.926  -0.447  1.00  0.00     0.043 C 
BRANCH   5   6
ATOM      6  C   UNL     1       6.830   0.093  -1.223  1.00  0.00    -0.044 A 
ATOM      7  C   UNL     1       7.494   0.592  -2.349  1.00  0.00     0.008 A 
ATOM      8  C   UNL     1       7.066  -1.207  -0.838  1.00  0.00     0.054 A 
ATOM      9  C   UNL     1       8.363  -0.235  -3.037  1.00  0.00     0.051 A 
ATOM     10  C   UNL     1       7.946  -2.039  -1.536  1.00  0.00     0.166 A 
ATOM     11  C   UNL     1       8.599  -1.549  -2.645  1.00  0.00     0.165 A 
ATOM     12  O   UNL     1       8.344  -3.347  -1.358  1.00  0.00    -0.454 OA
ATOM     13  O   UNL     1       9.394  -2.577  -3.129  1.00  0.00    -0.454 OA
ATOM     14  C   UNL     1       9.331  -3.706  -2.290  1.00  0.00     0.468 C 
ENDBRANCH   5   6
ENDBRANCH   1   5
TORSDOF 3
ENDMDL
MODEL 5
REMARK VINA RESULT:      -6.7      1.184      5.163
REMARK SMILES CC(=O)CCc1ccc2c(c1)OCO2
REMARK SMILES IDX 4 1 2 2 1 3 3 4 5 5 6 6 7 7 11 8 8 9 10 10 9 11 12 12 14 13
REMARK SMILES IDX 13 14
REMARK H PARENT
REMARK Flexibility Score: inf
ROOT
ATOM      1  C   UNL     1       8.327   0.193  -2.699  1.00  0.00     0.080 C 
ENDROOT
BRANCH   1   2
ATOM      2  C   UNL     1       8.045  -1.269  -2.757  1.00  0.00     0.130 C 
ATOM      3  C   UNL     1       9.126  -2.265  -2.984  1.00  0.00     0.087 C 
ATOM      4  O   UNL     1       6.909  -1.694  -2.619  1.00  0.00    -0.300 OA
ENDBRANCH   1   2
BRANCH   1   5
ATOM      5  C   UNL     1       8.852   0.599  -1.337  1.00  0.00     0.043 C 
BRANCH   5   6
ATOM      6  C   UNL     1       7.824   0.453  -0.290  1.00  0.00    -0.044 A 
ATOM      7  C   UNL     1       7.939  -0.508   0.721  1.00  0.00     0.008 A 
ATOM      8  C   UNL     1       6.723   1.279  -0.296  1.00  0.00     0.054 A 
ATOM      9  C   UNL     1       6.944  -0.597   1.677  1.00  0.00     0.051 A 
ATOM     10  C   UNL     1       5.720   1.185   0.674  1.00  0.00     0.166 A 
ATOM     11  C   UNL     1       5.831   0.239   1.668  1.00  0.00     0.165 A 
ATOM     12  O   UNL     1       4.547   1.878   0.882  1.00  0.00    -0.454 OA
ATOM     13  O   UNL     1       4.713   0.372   2.476  1.00  0.00    -0.454 OA
ATOM     14  C   UNL     1       3.917   1.459   2.066  1.00  0.00     0.468 C 
ENDBRANCH   5   6
ENDBRANCH   1   5
TORSDOF 3
ENDMDL
