@<TRIPOS>MOLECULE
/home/cewinharhar/GITHUB/reincatalyze/data/processed/docking_pred/2023-May-24-1506_sub9_nm5_bs15_s42_ex16_mel10_mts10000_k50_ec02_g099_lra3e-4_lrc3e-3/551c5941f3bf749be32b1159c48b101be233bdbe_ligand_9.pdbqt
 14 15 0 0 0
SMALL
GASTEIGER

@<TRIPOS>ATOM
      1  C          8.3270    0.1930   -2.6990 C.3     1  UNL1        0.0800
      2  C          8.0450   -1.2690   -2.7570 C.2     1  UNL1        0.1300
      3  C          9.1260   -2.2650   -2.9840 C.3     1  UNL1        0.0870
      4  O          6.9090   -1.6940   -2.6190 O.2     1  UNL1       -0.3000
      5  C          8.8520    0.5990   -1.3370 C.3     1  UNL1        0.0430
      6  C          7.8240    0.4530   -0.2900 C.2     1  UNL1       -0.0440
      7  C          7.9390   -0.5080    0.7210 C.2     1  UNL1        0.0080
      8  C          6.7230    1.2790   -0.2960 C.2     1  UNL1        0.0540
      9  C          6.9440   -0.5970    1.6770 C.2     1  UNL1        0.0510
     10  C          5.7200    1.1850    0.6740 C.2     1  UNL1        0.1660
     11  C          5.8310    0.2390    1.6680 C.2     1  UNL1        0.1650
     12  O          4.5470    1.8780    0.8820 O.2     1  UNL1       -0.4540
     13  O          4.7130    0.3720    2.4760 O.2     1  UNL1       -0.4540
     14  C          3.9170    1.4590    2.0660 C.3     1  UNL1        0.4680
@<TRIPOS>BOND
     1     3     2    1
     2     2     1    1
     3     2     4    2
     4     1     5    1
     5     5     6    1
     6     8     6    2
     7     8    10    1
     8     6     7    1
     9    10    12    1
    10    10    11    2
    11     7     9    2
    12    12    14    1
    13    11     9    1
    14    11    13    1
    15    14    13    1
