@<TRIPOS>MOLECULE
/home/cewinharhar/GITHUB/reincatalyze/data/processed/docking_pred/2023-May-24-1506_sub9_nm5_bs15_s42_ex16_mel10_mts10000_k50_ec02_g099_lra3e-4_lrc3e-3/55f9a48c22e019202c812c896c561d7470c53219_ligand_9.pdbqt
 14 15 0 0 0
SMALL
GASTEIGER

@<TRIPOS>ATOM
      1  C          5.7340    1.2010   -0.3320 C.3     1  UNL1        0.0800
      2  C          5.2500    1.1600    1.0760 C.2     1  UNL1        0.1300
      3  C          5.3330   -0.0790    1.8940 C.3     1  UNL1        0.0870
      4  O          4.7670    2.1490    1.6020 O.2     1  UNL1       -0.3000
      5  C          7.2430    1.0750   -0.3990 C.3     1  UNL1        0.0430
      6  C          7.6590   -0.2200   -0.9660 C.2     1  UNL1       -0.0440
      7  C          7.8380   -0.3940   -2.3430 C.2     1  UNL1        0.0080
      8  C          7.8810   -1.2910   -0.1300 C.2     1  UNL1        0.0540
      9  C          8.2300   -1.6330   -2.8180 C.2     1  UNL1        0.0510
     10  C          8.2780   -2.5410   -0.6150 C.2     1  UNL1        0.1660
     11  C          8.4530   -2.7130   -1.9700 C.2     1  UNL1        0.1650
     12  O          8.5570   -3.7420    0.0010 O.2     1  UNL1       -0.4540
     13  O          8.8410   -4.0300   -2.1600 O.2     1  UNL1       -0.4540
     14  C          9.0070   -4.6930   -0.9290 C.3     1  UNL1        0.4680
@<TRIPOS>BOND
     1     9     7    1
     2     9    11    2
     3     7     6    2
     4    13    11    1
     5    13    14    1
     6    11    10    1
     7     6     5    1
     8     6     8    1
     9    14    12    1
    10    10     8    2
    11    10    12    1
    12     5     1    1
    13     1     2    1
    14     2     4    2
    15     2     3    1
