@<TRIPOS>MOLECULE
/home/cewinharhar/GITHUB/reincatalyze/data/processed/docking_pred/2023-May-24-1506_sub9_nm5_bs15_s42_ex16_mel10_mts10000_k50_ec02_g099_lra3e-4_lrc3e-3/55f9a48c22e019202c812c896c561d7470c53219_ligand_9.pdbqt
 14 15 0 0 0
SMALL
GASTEIGER

@<TRIPOS>ATOM
      1  C          5.5290    1.9170    1.2730 C.3     1  UNL1        0.0800
      2  C          5.0850    0.7010    2.0090 C.2     1  UNL1        0.1300
      3  C          5.9770   -0.4770    2.1800 C.3     1  UNL1        0.0870
      4  O          3.9670    0.6360    2.4950 O.2     1  UNL1       -0.3000
      5  C          5.4010    1.7310   -0.2260 C.3     1  UNL1        0.0430
      6  C          6.5670    1.0280   -0.7910 C.2     1  UNL1       -0.0440
      7  C          7.8750    1.4610   -0.5450 C.2     1  UNL1        0.0080
      8  C          6.3760   -0.0850   -1.5780 C.2     1  UNL1        0.0540
      9  C          8.9290    0.7600   -1.1010 C.2     1  UNL1        0.0510
     10  C          7.4450   -0.7900   -2.1380 C.2     1  UNL1        0.1660
     11  C          8.7330   -0.3640   -1.8970 C.2     1  UNL1        0.1650
     12  O          7.5160   -1.9070   -2.9430 O.2     1  UNL1       -0.4540
     13  O          9.5760   -1.2380   -2.5660 O.2     1  UNL1       -0.4540
     14  C          8.8500   -2.2840   -3.1670 C.3     1  UNL1        0.4680
@<TRIPOS>BOND
     1    14    12    1
     2    14    13    1
     3    12    10    1
     4    13    11    1
     5    10    11    2
     6    10     8    1
     7    11     9    1
     8     8     6    2
     9     9     7    2
    10     6     7    1
    11     6     5    1
    12     5     1    1
    13     1     2    1
    14     2     3    1
    15     2     4    2
