MODEL 1
REMARK VINA RESULT:      -7.6      0.000      0.000
REMARK SMILES CC(=O)CCc1ccc2c(c1)OCO2
REMARK SMILES IDX 4 1 2 2 1 3 3 4 5 5 6 6 7 7 11 8 8 9 10 10 9 11 12 12 14 13
REMARK SMILES IDX 13 14
REMARK H PARENT
REMARK Flexibility Score: inf
ROOT
ATOM      1  C   UNL     1       5.529   1.917   1.273  1.00  0.00     0.080 C 
ENDROOT
BRANCH   1   2
ATOM      2  C   UNL     1       5.085   0.701   2.009  1.00  0.00     0.130 C 
ATOM      3  C   UNL     1       5.977  -0.477   2.180  1.00  0.00     0.087 C 
ATOM      4  O   UNL     1       3.967   0.636   2.495  1.00  0.00    -0.300 OA
ENDBRANCH   1   2
BRANCH   1   5
ATOM      5  C   UNL     1       5.401   1.731  -0.226  1.00  0.00     0.043 C 
BRANCH   5   6
ATOM      6  C   UNL     1       6.567   1.028  -0.791  1.00  0.00    -0.044 A 
ATOM      7  C   UNL     1       7.875   1.461  -0.545  1.00  0.00     0.008 A 
ATOM      8  C   UNL     1       6.376  -0.085  -1.578  1.00  0.00     0.054 A 
ATOM      9  C   UNL     1       8.929   0.760  -1.101  1.00  0.00     0.051 A 
ATOM     10  C   UNL     1       7.445  -0.790  -2.138  1.00  0.00     0.166 A 
ATOM     11  C   UNL     1       8.733  -0.364  -1.897  1.00  0.00     0.165 A 
ATOM     12  O   UNL     1       7.516  -1.907  -2.943  1.00  0.00    -0.454 OA
ATOM     13  O   UNL     1       9.576  -1.238  -2.566  1.00  0.00    -0.454 OA
ATOM     14  C   UNL     1       8.850  -2.284  -3.167  1.00  0.00     0.468 C 
ENDBRANCH   5   6
ENDBRANCH   1   5
TORSDOF 3
ENDMDL
MODEL 2
REMARK VINA RESULT:      -7.4      1.931      2.406
REMARK SMILES CC(=O)CCc1ccc2c(c1)OCO2
REMARK SMILES IDX 4 1 2 2 1 3 3 4 5 5 6 6 7 7 11 8 8 9 10 10 9 11 12 12 14 13
REMARK SMILES IDX 13 14
REMARK H PARENT
REMARK Flexibility Score: inf
ROOT
ATOM      1  C   UNL     1       5.734   1.201  -0.332  1.00  0.00     0.080 C 
ENDROOT
BRANCH   1   2
ATOM      2  C   UNL     1       5.250   1.160   1.076  1.00  0.00     0.130 C 
ATOM      3  C   UNL     1       5.333  -0.079   1.894  1.00  0.00     0.087 C 
ATOM      4  O   UNL     1       4.767   2.149   1.602  1.00  0.00    -0.300 OA
ENDBRANCH   1   2
BRANCH   1   5
ATOM      5  C   UNL     1       7.243   1.075  -0.399  1.00  0.00     0.043 C 
BRANCH   5   6
ATOM      6  C   UNL     1       7.659  -0.220  -0.966  1.00  0.00    -0.044 A 
ATOM      7  C   UNL     1       7.838  -0.394  -2.343  1.00  0.00     0.008 A 
ATOM      8  C   UNL     1       7.881  -1.291  -0.130  1.00  0.00     0.054 A 
ATOM      9  C   UNL     1       8.230  -1.633  -2.818  1.00  0.00     0.051 A 
ATOM     10  C   UNL     1       8.278  -2.541  -0.615  1.00  0.00     0.166 A 
ATOM     11  C   UNL     1       8.453  -2.713  -1.970  1.00  0.00     0.165 A 
ATOM     12  O   UNL     1       8.557  -3.742   0.001  1.00  0.00    -0.454 OA
ATOM     13  O   UNL     1       8.841  -4.030  -2.160  1.00  0.00    -0.454 OA
ATOM     14  C   UNL     1       9.007  -4.693  -0.929  1.00  0.00     0.468 C 
ENDBRANCH   5   6
ENDBRANCH   1   5
TORSDOF 3
ENDMDL
MODEL 3
REMARK VINA RESULT:      -7.2      2.053      2.604
REMARK SMILES CC(=O)CCc1ccc2c(c1)OCO2
REMARK SMILES IDX 4 1 2 2 1 3 3 4 5 5 6 6 7 7 11 8 8 9 10 10 9 11 12 12 14 13
REMARK SMILES IDX 13 14
REMARK H PARENT
REMARK Flexibility Score: inf
ROOT
ATOM      1  C   UNL     1       5.487   0.011   2.022  1.00  0.00     0.080 C 
ENDROOT
BRANCH   1   2
ATOM      2  C   UNL     1       4.589   1.163   1.731  1.00  0.00     0.130 C 
ATOM      3  C   UNL     1       4.875   2.117   0.626  1.00  0.00     0.087 C 
ATOM      4  O   UNL     1       3.585   1.358   2.397  1.00  0.00    -0.300 OA
ENDBRANCH   1   2
BRANCH   1   5
ATOM      5  C   UNL     1       6.899   0.279   1.540  1.00  0.00     0.043 C 
BRANCH   5   6
ATOM      6  C   UNL     1       7.308  -0.671   0.490  1.00  0.00    -0.044 A 
ATOM      7  C   UNL     1       7.171  -0.365  -0.869  1.00  0.00     0.008 A 
ATOM      8  C   UNL     1       7.840  -1.890   0.843  1.00  0.00     0.054 A 
ATOM      9  C   UNL     1       7.573  -1.295  -1.810  1.00  0.00     0.051 A 
ATOM     10  C   UNL     1       8.245  -2.827  -0.113  1.00  0.00     0.166 A 
ATOM     11  C   UNL     1       8.110  -2.527  -1.450  1.00  0.00     0.165 A 
ATOM     12  O   UNL     1       8.794  -4.088  -0.018  1.00  0.00    -0.454 OA
ATOM     13  O   UNL     1       8.584  -3.622  -2.156  1.00  0.00    -0.454 OA
ATOM     14  C   UNL     1       9.111  -4.597  -1.288  1.00  0.00     0.468 C 
ENDBRANCH   5   6
ENDBRANCH   1   5
TORSDOF 3
ENDMDL
MODEL 4
REMARK VINA RESULT:      -7.1      1.259      1.472
REMARK SMILES CC(=O)CCc1ccc2c(c1)OCO2
REMARK SMILES IDX 4 1 2 2 1 3 3 4 5 5 6 6 7 7 11 8 8 9 10 10 9 11 12 12 14 13
REMARK SMILES IDX 13 14
REMARK H PARENT
REMARK Flexibility Score: inf
ROOT
ATOM      1  C   UNL     1       6.381   1.174   0.962  1.00  0.00     0.080 C 
ENDROOT
BRANCH   1   2
ATOM      2  C   UNL     1       5.640   0.351   1.958  1.00  0.00     0.130 C 
ATOM      3  C   UNL     1       6.232  -0.876   2.553  1.00  0.00     0.087 C 
ATOM      4  O   UNL     1       4.515   0.663   2.316  1.00  0.00    -0.300 OA
ENDBRANCH   1   2
BRANCH   1   5
ATOM      5  C   UNL     1       5.875   0.924  -0.444  1.00  0.00     0.043 C 
BRANCH   5   6
ATOM      6  C   UNL     1       6.814   0.098  -1.224  1.00  0.00    -0.044 A 
ATOM      7  C   UNL     1       7.473   0.603  -2.351  1.00  0.00     0.008 A 
ATOM      8  C   UNL     1       7.058  -1.202  -0.843  1.00  0.00     0.054 A 
ATOM      9  C   UNL     1       8.344  -0.218  -3.043  1.00  0.00     0.051 A 
ATOM     10  C   UNL     1       7.940  -2.028  -1.546  1.00  0.00     0.166 A 
ATOM     11  C   UNL     1       8.588  -1.532  -2.656  1.00  0.00     0.165 A 
ATOM     12  O   UNL     1       8.344  -3.334  -1.372  1.00  0.00    -0.454 OA
ATOM     13  O   UNL     1       9.386  -2.555  -3.144  1.00  0.00    -0.454 OA
ATOM     14  C   UNL     1       9.331  -3.686  -2.308  1.00  0.00     0.468 C 
ENDBRANCH   5   6
ENDBRANCH   1   5
TORSDOF 3
ENDMDL
MODEL 5
REMARK VINA RESULT:      -6.8      1.180      5.175
REMARK SMILES CC(=O)CCc1ccc2c(c1)OCO2
REMARK SMILES IDX 4 1 2 2 1 3 3 4 5 5 6 6 7 7 11 8 8 9 10 10 9 11 12 12 14 13
REMARK SMILES IDX 13 14
REMARK H PARENT
REMARK Flexibility Score: inf
ROOT
ATOM      1  C   UNL     1       8.357   0.207  -2.611  1.00  0.00     0.080 C 
ENDROOT
BRANCH   1   2
ATOM      2  C   UNL     1       8.054  -1.247  -2.725  1.00  0.00     0.130 C 
ATOM      3  C   UNL     1       9.117  -2.246  -3.017  1.00  0.00     0.087 C 
ATOM      4  O   UNL     1       6.916  -1.663  -2.582  1.00  0.00    -0.300 OA
ENDBRANCH   1   2
BRANCH   1   5
ATOM      5  C   UNL     1       8.871   0.555  -1.228  1.00  0.00     0.043 C 
BRANCH   5   6
ATOM      6  C   UNL     1       7.819   0.417  -0.204  1.00  0.00    -0.044 A 
ATOM      7  C   UNL     1       7.902  -0.548   0.806  1.00  0.00     0.008 A 
ATOM      8  C   UNL     1       6.727   1.255  -0.232  1.00  0.00     0.054 A 
ATOM      9  C   UNL     1       6.885  -0.629   1.740  1.00  0.00     0.051 A 
ATOM     10  C   UNL     1       5.703   1.168   0.716  1.00  0.00     0.166 A 
ATOM     11  C   UNL     1       5.782   0.218   1.709  1.00  0.00     0.165 A 
ATOM     12  O   UNL     1       4.532   1.873   0.900  1.00  0.00    -0.454 OA
ATOM     13  O   UNL     1       4.647   0.362   2.493  1.00  0.00    -0.454 OA
ATOM     14  C   UNL     1       3.872   1.458   2.069  1.00  0.00     0.468 C 
ENDBRANCH   5   6
ENDBRANCH   1   5
TORSDOF 3
ENDMDL
