@<TRIPOS>MOLECULE
/home/cewinharhar/GITHUB/reincatalyze/data/processed/docking_pred/2023-May-24-1506_sub9_nm5_bs15_s42_ex16_mel10_mts10000_k50_ec02_g099_lra3e-4_lrc3e-3/55f9a48c22e019202c812c896c561d7470c53219_ligand_9.pdbqt
 14 15 0 0 0
SMALL
GASTEIGER

@<TRIPOS>ATOM
      1  C          8.3570    0.2070   -2.6110 C.3     1  UNL1        0.0800
      2  C          8.0540   -1.2470   -2.7250 C.2     1  UNL1        0.1300
      3  C          9.1170   -2.2460   -3.0170 C.3     1  UNL1        0.0870
      4  O          6.9160   -1.6630   -2.5820 O.2     1  UNL1       -0.3000
      5  C          8.8710    0.5550   -1.2280 C.3     1  UNL1        0.0430
      6  C          7.8190    0.4170   -0.2040 C.2     1  UNL1       -0.0440
      7  C          7.9020   -0.5480    0.8060 C.2     1  UNL1        0.0080
      8  C          6.7270    1.2550   -0.2320 C.2     1  UNL1        0.0540
      9  C          6.8850   -0.6290    1.7400 C.2     1  UNL1        0.0510
     10  C          5.7030    1.1680    0.7160 C.2     1  UNL1        0.1660
     11  C          5.7820    0.2180    1.7090 C.2     1  UNL1        0.1650
     12  O          4.5320    1.8730    0.9000 O.2     1  UNL1       -0.4540
     13  O          4.6470    0.3620    2.4930 O.2     1  UNL1       -0.4540
     14  C          3.8720    1.4580    2.0690 C.3     1  UNL1        0.4680
@<TRIPOS>BOND
     1     3     2    1
     2     2     1    1
     3     2     4    2
     4     1     5    1
     5     5     6    1
     6     8     6    2
     7     8    10    1
     8     6     7    1
     9    10    12    1
    10    10    11    2
    11     7     9    2
    12    12    14    1
    13    11     9    1
    14    11    13    1
    15    14    13    1
