@<TRIPOS>MOLECULE
/home/cewinharhar/GITHUB/reincatalyze/data/processed/docking_pred/2023-May-24-1506_sub9_nm5_bs15_s42_ex16_mel10_mts10000_k50_ec02_g099_lra3e-4_lrc3e-3/57f45ec83c8c38489066d898ddae0638f0802b8b_ligand_9.pdbqt
 14 15 0 0 0
SMALL
GASTEIGER

@<TRIPOS>ATOM
      1  C          5.4160   -0.0540    2.0290 C.3     1  UNL1        0.0800
      2  C          4.5660    1.1420    1.7690 C.2     1  UNL1        0.1300
      3  C          4.9070    2.1260    0.7080 C.3     1  UNL1        0.0870
      4  O          3.5580    1.3490    2.4260 O.2     1  UNL1       -0.3000
      5  C          6.8540    0.1930    1.6150 C.3     1  UNL1        0.0430
      6  C          7.2810   -0.7300    0.5490 C.2     1  UNL1       -0.0440
      7  C          7.1580   -0.3940   -0.8040 C.2     1  UNL1        0.0080
      8  C          7.8170   -1.9540    0.8800 C.2     1  UNL1        0.0540
      9  C          7.5760   -1.3000   -1.7620 C.2     1  UNL1        0.0510
     10  C          8.2400   -2.8660   -0.0920 C.2     1  UNL1        0.1660
     11  C          8.1180   -2.5370   -1.4230 C.2     1  UNL1        0.1650
     12  O          8.7960   -4.1250   -0.0200 O.2     1  UNL1       -0.4540
     13  O          8.6080   -3.6110   -2.1490 O.2     1  UNL1       -0.4540
     14  C          9.1320   -4.6020   -1.2970 C.3     1  UNL1        0.4680
@<TRIPOS>BOND
     1    13    11    1
     2    13    14    1
     3     9    11    2
     4     9     7    1
     5    11    10    1
     6    14    12    1
     7     7     6    2
     8    10    12    1
     9    10     8    2
    10     6     8    1
    11     6     5    1
    12     3     2    1
    13     5     1    1
    14     2     1    1
    15     2     4    2
