MODEL 1
REMARK VINA RESULT:      -7.6      0.000      0.000
REMARK SMILES CC(=O)CCc1ccc2c(c1)OCO2
REMARK SMILES IDX 4 1 2 2 1 3 3 4 5 5 6 6 7 7 11 8 8 9 10 10 9 11 12 12 14 13
REMARK SMILES IDX 13 14
REMARK H PARENT
REMARK Flexibility Score: inf
ROOT
ATOM      1  C   UNL     1       5.566   1.880   1.306  1.00  0.00     0.080 C 
ENDROOT
BRANCH   1   2
ATOM      2  C   UNL     1       5.117   0.657   2.027  1.00  0.00     0.130 C 
ATOM      3  C   UNL     1       6.011  -0.518   2.203  1.00  0.00     0.087 C 
ATOM      4  O   UNL     1       3.993   0.584   2.497  1.00  0.00    -0.300 OA
ENDBRANCH   1   2
BRANCH   1   5
ATOM      5  C   UNL     1       5.427   1.716  -0.195  1.00  0.00     0.043 C 
BRANCH   5   6
ATOM      6  C   UNL     1       6.584   1.012  -0.777  1.00  0.00    -0.044 A 
ATOM      7  C   UNL     1       7.895   1.446  -0.553  1.00  0.00     0.008 A 
ATOM      8  C   UNL     1       6.381  -0.103  -1.558  1.00  0.00     0.054 A 
ATOM      9  C   UNL     1       8.941   0.744  -1.124  1.00  0.00     0.051 A 
ATOM     10  C   UNL     1       7.442  -0.809  -2.133  1.00  0.00     0.166 A 
ATOM     11  C   UNL     1       8.732  -0.382  -1.914  1.00  0.00     0.165 A 
ATOM     12  O   UNL     1       7.500  -1.928  -2.936  1.00  0.00    -0.454 OA
ATOM     13  O   UNL     1       9.565  -1.257  -2.594  1.00  0.00    -0.454 OA
ATOM     14  C   UNL     1       8.831  -2.305  -3.180  1.00  0.00     0.468 C 
ENDBRANCH   5   6
ENDBRANCH   1   5
TORSDOF 3
ENDMDL
MODEL 2
REMARK VINA RESULT:      -7.4      1.837      2.287
REMARK SMILES CC(=O)CCc1ccc2c(c1)OCO2
REMARK SMILES IDX 4 1 2 2 1 3 3 4 5 5 6 6 7 7 11 8 8 9 10 10 9 11 12 12 14 13
REMARK SMILES IDX 13 14
REMARK H PARENT
REMARK Flexibility Score: inf
ROOT
ATOM      1  C   UNL     1       5.688   1.426  -0.259  1.00  0.00     0.080 C 
ENDROOT
BRANCH   1   2
ATOM      2  C   UNL     1       5.060   1.267   1.083  1.00  0.00     0.130 C 
ATOM      3  C   UNL     1       5.393   0.120   1.969  1.00  0.00     0.087 C 
ATOM      4  O   UNL     1       4.249   2.080   1.495  1.00  0.00    -0.300 OA
ENDBRANCH   1   2
BRANCH   1   5
ATOM      5  C   UNL     1       7.182   1.177  -0.201  1.00  0.00     0.043 C 
BRANCH   5   6
ATOM      6  C   UNL     1       7.549  -0.095  -0.849  1.00  0.00    -0.044 A 
ATOM      7  C   UNL     1       7.565  -0.230  -2.242  1.00  0.00     0.008 A 
ATOM      8  C   UNL     1       7.890  -1.181  -0.076  1.00  0.00     0.054 A 
ATOM      9  C   UNL     1       7.919  -1.447  -2.794  1.00  0.00     0.051 A 
ATOM     10  C   UNL     1       8.248  -2.410  -0.639  1.00  0.00     0.166 A 
ATOM     11  C   UNL     1       8.262  -2.544  -2.010  1.00  0.00     0.165 A 
ATOM     12  O   UNL     1       8.620  -3.620  -0.094  1.00  0.00    -0.454 OA
ATOM     13  O   UNL     1       8.648  -3.847  -2.281  1.00  0.00    -0.454 OA
ATOM     14  C   UNL     1       8.973  -4.538  -1.098  1.00  0.00     0.468 C 
ENDBRANCH   5   6
ENDBRANCH   1   5
TORSDOF 3
ENDMDL
MODEL 3
REMARK VINA RESULT:      -7.2      2.050      2.596
REMARK SMILES CC(=O)CCc1ccc2c(c1)OCO2
REMARK SMILES IDX 4 1 2 2 1 3 3 4 5 5 6 6 7 7 11 8 8 9 10 10 9 11 12 12 14 13
REMARK SMILES IDX 13 14
REMARK H PARENT
REMARK Flexibility Score: inf
ROOT
ATOM      1  C   UNL     1       5.487   0.011   2.022  1.00  0.00     0.080 C 
ENDROOT
BRANCH   1   2
ATOM      2  C   UNL     1       4.589   1.163   1.731  1.00  0.00     0.130 C 
ATOM      3  C   UNL     1       4.875   2.117   0.626  1.00  0.00     0.087 C 
ATOM      4  O   UNL     1       3.585   1.358   2.397  1.00  0.00    -0.300 OA
ENDBRANCH   1   2
BRANCH   1   5
ATOM      5  C   UNL     1       6.899   0.279   1.540  1.00  0.00     0.043 C 
BRANCH   5   6
ATOM      6  C   UNL     1       7.308  -0.671   0.490  1.00  0.00    -0.044 A 
ATOM      7  C   UNL     1       7.171  -0.365  -0.869  1.00  0.00     0.008 A 
ATOM      8  C   UNL     1       7.840  -1.890   0.843  1.00  0.00     0.054 A 
ATOM      9  C   UNL     1       7.573  -1.295  -1.810  1.00  0.00     0.051 A 
ATOM     10  C   UNL     1       8.245  -2.827  -0.113  1.00  0.00     0.166 A 
ATOM     11  C   UNL     1       8.110  -2.527  -1.450  1.00  0.00     0.165 A 
ATOM     12  O   UNL     1       8.794  -4.088  -0.018  1.00  0.00    -0.454 OA
ATOM     13  O   UNL     1       8.584  -3.622  -2.156  1.00  0.00    -0.454 OA
ATOM     14  C   UNL     1       9.111  -4.597  -1.288  1.00  0.00     0.468 C 
ENDBRANCH   5   6
ENDBRANCH   1   5
TORSDOF 3
ENDMDL
MODEL 4
REMARK VINA RESULT:      -7.1      1.240      1.444
REMARK SMILES CC(=O)CCc1ccc2c(c1)OCO2
REMARK SMILES IDX 4 1 2 2 1 3 3 4 5 5 6 6 7 7 11 8 8 9 10 10 9 11 12 12 14 13
REMARK SMILES IDX 13 14
REMARK H PARENT
REMARK Flexibility Score: inf
ROOT
ATOM      1  C   UNL     1       6.378   1.179   0.934  1.00  0.00     0.080 C 
ENDROOT
BRANCH   1   2
ATOM      2  C   UNL     1       5.656   0.361   1.948  1.00  0.00     0.130 C 
ATOM      3  C   UNL     1       6.254  -0.873   2.524  1.00  0.00     0.087 C 
ATOM      4  O   UNL     1       4.545   0.682   2.336  1.00  0.00    -0.300 OA
ENDBRANCH   1   2
BRANCH   1   5
ATOM      5  C   UNL     1       5.867   0.898  -0.466  1.00  0.00     0.043 C 
BRANCH   5   6
ATOM      6  C   UNL     1       6.819   0.085  -1.242  1.00  0.00    -0.044 A 
ATOM      7  C   UNL     1       7.507   0.611  -2.342  1.00  0.00     0.008 A 
ATOM      8  C   UNL     1       7.047  -1.225  -0.885  1.00  0.00     0.054 A 
ATOM      9  C   UNL     1       8.389  -0.199  -3.032  1.00  0.00     0.051 A 
ATOM     10  C   UNL     1       7.940  -2.040  -1.587  1.00  0.00     0.166 A 
ATOM     11  C   UNL     1       8.617  -1.523  -2.669  1.00  0.00     0.165 A 
ATOM     12  O   UNL     1       8.334  -3.353  -1.433  1.00  0.00    -0.454 OA
ATOM     13  O   UNL     1       9.420  -2.539  -3.162  1.00  0.00    -0.454 OA
ATOM     14  C   UNL     1       9.340  -3.688  -2.353  1.00  0.00     0.468 C 
ENDBRANCH   5   6
ENDBRANCH   1   5
TORSDOF 3
ENDMDL
MODEL 5
REMARK VINA RESULT:      -6.8      1.248      1.738
REMARK SMILES CC(=O)CCc1ccc2c(c1)OCO2
REMARK SMILES IDX 4 1 2 2 1 3 3 4 5 5 6 6 7 7 11 8 8 9 10 10 9 11 12 12 14 13
REMARK SMILES IDX 13 14
REMARK H PARENT
REMARK Flexibility Score: inf
ROOT
ATOM      1  C   UNL     1       5.344  -0.077   1.979  1.00  0.00     0.080 C 
ENDROOT
BRANCH   1   2
ATOM      2  C   UNL     1       4.466   1.109   1.777  1.00  0.00     0.130 C 
ATOM      3  C   UNL     1       4.764   2.134   0.741  1.00  0.00     0.087 C 
ATOM      4  O   UNL     1       3.469   1.275   2.462  1.00  0.00    -0.300 OA
ENDBRANCH   1   2
BRANCH   1   5
ATOM      5  C   UNL     1       6.809   0.305   1.912  1.00  0.00     0.043 C 
BRANCH   5   6
ATOM      6  C   UNL     1       7.405  -0.040   0.609  1.00  0.00    -0.044 A 
ATOM      7  C   UNL     1       7.896   0.945  -0.256  1.00  0.00     0.008 A 
ATOM      8  C   UNL     1       7.489  -1.359   0.225  1.00  0.00     0.054 A 
ATOM      9  C   UNL     1       8.445   0.561  -1.466  1.00  0.00     0.051 A 
ATOM     10  C   UNL     1       8.047  -1.742  -0.999  1.00  0.00     0.166 A 
ATOM     11  C   UNL     1       8.528  -0.773  -1.851  1.00  0.00     0.165 A 
ATOM     12  O   UNL     1       8.241  -2.966  -1.601  1.00  0.00    -0.454 OA
ATOM     13  O   UNL     1       9.015  -1.431  -2.970  1.00  0.00    -0.454 OA
ATOM     14  C   UNL     1       8.935  -2.827  -2.814  1.00  0.00     0.468 C 
ENDBRANCH   5   6
ENDBRANCH   1   5
TORSDOF 3
ENDMDL
