@<TRIPOS>MOLECULE
/home/cewinharhar/GITHUB/reincatalyze/data/processed/docking_pred/2023-May-24-1506_sub9_nm5_bs15_s42_ex16_mel10_mts10000_k50_ec02_g099_lra3e-4_lrc3e-3/5b0b3c1ad7e51cc604e9d3ba3e9be04905eaec91_ligand_9.pdbqt
 14 15 0 0 0
SMALL
GASTEIGER

@<TRIPOS>ATOM
      1  C          5.4870    0.0110    2.0220 C.3     1  UNL1        0.0800
      2  C          4.5890    1.1630    1.7310 C.2     1  UNL1        0.1300
      3  C          4.8750    2.1170    0.6260 C.3     1  UNL1        0.0870
      4  O          3.5850    1.3580    2.3970 O.2     1  UNL1       -0.3000
      5  C          6.8990    0.2790    1.5400 C.3     1  UNL1        0.0430
      6  C          7.3080   -0.6710    0.4900 C.2     1  UNL1       -0.0440
      7  C          7.1710   -0.3650   -0.8690 C.2     1  UNL1        0.0080
      8  C          7.8400   -1.8900    0.8430 C.2     1  UNL1        0.0540
      9  C          7.5730   -1.2950   -1.8100 C.2     1  UNL1        0.0510
     10  C          8.2450   -2.8270   -0.1130 C.2     1  UNL1        0.1660
     11  C          8.1100   -2.5270   -1.4500 C.2     1  UNL1        0.1650
     12  O          8.7940   -4.0880   -0.0180 O.2     1  UNL1       -0.4540
     13  O          8.5840   -3.6220   -2.1560 O.2     1  UNL1       -0.4540
     14  C          9.1110   -4.5970   -1.2880 C.3     1  UNL1        0.4680
@<TRIPOS>BOND
     1    13    11    1
     2    13    14    1
     3     9    11    2
     4     9     7    1
     5    11    10    1
     6    14    12    1
     7     7     6    2
     8    10    12    1
     9    10     8    2
    10     6     8    1
    11     6     5    1
    12     3     2    1
    13     5     1    1
    14     2     1    1
    15     2     4    2
