@<TRIPOS>MOLECULE
/home/cewinharhar/GITHUB/reincatalyze/data/processed/docking_pred/2023-May-24-1506_sub9_nm5_bs15_s42_ex16_mel10_mts10000_k50_ec02_g099_lra3e-4_lrc3e-3/5b0b3c1ad7e51cc604e9d3ba3e9be04905eaec91_ligand_9.pdbqt
 14 15 0 0 0
SMALL
GASTEIGER

@<TRIPOS>ATOM
      1  C          5.3440   -0.0770    1.9790 C.3     1  UNL1        0.0800
      2  C          4.4660    1.1090    1.7770 C.2     1  UNL1        0.1300
      3  C          4.7640    2.1340    0.7410 C.3     1  UNL1        0.0870
      4  O          3.4690    1.2750    2.4620 O.2     1  UNL1       -0.3000
      5  C          6.8090    0.3050    1.9120 C.3     1  UNL1        0.0430
      6  C          7.4050   -0.0400    0.6090 C.2     1  UNL1       -0.0440
      7  C          7.8960    0.9450   -0.2560 C.2     1  UNL1        0.0080
      8  C          7.4890   -1.3590    0.2250 C.2     1  UNL1        0.0540
      9  C          8.4450    0.5610   -1.4660 C.2     1  UNL1        0.0510
     10  C          8.0470   -1.7420   -0.9990 C.2     1  UNL1        0.1660
     11  C          8.5280   -0.7730   -1.8510 C.2     1  UNL1        0.1650
     12  O          8.2410   -2.9660   -1.6010 O.2     1  UNL1       -0.4540
     13  O          9.0150   -1.4310   -2.9700 O.2     1  UNL1       -0.4540
     14  C          8.9350   -2.8270   -2.8140 C.3     1  UNL1        0.4680
@<TRIPOS>BOND
     1    13    14    1
     2    13    11    1
     3    14    12    1
     4    11     9    2
     5    11    10    1
     6    12    10    1
     7     9     7    1
     8    10     8    2
     9     7     6    2
    10     8     6    1
    11     6     5    1
    12     3     2    1
    13     2     1    1
    14     2     4    2
    15     5     1    1
