@<TRIPOS>MOLECULE
/home/cewinharhar/GITHUB/reincatalyze/data/processed/docking_pred/2023-May-24-1506_sub9_nm5_bs15_s42_ex16_mel10_mts10000_k50_ec02_g099_lra3e-4_lrc3e-3/5ba5439e64352188cd964ddb86dd28d806e95272_ligand_9.pdbqt
 14 15 0 0 0
SMALL
GASTEIGER

@<TRIPOS>ATOM
      1  C          5.7600    1.2180   -0.3100 C.3     1  UNL1        0.0800
      2  C          5.2350    1.2190    1.0840 C.2     1  UNL1        0.1300
      3  C          5.5020    0.0930    2.0200 C.3     1  UNL1        0.0870
      4  O          4.5650    2.1490    1.5010 O.2     1  UNL1       -0.3000
      5  C          7.2640    1.0290   -0.3310 C.3     1  UNL1        0.0430
      6  C          7.6430   -0.2690   -0.9170 C.2     1  UNL1       -0.0440
      7  C          7.6930   -0.4620   -2.3020 C.2     1  UNL1        0.0080
      8  C          7.9610   -1.3230   -0.0910 C.2     1  UNL1        0.0540
      9  C          8.0570   -1.7020   -2.7940 C.2     1  UNL1        0.0510
     10  C          8.3290   -2.5750   -0.5930 C.2     1  UNL1        0.1660
     11  C          8.3770   -2.7660   -1.9560 C.2     1  UNL1        0.1650
     12  O          8.6830   -3.7620    0.0110 O.2     1  UNL1       -0.4540
     13  O          8.7650   -4.0800   -2.1630 O.2     1  UNL1       -0.4540
     14  C          9.0580   -4.7220   -0.9440 C.3     1  UNL1        0.4680
@<TRIPOS>BOND
     1     9     7    1
     2     9    11    2
     3     7     6    2
     4    13    11    1
     5    13    14    1
     6    11    10    1
     7    14    12    1
     8     6     5    1
     9     6     8    1
    10    10     8    2
    11    10    12    1
    12     5     1    1
    13     1     2    1
    14     2     4    2
    15     2     3    1
