@<TRIPOS>MOLECULE
/home/cewinharhar/GITHUB/reincatalyze/data/processed/docking_pred/2023-May-24-1506_sub9_nm5_bs15_s42_ex16_mel10_mts10000_k50_ec02_g099_lra3e-4_lrc3e-3/5ba5439e64352188cd964ddb86dd28d806e95272_ligand_9.pdbqt
 14 15 0 0 0
SMALL
GASTEIGER

@<TRIPOS>ATOM
      1  C          6.6830    0.7100    1.4680 C.3     1  UNL1        0.0800
      2  C          5.2640    1.1600    1.4790 C.2     1  UNL1        0.1300
      3  C          4.7490    2.1460    0.4910 C.3     1  UNL1        0.0870
      4  O          4.4760    0.7300    2.3060 O.2     1  UNL1       -0.3000
      5  C          7.3310    0.9650    0.1210 C.3     1  UNL1        0.0430
      6  C          7.6280   -0.2910   -0.5900 C.2     1  UNL1       -0.0440
      7  C          7.5500   -0.3800   -1.9840 C.2     1  UNL1        0.0080
      8  C          7.9930   -1.4090    0.1250 C.2     1  UNL1        0.0540
      9  C          7.8410   -1.5850   -2.5970 C.2     1  UNL1        0.0510
     10  C          8.2860   -2.6260   -0.5000 C.2     1  UNL1        0.1660
     11  C          8.2090   -2.7140   -1.8720 C.2     1  UNL1        0.1650
     12  O          8.6650   -3.8610   -0.0190 O.2     1  UNL1       -0.4540
     13  O          8.5470   -4.0160   -2.2090 O.2     1  UNL1       -0.4540
     14  C          8.9320   -4.7520   -1.0720 C.3     1  UNL1        0.4680
@<TRIPOS>BOND
     1     9     7    1
     2     9    11    2
     3    13    11    1
     4    13    14    1
     5     7     6    2
     6    11    10    1
     7    14    12    1
     8     6     5    1
     9     6     8    1
    10    10    12    1
    11    10     8    2
    12     5     1    1
    13     3     2    1
    14     1     2    1
    15     2     4    2
