MODEL 1
REMARK VINA RESULT:      -7.6      0.000      0.000
REMARK SMILES CC(=O)CCc1ccc2c(c1)OCO2
REMARK SMILES IDX 4 1 2 2 1 3 3 4 5 5 6 6 7 7 11 8 8 9 10 10 9 11 12 12 14 13
REMARK SMILES IDX 13 14
REMARK H PARENT
REMARK Flexibility Score: inf
ROOT
ATOM      1  C   UNL     1       5.521   1.930   1.258  1.00  0.00     0.080 C 
ENDROOT
BRANCH   1   2
ATOM      2  C   UNL     1       5.092   0.713   2.001  1.00  0.00     0.130 C 
ATOM      3  C   UNL     1       5.998  -0.453   2.181  1.00  0.00     0.087 C 
ATOM      4  O   UNL     1       3.974   0.636   2.486  1.00  0.00    -0.300 OA
ENDBRANCH   1   2
BRANCH   1   5
ATOM      5  C   UNL     1       5.393   1.735  -0.239  1.00  0.00     0.043 C 
BRANCH   5   6
ATOM      6  C   UNL     1       6.561   1.033  -0.801  1.00  0.00    -0.044 A 
ATOM      7  C   UNL     1       7.867   1.470  -0.554  1.00  0.00     0.008 A 
ATOM      8  C   UNL     1       6.374  -0.081  -1.587  1.00  0.00     0.054 A 
ATOM      9  C   UNL     1       8.924   0.770  -1.107  1.00  0.00     0.051 A 
ATOM     10  C   UNL     1       7.446  -0.785  -2.143  1.00  0.00     0.166 A 
ATOM     11  C   UNL     1       8.732  -0.356  -1.902  1.00  0.00     0.165 A 
ATOM     12  O   UNL     1       7.520  -1.904  -2.946  1.00  0.00    -0.454 OA
ATOM     13  O   UNL     1       9.577  -1.229  -2.567  1.00  0.00    -0.454 OA
ATOM     14  C   UNL     1       8.855  -2.278  -3.167  1.00  0.00     0.468 C 
ENDBRANCH   5   6
ENDBRANCH   1   5
TORSDOF 3
ENDMDL
MODEL 2
REMARK VINA RESULT:      -7.4      1.953      2.447
REMARK SMILES CC(=O)CCc1ccc2c(c1)OCO2
REMARK SMILES IDX 4 1 2 2 1 3 3 4 5 5 6 6 7 7 11 8 8 9 10 10 9 11 12 12 14 13
REMARK SMILES IDX 13 14
REMARK H PARENT
REMARK Flexibility Score: inf
ROOT
ATOM      1  C   UNL     1       5.760   1.218  -0.310  1.00  0.00     0.080 C 
ENDROOT
BRANCH   1   2
ATOM      2  C   UNL     1       5.235   1.219   1.084  1.00  0.00     0.130 C 
ATOM      3  C   UNL     1       5.502   0.093   2.020  1.00  0.00     0.087 C 
ATOM      4  O   UNL     1       4.565   2.149   1.501  1.00  0.00    -0.300 OA
ENDBRANCH   1   2
BRANCH   1   5
ATOM      5  C   UNL     1       7.264   1.029  -0.331  1.00  0.00     0.043 C 
BRANCH   5   6
ATOM      6  C   UNL     1       7.643  -0.269  -0.917  1.00  0.00    -0.044 A 
ATOM      7  C   UNL     1       7.693  -0.462  -2.302  1.00  0.00     0.008 A 
ATOM      8  C   UNL     1       7.961  -1.323  -0.091  1.00  0.00     0.054 A 
ATOM      9  C   UNL     1       8.057  -1.702  -2.794  1.00  0.00     0.051 A 
ATOM     10  C   UNL     1       8.329  -2.575  -0.593  1.00  0.00     0.166 A 
ATOM     11  C   UNL     1       8.377  -2.766  -1.956  1.00  0.00     0.165 A 
ATOM     12  O   UNL     1       8.683  -3.762   0.011  1.00  0.00    -0.454 OA
ATOM     13  O   UNL     1       8.765  -4.080  -2.163  1.00  0.00    -0.454 OA
ATOM     14  C   UNL     1       9.058  -4.722  -0.944  1.00  0.00     0.468 C 
ENDBRANCH   5   6
ENDBRANCH   1   5
TORSDOF 3
ENDMDL
MODEL 3
REMARK VINA RESULT:      -7.2      2.045      2.634
REMARK SMILES CC(=O)CCc1ccc2c(c1)OCO2
REMARK SMILES IDX 4 1 2 2 1 3 3 4 5 5 6 6 7 7 11 8 8 9 10 10 9 11 12 12 14 13
REMARK SMILES IDX 13 14
REMARK H PARENT
REMARK Flexibility Score: inf
ROOT
ATOM      1  C   UNL     1       5.374  -0.073   2.041  1.00  0.00     0.080 C 
ENDROOT
BRANCH   1   2
ATOM      2  C   UNL     1       4.545   1.137   1.778  1.00  0.00     0.130 C 
ATOM      3  C   UNL     1       4.910   2.120   0.723  1.00  0.00     0.087 C 
ATOM      4  O   UNL     1       3.535   1.358   2.428  1.00  0.00    -0.300 OA
ENDBRANCH   1   2
BRANCH   1   5
ATOM      5  C   UNL     1       6.822   0.159   1.659  1.00  0.00     0.043 C 
BRANCH   5   6
ATOM      6  C   UNL     1       7.255  -0.748   0.582  1.00  0.00    -0.044 A 
ATOM      7  C   UNL     1       7.128  -0.399  -0.767  1.00  0.00     0.008 A 
ATOM      8  C   UNL     1       7.802  -1.971   0.899  1.00  0.00     0.054 A 
ATOM      9  C   UNL     1       7.553  -1.291  -1.735  1.00  0.00     0.051 A 
ATOM     10  C   UNL     1       8.231  -2.869  -0.083  1.00  0.00     0.166 A 
ATOM     11  C   UNL     1       8.105  -2.526  -1.411  1.00  0.00     0.165 A 
ATOM     12  O   UNL     1       8.797  -4.125  -0.025  1.00  0.00    -0.454 OA
ATOM     13  O   UNL     1       8.603  -3.589  -2.148  1.00  0.00    -0.454 OA
ATOM     14  C   UNL     1       9.135  -4.585  -1.308  1.00  0.00     0.468 C 
ENDBRANCH   5   6
ENDBRANCH   1   5
TORSDOF 3
ENDMDL
MODEL 4
REMARK VINA RESULT:      -7.1      1.967      2.534
REMARK SMILES CC(=O)CCc1ccc2c(c1)OCO2
REMARK SMILES IDX 4 1 2 2 1 3 3 4 5 5 6 6 7 7 11 8 8 9 10 10 9 11 12 12 14 13
REMARK SMILES IDX 13 14
REMARK H PARENT
REMARK Flexibility Score: inf
ROOT
ATOM      1  C   UNL     1       6.683   0.710   1.468  1.00  0.00     0.080 C 
ENDROOT
BRANCH   1   2
ATOM      2  C   UNL     1       5.264   1.160   1.479  1.00  0.00     0.130 C 
ATOM      3  C   UNL     1       4.749   2.146   0.491  1.00  0.00     0.087 C 
ATOM      4  O   UNL     1       4.476   0.730   2.306  1.00  0.00    -0.300 OA
ENDBRANCH   1   2
BRANCH   1   5
ATOM      5  C   UNL     1       7.331   0.965   0.121  1.00  0.00     0.043 C 
BRANCH   5   6
ATOM      6  C   UNL     1       7.628  -0.291  -0.590  1.00  0.00    -0.044 A 
ATOM      7  C   UNL     1       7.550  -0.380  -1.984  1.00  0.00     0.008 A 
ATOM      8  C   UNL     1       7.993  -1.409   0.125  1.00  0.00     0.054 A 
ATOM      9  C   UNL     1       7.841  -1.585  -2.597  1.00  0.00     0.051 A 
ATOM     10  C   UNL     1       8.286  -2.626  -0.500  1.00  0.00     0.166 A 
ATOM     11  C   UNL     1       8.209  -2.714  -1.872  1.00  0.00     0.165 A 
ATOM     12  O   UNL     1       8.665  -3.861  -0.019  1.00  0.00    -0.454 OA
ATOM     13  O   UNL     1       8.547  -4.016  -2.209  1.00  0.00    -0.454 OA
ATOM     14  C   UNL     1       8.932  -4.752  -1.072  1.00  0.00     0.468 C 
ENDBRANCH   5   6
ENDBRANCH   1   5
TORSDOF 3
ENDMDL
MODEL 5
REMARK VINA RESULT:      -7.1      1.255      1.472
REMARK SMILES CC(=O)CCc1ccc2c(c1)OCO2
REMARK SMILES IDX 4 1 2 2 1 3 3 4 5 5 6 6 7 7 11 8 8 9 10 10 9 11 12 12 14 13
REMARK SMILES IDX 13 14
REMARK H PARENT
REMARK Flexibility Score: inf
ROOT
ATOM      1  C   UNL     1       6.372   1.180   0.929  1.00  0.00     0.080 C 
ENDROOT
BRANCH   1   2
ATOM      2  C   UNL     1       5.652   0.366   1.948  1.00  0.00     0.130 C 
ATOM      3  C   UNL     1       6.251  -0.867   2.526  1.00  0.00     0.087 C 
ATOM      4  O   UNL     1       4.543   0.689   2.339  1.00  0.00    -0.300 OA
ENDBRANCH   1   2
BRANCH   1   5
ATOM      5  C   UNL     1       5.859   0.892  -0.468  1.00  0.00     0.043 C 
BRANCH   5   6
ATOM      6  C   UNL     1       6.811   0.077  -1.243  1.00  0.00    -0.044 A 
ATOM      7  C   UNL     1       7.493   0.600  -2.348  1.00  0.00     0.008 A 
ATOM      8  C   UNL     1       7.046  -1.229  -0.879  1.00  0.00     0.054 A 
ATOM      9  C   UNL     1       8.376  -0.212  -3.037  1.00  0.00     0.051 A 
ATOM     10  C   UNL     1       7.940  -2.045  -1.578  1.00  0.00     0.166 A 
ATOM     11  C   UNL     1       8.610  -1.532  -2.666  1.00  0.00     0.165 A 
ATOM     12  O   UNL     1       8.339  -3.355  -1.418  1.00  0.00    -0.454 OA
ATOM     13  O   UNL     1       9.416  -2.548  -3.156  1.00  0.00    -0.454 OA
ATOM     14  C   UNL     1       9.344  -3.693  -2.340  1.00  0.00     0.468 C 
ENDBRANCH   5   6
ENDBRANCH   1   5
TORSDOF 3
ENDMDL
