@<TRIPOS>MOLECULE
/home/cewinharhar/GITHUB/reincatalyze/data/processed/docking_pred/2023-May-24-1506_sub9_nm5_bs15_s42_ex16_mel10_mts10000_k50_ec02_g099_lra3e-4_lrc3e-3/5ba5439e64352188cd964ddb86dd28d806e95272_ligand_9.pdbqt
 14 15 0 0 0
SMALL
GASTEIGER

@<TRIPOS>ATOM
      1  C          5.5210    1.9300    1.2580 C.3     1  UNL1        0.0800
      2  C          5.0920    0.7130    2.0010 C.2     1  UNL1        0.1300
      3  C          5.9980   -0.4530    2.1810 C.3     1  UNL1        0.0870
      4  O          3.9740    0.6360    2.4860 O.2     1  UNL1       -0.3000
      5  C          5.3930    1.7350   -0.2390 C.3     1  UNL1        0.0430
      6  C          6.5610    1.0330   -0.8010 C.2     1  UNL1       -0.0440
      7  C          7.8670    1.4700   -0.5540 C.2     1  UNL1        0.0080
      8  C          6.3740   -0.0810   -1.5870 C.2     1  UNL1        0.0540
      9  C          8.9240    0.7700   -1.1070 C.2     1  UNL1        0.0510
     10  C          7.4460   -0.7850   -2.1430 C.2     1  UNL1        0.1660
     11  C          8.7320   -0.3560   -1.9020 C.2     1  UNL1        0.1650
     12  O          7.5200   -1.9040   -2.9460 O.2     1  UNL1       -0.4540
     13  O          9.5770   -1.2290   -2.5670 O.2     1  UNL1       -0.4540
     14  C          8.8550   -2.2780   -3.1670 C.3     1  UNL1        0.4680
@<TRIPOS>BOND
     1    14    12    1
     2    14    13    1
     3    12    10    1
     4    13    11    1
     5    10    11    2
     6    10     8    1
     7    11     9    1
     8     8     6    2
     9     9     7    2
    10     6     7    1
    11     6     5    1
    12     5     1    1
    13     1     2    1
    14     2     3    1
    15     2     4    2
