@<TRIPOS>MOLECULE
/home/cewinharhar/GITHUB/reincatalyze/data/processed/docking_pred/2023-May-24-1506_sub9_nm5_bs15_s42_ex16_mel10_mts10000_k50_ec02_g099_lra3e-4_lrc3e-3/5ba5439e64352188cd964ddb86dd28d806e95272_ligand_9.pdbqt
 14 15 0 0 0
SMALL
GASTEIGER

@<TRIPOS>ATOM
      1  C          6.3720    1.1800    0.9290 C.3     1  UNL1        0.0800
      2  C          5.6520    0.3660    1.9480 C.2     1  UNL1        0.1300
      3  C          6.2510   -0.8670    2.5260 C.3     1  UNL1        0.0870
      4  O          4.5430    0.6890    2.3390 O.2     1  UNL1       -0.3000
      5  C          5.8590    0.8920   -0.4680 C.3     1  UNL1        0.0430
      6  C          6.8110    0.0770   -1.2430 C.2     1  UNL1       -0.0440
      7  C          7.4930    0.6000   -2.3480 C.2     1  UNL1        0.0080
      8  C          7.0460   -1.2290   -0.8790 C.2     1  UNL1        0.0540
      9  C          8.3760   -0.2120   -3.0370 C.2     1  UNL1        0.0510
     10  C          7.9400   -2.0450   -1.5780 C.2     1  UNL1        0.1660
     11  C          8.6100   -1.5320   -2.6660 C.2     1  UNL1        0.1650
     12  O          8.3390   -3.3550   -1.4180 O.2     1  UNL1       -0.4540
     13  O          9.4160   -2.5480   -3.1560 O.2     1  UNL1       -0.4540
     14  C          9.3440   -3.6930   -2.3400 C.3     1  UNL1        0.4680
@<TRIPOS>BOND
     1    13    11    1
     2    13    14    1
     3     9    11    2
     4     9     7    1
     5    11    10    1
     6     7     6    2
     7    14    12    1
     8    10    12    1
     9    10     8    2
    10     6     8    1
    11     6     5    1
    12     5     1    1
    13     1     2    1
    14     2     4    2
    15     2     3    1
