@<TRIPOS>MOLECULE
/home/cewinharhar/GITHUB/reincatalyze/data/processed/docking_pred/2023-May-24-1506_sub9_nm5_bs15_s42_ex16_mel10_mts10000_k50_ec02_g099_lra3e-4_lrc3e-3/5bd4159c0713ad18fb2d2a846002564f6b7df27c_ligand_9.pdbqt
 14 15 0 0 0
SMALL
GASTEIGER

@<TRIPOS>ATOM
      1  C          6.3640    1.2150    0.8920 C.3     1  UNL1        0.0800
      2  C          5.6690    0.4030    1.9290 C.2     1  UNL1        0.1300
      3  C          6.2860   -0.8220    2.5050 C.3     1  UNL1        0.0870
      4  O          4.5650    0.7220    2.3390 O.2     1  UNL1       -0.3000
      5  C          5.8470    0.8930   -0.4960 C.3     1  UNL1        0.0430
      6  C          6.8080    0.0810   -1.2630 C.2     1  UNL1       -0.0440
      7  C          7.5080    0.6090   -2.3540 C.2     1  UNL1        0.0080
      8  C          7.0330   -1.2290   -0.9060 C.2     1  UNL1        0.0540
      9  C          8.3980   -0.2000   -3.0360 C.2     1  UNL1        0.0510
     10  C          7.9340   -2.0430   -1.5980 C.2     1  UNL1        0.1660
     11  C          8.6220   -1.5240   -2.6720 C.2     1  UNL1        0.1650
     12  O          8.3260   -3.3550   -1.4410 O.2     1  UNL1       -0.4540
     13  O          9.4320   -2.5390   -3.1570 O.2     1  UNL1       -0.4540
     14  C          9.3430   -3.6900   -2.3510 C.3     1  UNL1        0.4680
@<TRIPOS>BOND
     1    13    11    1
     2    13    14    1
     3     9    11    2
     4     9     7    1
     5    11    10    1
     6     7     6    2
     7    14    12    1
     8    10    12    1
     9    10     8    2
    10     6     8    1
    11     6     5    1
    12     5     1    1
    13     1     2    1
    14     2     4    2
    15     2     3    1
