@<TRIPOS>MOLECULE
/home/cewinharhar/GITHUB/reincatalyze/data/processed/docking_pred/2023-May-24-1506_sub9_nm5_bs15_s42_ex16_mel10_mts10000_k50_ec02_g099_lra3e-4_lrc3e-3/5bd4159c0713ad18fb2d2a846002564f6b7df27c_ligand_9.pdbqt
 14 15 0 0 0
SMALL
GASTEIGER

@<TRIPOS>ATOM
      1  C          8.3460    0.1800   -2.6810 C.3     1  UNL1        0.0800
      2  C          8.0680   -1.2810   -2.7760 C.2     1  UNL1        0.1300
      3  C          9.1540   -2.2670   -3.0230 C.3     1  UNL1        0.0870
      4  O          6.9330   -1.7120   -2.6550 O.2     1  UNL1       -0.3000
      5  C          8.8750    0.5510   -1.3090 C.3     1  UNL1        0.0430
      6  C          7.8400    0.4170   -0.2690 C.2     1  UNL1       -0.0440
      7  C          7.9440   -0.5340    0.7520 C.2     1  UNL1        0.0080
      8  C          6.7400    1.2450   -0.2910 C.2     1  UNL1        0.0540
      9  C          6.9420   -0.6120    1.7010 C.2     1  UNL1        0.0510
     10  C          5.7300    1.1620    0.6710 C.2     1  UNL1        0.1660
     11  C          5.8310    0.2260    1.6760 C.2     1  UNL1        0.1650
     12  O          4.5560    1.8600    0.8640 O.2     1  UNL1       -0.4540
     13  O          4.7070    0.3690    2.4730 O.2     1  UNL1       -0.4540
     14  C          3.9170    1.4540    2.0470 C.3     1  UNL1        0.4680
@<TRIPOS>BOND
     1     3     2    1
     2     2     1    1
     3     2     4    2
     4     1     5    1
     5     5     6    1
     6     8     6    2
     7     8    10    1
     8     6     7    1
     9    10    12    1
    10    10    11    2
    11     7     9    2
    12    12    14    1
    13    11     9    1
    14    11    13    1
    15    14    13    1
