@<TRIPOS>MOLECULE
/home/cewinharhar/GITHUB/reincatalyze/data/processed/docking_pred/2023-May-24-1506_sub9_nm5_bs15_s42_ex16_mel10_mts10000_k50_ec02_g099_lra3e-4_lrc3e-3/5bd4159c0713ad18fb2d2a846002564f6b7df27c_ligand_9.pdbqt
 14 15 0 0 0
SMALL
GASTEIGER

@<TRIPOS>ATOM
      1  C          5.5630    0.0060    1.9690 C.3     1  UNL1        0.0800
      2  C          4.6870    1.1680    1.6510 C.2     1  UNL1        0.1300
      3  C          4.9990    2.0970    0.5330 C.3     1  UNL1        0.0870
      4  O          3.6820    1.3920    2.3050 O.2     1  UNL1       -0.3000
      5  C          6.9860    0.2450    1.5030 C.3     1  UNL1        0.0430
      6  C          7.3880   -0.7170    0.4620 C.2     1  UNL1       -0.0440
      7  C          7.2720   -0.4140   -0.9000 C.2     1  UNL1        0.0080
      8  C          7.8940   -1.9440    0.8250 C.2     1  UNL1        0.0540
      9  C          7.6670   -1.3560   -1.8330 C.2     1  UNL1        0.0510
     10  C          8.2920   -2.8920   -0.1220 C.2     1  UNL1        0.1660
     11  C          8.1770   -2.5960   -1.4620 C.2     1  UNL1        0.1650
     12  O          8.8170   -4.1630   -0.0160 O.2     1  UNL1       -0.4540
     13  O          8.6390   -3.7020   -2.1580 O.2     1  UNL1       -0.4540
     14  C          9.1390   -4.6830   -1.2810 C.3     1  UNL1        0.4680
@<TRIPOS>BOND
     1    13    11    1
     2    13    14    1
     3     9    11    2
     4     9     7    1
     5    11    10    1
     6    14    12    1
     7     7     6    2
     8    10    12    1
     9    10     8    2
    10     6     8    1
    11     6     5    1
    12     3     2    1
    13     5     1    1
    14     2     1    1
    15     2     4    2
