@<TRIPOS>MOLECULE
/home/cewinharhar/GITHUB/reincatalyze/data/processed/docking_pred/2023-May-24-1506_sub9_nm5_bs15_s42_ex16_mel10_mts10000_k50_ec02_g099_lra3e-4_lrc3e-3/5bd4159c0713ad18fb2d2a846002564f6b7df27c_ligand_9.pdbqt
 14 15 0 0 0
SMALL
GASTEIGER

@<TRIPOS>ATOM
      1  C          5.7570    1.3860   -0.2450 C.3     1  UNL1        0.0800
      2  C          5.1160    1.2700    1.0940 C.2     1  UNL1        0.1300
      3  C          5.3570    0.0980    1.9770 C.3     1  UNL1        0.0870
      4  O          4.3670    2.1410    1.5080 O.2     1  UNL1       -0.3000
      5  C          7.2480    1.1220   -0.1660 C.3     1  UNL1        0.0430
      6  C          7.6080   -0.1650   -0.7870 C.2     1  UNL1       -0.0440
      7  C          7.6430   -0.3240   -2.1770 C.2     1  UNL1        0.0080
      8  C          7.9220   -1.2430    0.0090 C.2     1  UNL1        0.0540
      9  C          7.9900   -1.5550   -2.7040 C.2     1  UNL1        0.0510
     10  C          8.2720   -2.4860   -0.5280 C.2     1  UNL1        0.1660
     11  C          8.3060   -2.6430   -1.8950 C.2     1  UNL1        0.1650
     12  O          8.6200   -3.6920    0.0430 O.2     1  UNL1       -0.4540
     13  O          8.6780   -3.9560   -2.1390 O.2     1  UNL1       -0.4540
     14  C          8.9750   -4.6300   -0.9400 C.3     1  UNL1        0.4680
@<TRIPOS>BOND
     1     9     7    1
     2     9    11    2
     3     7     6    2
     4    13    11    1
     5    13    14    1
     6    11    10    1
     7    14    12    1
     8     6     5    1
     9     6     8    1
    10    10     8    2
    11    10    12    1
    12     1     5    1
    13     1     2    1
    14     2     4    2
    15     2     3    1
