MODEL 1
REMARK VINA RESULT:      -7.6      0.000      0.000
REMARK SMILES CC(=O)CCc1ccc2c(c1)OCO2
REMARK SMILES IDX 4 1 2 2 1 3 3 4 5 5 6 6 7 7 11 8 8 9 10 10 9 11 12 12 14 13
REMARK SMILES IDX 13 14
REMARK H PARENT
REMARK Flexibility Score: inf
ROOT
ATOM      1  C   UNL     1       5.545   1.920   1.274  1.00  0.00     0.080 C 
ENDROOT
BRANCH   1   2
ATOM      2  C   UNL     1       5.127   0.697   2.014  1.00  0.00     0.130 C 
ATOM      3  C   UNL     1       6.043  -0.463   2.184  1.00  0.00     0.087 C 
ATOM      4  O   UNL     1       4.013   0.610   2.503  1.00  0.00    -0.300 OA
ENDBRANCH   1   2
BRANCH   1   5
ATOM      5  C   UNL     1       5.415   1.730  -0.224  1.00  0.00     0.043 C 
BRANCH   5   6
ATOM      6  C   UNL     1       6.579   1.025  -0.788  1.00  0.00    -0.044 A 
ATOM      7  C   UNL     1       7.888   1.448  -0.532  1.00  0.00     0.008 A 
ATOM      8  C   UNL     1       6.386  -0.080  -1.586  1.00  0.00     0.054 A 
ATOM      9  C   UNL     1       8.942   0.746  -1.088  1.00  0.00     0.051 A 
ATOM     10  C   UNL     1       7.455  -0.787  -2.146  1.00  0.00     0.166 A 
ATOM     11  C   UNL     1       8.743  -0.370  -1.895  1.00  0.00     0.165 A 
ATOM     12  O   UNL     1       7.524  -1.898  -2.960  1.00  0.00    -0.454 OA
ATOM     13  O   UNL     1       9.585  -1.243  -2.566  1.00  0.00    -0.454 OA
ATOM     14  C   UNL     1       8.857  -2.280  -3.180  1.00  0.00     0.468 C 
ENDBRANCH   5   6
ENDBRANCH   1   5
TORSDOF 3
ENDMDL
MODEL 2
REMARK VINA RESULT:      -7.4      1.937      2.378
REMARK SMILES CC(=O)CCc1ccc2c(c1)OCO2
REMARK SMILES IDX 4 1 2 2 1 3 3 4 5 5 6 6 7 7 11 8 8 9 10 10 9 11 12 12 14 13
REMARK SMILES IDX 13 14
REMARK H PARENT
REMARK Flexibility Score: inf
ROOT
ATOM      1  C   UNL     1       5.757   1.386  -0.245  1.00  0.00     0.080 C 
ENDROOT
BRANCH   1   2
ATOM      2  C   UNL     1       5.116   1.270   1.094  1.00  0.00     0.130 C 
ATOM      3  C   UNL     1       5.357   0.098   1.977  1.00  0.00     0.087 C 
ATOM      4  O   UNL     1       4.367   2.141   1.508  1.00  0.00    -0.300 OA
ENDBRANCH   1   2
BRANCH   1   5
ATOM      5  C   UNL     1       7.248   1.122  -0.166  1.00  0.00     0.043 C 
BRANCH   5   6
ATOM      6  C   UNL     1       7.608  -0.165  -0.787  1.00  0.00    -0.044 A 
ATOM      7  C   UNL     1       7.643  -0.324  -2.177  1.00  0.00     0.008 A 
ATOM      8  C   UNL     1       7.922  -1.243   0.009  1.00  0.00     0.054 A 
ATOM      9  C   UNL     1       7.990  -1.555  -2.704  1.00  0.00     0.051 A 
ATOM     10  C   UNL     1       8.272  -2.486  -0.528  1.00  0.00     0.166 A 
ATOM     11  C   UNL     1       8.306  -2.643  -1.895  1.00  0.00     0.165 A 
ATOM     12  O   UNL     1       8.620  -3.692   0.043  1.00  0.00    -0.454 OA
ATOM     13  O   UNL     1       8.678  -3.956  -2.139  1.00  0.00    -0.454 OA
ATOM     14  C   UNL     1       8.975  -4.630  -0.940  1.00  0.00     0.468 C 
ENDBRANCH   5   6
ENDBRANCH   1   5
TORSDOF 3
ENDMDL
MODEL 3
REMARK VINA RESULT:      -7.2      2.096      2.640
REMARK SMILES CC(=O)CCc1ccc2c(c1)OCO2
REMARK SMILES IDX 4 1 2 2 1 3 3 4 5 5 6 6 7 7 11 8 8 9 10 10 9 11 12 12 14 13
REMARK SMILES IDX 13 14
REMARK H PARENT
REMARK Flexibility Score: inf
ROOT
ATOM      1  C   UNL     1       5.563   0.006   1.969  1.00  0.00     0.080 C 
ENDROOT
BRANCH   1   2
ATOM      2  C   UNL     1       4.687   1.168   1.651  1.00  0.00     0.130 C 
ATOM      3  C   UNL     1       4.999   2.097   0.533  1.00  0.00     0.087 C 
ATOM      4  O   UNL     1       3.682   1.392   2.305  1.00  0.00    -0.300 OA
ENDBRANCH   1   2
BRANCH   1   5
ATOM      5  C   UNL     1       6.986   0.245   1.503  1.00  0.00     0.043 C 
BRANCH   5   6
ATOM      6  C   UNL     1       7.388  -0.717   0.462  1.00  0.00    -0.044 A 
ATOM      7  C   UNL     1       7.272  -0.414  -0.900  1.00  0.00     0.008 A 
ATOM      8  C   UNL     1       7.894  -1.944   0.825  1.00  0.00     0.054 A 
ATOM      9  C   UNL     1       7.667  -1.356  -1.833  1.00  0.00     0.051 A 
ATOM     10  C   UNL     1       8.292  -2.892  -0.122  1.00  0.00     0.166 A 
ATOM     11  C   UNL     1       8.177  -2.596  -1.462  1.00  0.00     0.165 A 
ATOM     12  O   UNL     1       8.817  -4.163  -0.016  1.00  0.00    -0.454 OA
ATOM     13  O   UNL     1       8.639  -3.702  -2.158  1.00  0.00    -0.454 OA
ATOM     14  C   UNL     1       9.139  -4.683  -1.281  1.00  0.00     0.468 C 
ENDBRANCH   5   6
ENDBRANCH   1   5
TORSDOF 3
ENDMDL
MODEL 4
REMARK VINA RESULT:      -7.1      1.250      1.462
REMARK SMILES CC(=O)CCc1ccc2c(c1)OCO2
REMARK SMILES IDX 4 1 2 2 1 3 3 4 5 5 6 6 7 7 11 8 8 9 10 10 9 11 12 12 14 13
REMARK SMILES IDX 13 14
REMARK H PARENT
REMARK Flexibility Score: inf
ROOT
ATOM      1  C   UNL     1       6.364   1.215   0.892  1.00  0.00     0.080 C 
ENDROOT
BRANCH   1   2
ATOM      2  C   UNL     1       5.669   0.403   1.929  1.00  0.00     0.130 C 
ATOM      3  C   UNL     1       6.286  -0.822   2.505  1.00  0.00     0.087 C 
ATOM      4  O   UNL     1       4.565   0.722   2.339  1.00  0.00    -0.300 OA
ENDBRANCH   1   2
BRANCH   1   5
ATOM      5  C   UNL     1       5.847   0.893  -0.496  1.00  0.00     0.043 C 
BRANCH   5   6
ATOM      6  C   UNL     1       6.808   0.081  -1.263  1.00  0.00    -0.044 A 
ATOM      7  C   UNL     1       7.508   0.609  -2.354  1.00  0.00     0.008 A 
ATOM      8  C   UNL     1       7.033  -1.229  -0.906  1.00  0.00     0.054 A 
ATOM      9  C   UNL     1       8.398  -0.200  -3.036  1.00  0.00     0.051 A 
ATOM     10  C   UNL     1       7.934  -2.043  -1.598  1.00  0.00     0.166 A 
ATOM     11  C   UNL     1       8.622  -1.524  -2.672  1.00  0.00     0.165 A 
ATOM     12  O   UNL     1       8.326  -3.355  -1.441  1.00  0.00    -0.454 OA
ATOM     13  O   UNL     1       9.432  -2.539  -3.157  1.00  0.00    -0.454 OA
ATOM     14  C   UNL     1       9.343  -3.690  -2.351  1.00  0.00     0.468 C 
ENDBRANCH   5   6
ENDBRANCH   1   5
TORSDOF 3
ENDMDL
MODEL 5
REMARK VINA RESULT:      -6.7      1.188      5.165
REMARK SMILES CC(=O)CCc1ccc2c(c1)OCO2
REMARK SMILES IDX 4 1 2 2 1 3 3 4 5 5 6 6 7 7 11 8 8 9 10 10 9 11 12 12 14 13
REMARK SMILES IDX 13 14
REMARK H PARENT
REMARK Flexibility Score: inf
ROOT
ATOM      1  C   UNL     1       8.346   0.180  -2.681  1.00  0.00     0.080 C 
ENDROOT
BRANCH   1   2
ATOM      2  C   UNL     1       8.068  -1.281  -2.776  1.00  0.00     0.130 C 
ATOM      3  C   UNL     1       9.154  -2.267  -3.023  1.00  0.00     0.087 C 
ATOM      4  O   UNL     1       6.933  -1.712  -2.655  1.00  0.00    -0.300 OA
ENDBRANCH   1   2
BRANCH   1   5
ATOM      5  C   UNL     1       8.875   0.551  -1.309  1.00  0.00     0.043 C 
BRANCH   5   6
ATOM      6  C   UNL     1       7.840   0.417  -0.269  1.00  0.00    -0.044 A 
ATOM      7  C   UNL     1       7.944  -0.534   0.752  1.00  0.00     0.008 A 
ATOM      8  C   UNL     1       6.740   1.245  -0.291  1.00  0.00     0.054 A 
ATOM      9  C   UNL     1       6.942  -0.612   1.701  1.00  0.00     0.051 A 
ATOM     10  C   UNL     1       5.730   1.162   0.671  1.00  0.00     0.166 A 
ATOM     11  C   UNL     1       5.831   0.226   1.676  1.00  0.00     0.165 A 
ATOM     12  O   UNL     1       4.556   1.860   0.864  1.00  0.00    -0.454 OA
ATOM     13  O   UNL     1       4.707   0.369   2.473  1.00  0.00    -0.454 OA
ATOM     14  C   UNL     1       3.917   1.454   2.047  1.00  0.00     0.468 C 
ENDBRANCH   5   6
ENDBRANCH   1   5
TORSDOF 3
ENDMDL
