@<TRIPOS>MOLECULE
/home/cewinharhar/GITHUB/reincatalyze/data/processed/docking_pred/2023-May-24-1506_sub9_nm5_bs15_s42_ex16_mel10_mts10000_k50_ec02_g099_lra3e-4_lrc3e-3/5bd4159c0713ad18fb2d2a846002564f6b7df27c_ligand_9.pdbqt
 14 15 0 0 0
SMALL
GASTEIGER

@<TRIPOS>ATOM
      1  C          5.5450    1.9200    1.2740 C.3     1  UNL1        0.0800
      2  C          5.1270    0.6970    2.0140 C.2     1  UNL1        0.1300
      3  C          6.0430   -0.4630    2.1840 C.3     1  UNL1        0.0870
      4  O          4.0130    0.6100    2.5030 O.2     1  UNL1       -0.3000
      5  C          5.4150    1.7300   -0.2240 C.3     1  UNL1        0.0430
      6  C          6.5790    1.0250   -0.7880 C.2     1  UNL1       -0.0440
      7  C          7.8880    1.4480   -0.5320 C.2     1  UNL1        0.0080
      8  C          6.3860   -0.0800   -1.5860 C.2     1  UNL1        0.0540
      9  C          8.9420    0.7460   -1.0880 C.2     1  UNL1        0.0510
     10  C          7.4550   -0.7870   -2.1460 C.2     1  UNL1        0.1660
     11  C          8.7430   -0.3700   -1.8950 C.2     1  UNL1        0.1650
     12  O          7.5240   -1.8980   -2.9600 O.2     1  UNL1       -0.4540
     13  O          9.5850   -1.2430   -2.5660 O.2     1  UNL1       -0.4540
     14  C          8.8570   -2.2800   -3.1800 C.3     1  UNL1        0.4680
@<TRIPOS>BOND
     1    14    12    1
     2    14    13    1
     3    12    10    1
     4    13    11    1
     5    10    11    2
     6    10     8    1
     7    11     9    1
     8     8     6    2
     9     9     7    2
    10     6     7    1
    11     6     5    1
    12     5     1    1
    13     1     2    1
    14     2     3    1
    15     2     4    2
