@<TRIPOS>MOLECULE
/home/cewinharhar/GITHUB/reincatalyze/data/processed/docking_pred/2023-May-24-1506_sub9_nm5_bs15_s42_ex16_mel10_mts10000_k50_ec02_g099_lra3e-4_lrc3e-3/5be73a077ea639c014f12358d863af943f9e92ef_ligand_9.pdbqt
 14 15 0 0 0
SMALL
GASTEIGER

@<TRIPOS>ATOM
      1  C          6.8870    0.9020    1.2000 C.3     1  UNL1        0.0800
      2  C          5.4260    1.1580    1.3430 C.2     1  UNL1        0.1300
      3  C          4.7190    2.1440    0.4840 C.3     1  UNL1        0.0870
      4  O          4.7640    0.5620    2.1770 O.2     1  UNL1       -0.3000
      5  C          7.3350    1.0600   -0.2390 C.3     1  UNL1        0.0430
      6  C          7.6960   -0.2340   -0.8440 C.2     1  UNL1       -0.0440
      7  C          7.8060   -0.3900   -2.2310 C.2     1  UNL1        0.0080
      8  C          7.9370   -1.3220   -0.0350 C.2     1  UNL1        0.0540
      9  C          8.1490   -1.6290   -2.7410 C.2     1  UNL1        0.0510
     10  C          8.2840   -2.5720   -0.5570 C.2     1  UNL1        0.1660
     11  C          8.3910   -2.7260   -1.9210 C.2     1  UNL1        0.1650
     12  O          8.5680   -3.7880    0.0280 O.2     1  UNL1       -0.4540
     13  O          8.7430   -4.0480   -2.1480 O.2     1  UNL1       -0.4540
     14  C          8.9540   -4.7330   -0.9370 C.3     1  UNL1        0.4680
@<TRIPOS>BOND
     1     9     7    1
     2     9    11    2
     3     7     6    2
     4    13    11    1
     5    13    14    1
     6    11    10    1
     7    14    12    1
     8     6     5    1
     9     6     8    1
    10    10     8    2
    11    10    12    1
    12     5     1    1
    13     3     2    1
    14     1     2    1
    15     2     4    2
