@<TRIPOS>MOLECULE
/home/cewinharhar/GITHUB/reincatalyze/data/processed/docking_pred/2023-May-24-1506_sub9_nm5_bs15_s42_ex16_mel10_mts10000_k50_ec02_g099_lra3e-4_lrc3e-3/5c03b3f969ed47612f71fd8c49d4b8d1b6c55f0c_ligand_9.pdbqt
 14 15 0 0 0
SMALL
GASTEIGER

@<TRIPOS>ATOM
      1  C          5.5390    1.8880    1.2890 C.3     1  UNL1        0.0800
      2  C          5.0900    0.6650    2.0120 C.2     1  UNL1        0.1300
      3  C          5.9760   -0.5190    2.1690 C.3     1  UNL1        0.0870
      4  O          3.9730    0.6000    2.4990 O.2     1  UNL1       -0.3000
      5  C          5.4080    1.7190   -0.2110 C.3     1  UNL1        0.0430
      6  C          6.5720    1.0220   -0.7870 C.2     1  UNL1       -0.0440
      7  C          7.8790    1.4630   -0.5540 C.2     1  UNL1        0.0080
      8  C          6.3800   -0.0930   -1.5710 C.2     1  UNL1        0.0540
      9  C          8.9330    0.7680   -1.1200 C.2     1  UNL1        0.0510
     10  C          7.4480   -0.7920   -2.1400 C.2     1  UNL1        0.1660
     11  C          8.7350   -0.3580   -1.9130 C.2     1  UNL1        0.1650
     12  O          7.5180   -1.9100   -2.9440 O.2     1  UNL1       -0.4540
     13  O          9.5770   -1.2270   -2.5890 O.2     1  UNL1       -0.4540
     14  C          8.8520   -2.2790   -3.1810 C.3     1  UNL1        0.4680
@<TRIPOS>BOND
     1    14    12    1
     2    14    13    1
     3    12    10    1
     4    13    11    1
     5    10    11    2
     6    10     8    1
     7    11     9    1
     8     8     6    2
     9     9     7    2
    10     6     7    1
    11     6     5    1
    12     5     1    1
    13     1     2    1
    14     2     3    1
    15     2     4    2
