@<TRIPOS>MOLECULE
/home/cewinharhar/GITHUB/reincatalyze/data/processed/docking_pred/2023-May-24-1506_sub9_nm5_bs15_s42_ex16_mel10_mts10000_k50_ec02_g099_lra3e-4_lrc3e-3/5c03b3f969ed47612f71fd8c49d4b8d1b6c55f0c_ligand_9.pdbqt
 14 15 0 0 0
SMALL
GASTEIGER

@<TRIPOS>ATOM
      1  C          5.3120   -0.0840    1.9810 C.3     1  UNL1        0.0800
      2  C          4.4560    1.1230    1.8050 C.2     1  UNL1        0.1300
      3  C          4.7580    2.1500    0.7720 C.3     1  UNL1        0.0870
      4  O          3.4760    1.3040    2.5090 O.2     1  UNL1       -0.3000
      5  C          6.7840    0.2740    1.9330 C.3     1  UNL1        0.0430
      6  C          7.3870   -0.0690    0.6320 C.2     1  UNL1       -0.0440
      7  C          7.8710    0.9180   -0.2340 C.2     1  UNL1        0.0080
      8  C          7.4840   -1.3880    0.2520 C.2     1  UNL1        0.0540
      9  C          8.4280    0.5370   -1.4410 C.2     1  UNL1        0.0510
     10  C          8.0480   -1.7680   -0.9700 C.2     1  UNL1        0.1660
     11  C          8.5240   -0.7980   -1.8230 C.2     1  UNL1        0.1650
     12  O          8.2560   -2.9930   -1.5680 O.2     1  UNL1       -0.4540
     13  O          9.0190   -1.4530   -2.9400 O.2     1  UNL1       -0.4540
     14  C          8.9520   -2.8500   -2.7800 C.3     1  UNL1        0.4680
@<TRIPOS>BOND
     1    13    14    1
     2    13    11    1
     3    14    12    1
     4    11     9    2
     5    11    10    1
     6    12    10    1
     7     9     7    1
     8    10     8    2
     9     7     6    2
    10     8     6    1
    11     6     5    1
    12     3     2    1
    13     2     1    1
    14     2     4    2
    15     5     1    1
