MODEL 1
REMARK VINA RESULT:      -7.5      0.000      0.000
REMARK SMILES CC(=O)CCc1ccc2c(c1)OCO2
REMARK SMILES IDX 4 1 2 2 1 3 3 4 5 5 6 6 7 7 11 8 8 9 10 10 9 11 12 12 14 13
REMARK SMILES IDX 13 14
REMARK H PARENT
REMARK Flexibility Score: inf
ROOT
ATOM      1  C   UNL     1       5.539   1.888   1.289  1.00  0.00     0.080 C 
ENDROOT
BRANCH   1   2
ATOM      2  C   UNL     1       5.090   0.665   2.012  1.00  0.00     0.130 C 
ATOM      3  C   UNL     1       5.976  -0.519   2.169  1.00  0.00     0.087 C 
ATOM      4  O   UNL     1       3.973   0.600   2.499  1.00  0.00    -0.300 OA
ENDBRANCH   1   2
BRANCH   1   5
ATOM      5  C   UNL     1       5.408   1.719  -0.211  1.00  0.00     0.043 C 
BRANCH   5   6
ATOM      6  C   UNL     1       6.572   1.022  -0.787  1.00  0.00    -0.044 A 
ATOM      7  C   UNL     1       7.879   1.463  -0.554  1.00  0.00     0.008 A 
ATOM      8  C   UNL     1       6.380  -0.093  -1.571  1.00  0.00     0.054 A 
ATOM      9  C   UNL     1       8.933   0.768  -1.120  1.00  0.00     0.051 A 
ATOM     10  C   UNL     1       7.448  -0.792  -2.140  1.00  0.00     0.166 A 
ATOM     11  C   UNL     1       8.735  -0.358  -1.913  1.00  0.00     0.165 A 
ATOM     12  O   UNL     1       7.518  -1.910  -2.944  1.00  0.00    -0.454 OA
ATOM     13  O   UNL     1       9.577  -1.227  -2.589  1.00  0.00    -0.454 OA
ATOM     14  C   UNL     1       8.852  -2.279  -3.181  1.00  0.00     0.468 C 
ENDBRANCH   5   6
ENDBRANCH   1   5
TORSDOF 3
ENDMDL
MODEL 2
REMARK VINA RESULT:      -7.2      1.852      2.317
REMARK SMILES CC(=O)CCc1ccc2c(c1)OCO2
REMARK SMILES IDX 4 1 2 2 1 3 3 4 5 5 6 6 7 7 11 8 8 9 10 10 9 11 12 12 14 13
REMARK SMILES IDX 13 14
REMARK H PARENT
REMARK Flexibility Score: inf
ROOT
ATOM      1  C   UNL     1       5.736   1.424  -0.287  1.00  0.00     0.080 C 
ENDROOT
BRANCH   1   2
ATOM      2  C   UNL     1       5.110   1.284   1.058  1.00  0.00     0.130 C 
ATOM      3  C   UNL     1       5.378   0.106   1.925  1.00  0.00     0.087 C 
ATOM      4  O   UNL     1       4.354   2.139   1.489  1.00  0.00    -0.300 OA
ENDBRANCH   1   2
BRANCH   1   5
ATOM      5  C   UNL     1       7.229   1.168  -0.228  1.00  0.00     0.043 C 
BRANCH   5   6
ATOM      6  C   UNL     1       7.590  -0.107  -0.873  1.00  0.00    -0.044 A 
ATOM      7  C   UNL     1       7.602  -0.247  -2.266  1.00  0.00     0.008 A 
ATOM      8  C   UNL     1       7.927  -1.193  -0.097  1.00  0.00     0.054 A 
ATOM      9  C   UNL     1       7.950  -1.467  -2.815  1.00  0.00     0.051 A 
ATOM     10  C   UNL     1       8.279  -2.424  -0.657  1.00  0.00     0.166 A 
ATOM     11  C   UNL     1       8.290  -2.563  -2.027  1.00  0.00     0.165 A 
ATOM     12  O   UNL     1       8.648  -3.635  -0.109  1.00  0.00    -0.454 OA
ATOM     13  O   UNL     1       8.671  -3.869  -2.295  1.00  0.00    -0.454 OA
ATOM     14  C   UNL     1       8.995  -4.557  -1.110  1.00  0.00     0.468 C 
ENDBRANCH   5   6
ENDBRANCH   1   5
TORSDOF 3
ENDMDL
MODEL 3
REMARK VINA RESULT:      -7.0      1.997      2.547
REMARK SMILES CC(=O)CCc1ccc2c(c1)OCO2
REMARK SMILES IDX 4 1 2 2 1 3 3 4 5 5 6 6 7 7 11 8 8 9 10 10 9 11 12 12 14 13
REMARK SMILES IDX 13 14
REMARK H PARENT
REMARK Flexibility Score: inf
ROOT
ATOM      1  C   UNL     1       5.480   0.004   2.005  1.00  0.00     0.080 C 
ENDROOT
BRANCH   1   2
ATOM      2  C   UNL     1       4.581   1.164   1.750  1.00  0.00     0.130 C 
ATOM      3  C   UNL     1       4.865   2.149   0.672  1.00  0.00     0.087 C 
ATOM      4  O   UNL     1       3.579   1.341   2.424  1.00  0.00    -0.300 OA
ENDBRANCH   1   2
BRANCH   1   5
ATOM      5  C   UNL     1       6.890   0.284   1.526  1.00  0.00     0.043 C 
BRANCH   5   6
ATOM      6  C   UNL     1       7.295  -0.641   0.452  1.00  0.00    -0.044 A 
ATOM      7  C   UNL     1       7.136  -0.310  -0.899  1.00  0.00     0.008 A 
ATOM      8  C   UNL     1       7.847  -1.860   0.773  1.00  0.00     0.054 A 
ATOM      9  C   UNL     1       7.535  -1.217  -1.864  1.00  0.00     0.051 A 
ATOM     10  C   UNL     1       8.250  -2.773  -0.206  1.00  0.00     0.166 A 
ATOM     11  C   UNL     1       8.092  -2.449  -1.535  1.00  0.00     0.165 A 
ATOM     12  O   UNL     1       8.816  -4.029  -0.144  1.00  0.00    -0.454 OA
ATOM     13  O   UNL     1       8.570  -3.523  -2.269  1.00  0.00    -0.454 OA
ATOM     14  C   UNL     1       9.121  -4.508  -1.428  1.00  0.00     0.468 C 
ENDBRANCH   5   6
ENDBRANCH   1   5
TORSDOF 3
ENDMDL
MODEL 4
REMARK VINA RESULT:      -7.0      1.249      1.454
REMARK SMILES CC(=O)CCc1ccc2c(c1)OCO2
REMARK SMILES IDX 4 1 2 2 1 3 3 4 5 5 6 6 7 7 11 8 8 9 10 10 9 11 12 12 14 13
REMARK SMILES IDX 13 14
REMARK H PARENT
REMARK Flexibility Score: inf
ROOT
ATOM      1  C   UNL     1       6.387   1.200   0.945  1.00  0.00     0.080 C 
ENDROOT
BRANCH   1   2
ATOM      2  C   UNL     1       5.655   0.366   1.939  1.00  0.00     0.130 C 
ATOM      3  C   UNL     1       6.251  -0.871   2.510  1.00  0.00     0.087 C 
ATOM      4  O   UNL     1       4.536   0.677   2.314  1.00  0.00    -0.300 OA
ENDBRANCH   1   2
BRANCH   1   5
ATOM      5  C   UNL     1       5.885   0.947  -0.463  1.00  0.00     0.043 C 
BRANCH   5   6
ATOM      6  C   UNL     1       6.824   0.115  -1.236  1.00  0.00    -0.044 A 
ATOM      7  C   UNL     1       7.510   0.622  -2.346  1.00  0.00     0.008 A 
ATOM      8  C   UNL     1       7.041  -1.192  -0.866  1.00  0.00     0.054 A 
ATOM      9  C   UNL     1       8.379  -0.205  -3.033  1.00  0.00     0.051 A 
ATOM     10  C   UNL     1       7.922  -2.025  -1.564  1.00  0.00     0.166 A 
ATOM     11  C   UNL     1       8.596  -1.527  -2.656  1.00  0.00     0.165 A 
ATOM     12  O   UNL     1       8.303  -3.339  -1.397  1.00  0.00    -0.454 OA
ATOM     13  O   UNL     1       9.386  -2.557  -3.143  1.00  0.00    -0.454 OA
ATOM     14  C   UNL     1       9.300  -3.696  -2.321  1.00  0.00     0.468 C 
ENDBRANCH   5   6
ENDBRANCH   1   5
TORSDOF 3
ENDMDL
MODEL 5
REMARK VINA RESULT:      -6.7      1.270      1.760
REMARK SMILES CC(=O)CCc1ccc2c(c1)OCO2
REMARK SMILES IDX 4 1 2 2 1 3 3 4 5 5 6 6 7 7 11 8 8 9 10 10 9 11 12 12 14 13
REMARK SMILES IDX 13 14
REMARK H PARENT
REMARK Flexibility Score: inf
ROOT
ATOM      1  C   UNL     1       5.312  -0.084   1.981  1.00  0.00     0.080 C 
ENDROOT
BRANCH   1   2
ATOM      2  C   UNL     1       4.456   1.123   1.805  1.00  0.00     0.130 C 
ATOM      3  C   UNL     1       4.758   2.150   0.772  1.00  0.00     0.087 C 
ATOM      4  O   UNL     1       3.476   1.304   2.509  1.00  0.00    -0.300 OA
ENDBRANCH   1   2
BRANCH   1   5
ATOM      5  C   UNL     1       6.784   0.274   1.933  1.00  0.00     0.043 C 
BRANCH   5   6
ATOM      6  C   UNL     1       7.387  -0.069   0.632  1.00  0.00    -0.044 A 
ATOM      7  C   UNL     1       7.871   0.918  -0.234  1.00  0.00     0.008 A 
ATOM      8  C   UNL     1       7.484  -1.388   0.252  1.00  0.00     0.054 A 
ATOM      9  C   UNL     1       8.428   0.537  -1.441  1.00  0.00     0.051 A 
ATOM     10  C   UNL     1       8.048  -1.768  -0.970  1.00  0.00     0.166 A 
ATOM     11  C   UNL     1       8.524  -0.798  -1.823  1.00  0.00     0.165 A 
ATOM     12  O   UNL     1       8.256  -2.993  -1.568  1.00  0.00    -0.454 OA
ATOM     13  O   UNL     1       9.019  -1.453  -2.940  1.00  0.00    -0.454 OA
ATOM     14  C   UNL     1       8.952  -2.850  -2.780  1.00  0.00     0.468 C 
ENDBRANCH   5   6
ENDBRANCH   1   5
TORSDOF 3
ENDMDL
