@<TRIPOS>MOLECULE
/home/cewinharhar/GITHUB/reincatalyze/data/processed/docking_pred/2023-May-24-1506_sub9_nm5_bs15_s42_ex16_mel10_mts10000_k50_ec02_g099_lra3e-4_lrc3e-3/5c03b3f969ed47612f71fd8c49d4b8d1b6c55f0c_ligand_9.pdbqt
 14 15 0 0 0
SMALL
GASTEIGER

@<TRIPOS>ATOM
      1  C          5.4800    0.0040    2.0050 C.3     1  UNL1        0.0800
      2  C          4.5810    1.1640    1.7500 C.2     1  UNL1        0.1300
      3  C          4.8650    2.1490    0.6720 C.3     1  UNL1        0.0870
      4  O          3.5790    1.3410    2.4240 O.2     1  UNL1       -0.3000
      5  C          6.8900    0.2840    1.5260 C.3     1  UNL1        0.0430
      6  C          7.2950   -0.6410    0.4520 C.2     1  UNL1       -0.0440
      7  C          7.1360   -0.3100   -0.8990 C.2     1  UNL1        0.0080
      8  C          7.8470   -1.8600    0.7730 C.2     1  UNL1        0.0540
      9  C          7.5350   -1.2170   -1.8640 C.2     1  UNL1        0.0510
     10  C          8.2500   -2.7730   -0.2060 C.2     1  UNL1        0.1660
     11  C          8.0920   -2.4490   -1.5350 C.2     1  UNL1        0.1650
     12  O          8.8160   -4.0290   -0.1440 O.2     1  UNL1       -0.4540
     13  O          8.5700   -3.5230   -2.2690 O.2     1  UNL1       -0.4540
     14  C          9.1210   -4.5080   -1.4280 C.3     1  UNL1        0.4680
@<TRIPOS>BOND
     1    13    11    1
     2    13    14    1
     3     9    11    2
     4     9     7    1
     5    11    10    1
     6    14    12    1
     7     7     6    2
     8    10    12    1
     9    10     8    2
    10     6     8    1
    11     6     5    1
    12     3     2    1
    13     5     1    1
    14     2     1    1
    15     2     4    2
