@<TRIPOS>MOLECULE
/home/cewinharhar/GITHUB/reincatalyze/data/processed/docking_pred/2023-May-24-1506_sub9_nm5_bs15_s42_ex16_mel10_mts10000_k50_ec02_g099_lra3e-4_lrc3e-3/5c03b3f969ed47612f71fd8c49d4b8d1b6c55f0c_ligand_9.pdbqt
 14 15 0 0 0
SMALL
GASTEIGER

@<TRIPOS>ATOM
      1  C          6.3870    1.2000    0.9450 C.3     1  UNL1        0.0800
      2  C          5.6550    0.3660    1.9390 C.2     1  UNL1        0.1300
      3  C          6.2510   -0.8710    2.5100 C.3     1  UNL1        0.0870
      4  O          4.5360    0.6770    2.3140 O.2     1  UNL1       -0.3000
      5  C          5.8850    0.9470   -0.4630 C.3     1  UNL1        0.0430
      6  C          6.8240    0.1150   -1.2360 C.2     1  UNL1       -0.0440
      7  C          7.5100    0.6220   -2.3460 C.2     1  UNL1        0.0080
      8  C          7.0410   -1.1920   -0.8660 C.2     1  UNL1        0.0540
      9  C          8.3790   -0.2050   -3.0330 C.2     1  UNL1        0.0510
     10  C          7.9220   -2.0250   -1.5640 C.2     1  UNL1        0.1660
     11  C          8.5960   -1.5270   -2.6560 C.2     1  UNL1        0.1650
     12  O          8.3030   -3.3390   -1.3970 O.2     1  UNL1       -0.4540
     13  O          9.3860   -2.5570   -3.1430 O.2     1  UNL1       -0.4540
     14  C          9.3000   -3.6960   -2.3210 C.3     1  UNL1        0.4680
@<TRIPOS>BOND
     1    13    11    1
     2    13    14    1
     3     9    11    2
     4     9     7    1
     5    11    10    1
     6     7     6    2
     7    14    12    1
     8    10    12    1
     9    10     8    2
    10     6     8    1
    11     6     5    1
    12     5     1    1
    13     1     2    1
    14     2     4    2
    15     2     3    1
