@<TRIPOS>MOLECULE
/home/cewinharhar/GITHUB/reincatalyze/data/processed/docking_pred/2023-May-24-1506_sub9_nm5_bs15_s42_ex16_mel10_mts10000_k50_ec02_g099_lra3e-4_lrc3e-3/5c03b3f969ed47612f71fd8c49d4b8d1b6c55f0c_ligand_9.pdbqt
 14 15 0 0 0
SMALL
GASTEIGER

@<TRIPOS>ATOM
      1  C          5.7360    1.4240   -0.2870 C.3     1  UNL1        0.0800
      2  C          5.1100    1.2840    1.0580 C.2     1  UNL1        0.1300
      3  C          5.3780    0.1060    1.9250 C.3     1  UNL1        0.0870
      4  O          4.3540    2.1390    1.4890 O.2     1  UNL1       -0.3000
      5  C          7.2290    1.1680   -0.2280 C.3     1  UNL1        0.0430
      6  C          7.5900   -0.1070   -0.8730 C.2     1  UNL1       -0.0440
      7  C          7.6020   -0.2470   -2.2660 C.2     1  UNL1        0.0080
      8  C          7.9270   -1.1930   -0.0970 C.2     1  UNL1        0.0540
      9  C          7.9500   -1.4670   -2.8150 C.2     1  UNL1        0.0510
     10  C          8.2790   -2.4240   -0.6570 C.2     1  UNL1        0.1660
     11  C          8.2900   -2.5630   -2.0270 C.2     1  UNL1        0.1650
     12  O          8.6480   -3.6350   -0.1090 O.2     1  UNL1       -0.4540
     13  O          8.6710   -3.8690   -2.2950 O.2     1  UNL1       -0.4540
     14  C          8.9950   -4.5570   -1.1100 C.3     1  UNL1        0.4680
@<TRIPOS>BOND
     1     9     7    1
     2     9    11    2
     3    13    11    1
     4    13    14    1
     5     7     6    2
     6    11    10    1
     7    14    12    1
     8     6     5    1
     9     6     8    1
    10    10    12    1
    11    10     8    2
    12     1     5    1
    13     1     2    1
    14     2     4    2
    15     2     3    1
