@<TRIPOS>MOLECULE
/home/cewinharhar/GITHUB/reincatalyze/data/processed/docking_pred/2023-May-24-1506_sub9_nm5_bs15_s42_ex16_mel10_mts10000_k50_ec02_g099_lra3e-4_lrc3e-3/5c54d156b22251270ecdcbd3d684e6dc7dd5ede7_ligand_9.pdbqt
 14 15 0 0 0
SMALL
GASTEIGER

@<TRIPOS>ATOM
      1  C          6.3390    1.3030    0.9010 C.3     1  UNL1        0.0800
      2  C          5.6750    0.4290    1.9070 C.2     1  UNL1        0.1300
      3  C          6.3610   -0.7560    2.4870 C.3     1  UNL1        0.0870
      4  O          4.5390    0.6620    2.2870 O.2     1  UNL1       -0.3000
      5  C          5.8360    1.0110   -0.4990 C.3     1  UNL1        0.0430
      6  C          6.7860    0.1790   -1.2590 C.2     1  UNL1       -0.0440
      7  C          7.4980    0.6890   -2.3510 C.2     1  UNL1        0.0080
      8  C          6.9880   -1.1330   -0.8920 C.2     1  UNL1        0.0540
      9  C          8.3770   -0.1390   -3.0250 C.2     1  UNL1        0.0510
     10  C          7.8790   -1.9650   -1.5770 C.2     1  UNL1        0.1660
     11  C          8.5780   -1.4650   -2.6520 C.2     1  UNL1        0.1650
     12  O          8.2490   -3.2830   -1.4110 O.2     1  UNL1       -0.4540
     13  O          9.3730   -2.4950   -3.1290 O.2     1  UNL1       -0.4540
     14  C          9.2630   -3.6390   -2.3160 C.3     1  UNL1        0.4680
@<TRIPOS>BOND
     1    13    11    1
     2    13    14    1
     3     9    11    2
     4     9     7    1
     5    11    10    1
     6     7     6    2
     7    14    12    1
     8    10    12    1
     9    10     8    2
    10     6     8    1
    11     6     5    1
    12     5     1    1
    13     1     2    1
    14     2     4    2
    15     2     3    1
