@<TRIPOS>MOLECULE
/home/cewinharhar/GITHUB/reincatalyze/data/processed/docking_pred/2023-May-24-1506_sub9_nm5_bs15_s42_ex16_mel10_mts10000_k50_ec02_g099_lra3e-4_lrc3e-3/5f00cdda1ab61f28c1ea6d7129614616e9231d70_ligand_9.pdbqt
 14 15 0 0 0
SMALL
GASTEIGER

@<TRIPOS>ATOM
      1  C          6.4210    0.3200   -0.7720 C.3     1  UNL1        0.0800
      2  C          7.1130   -0.4750   -1.8250 C.2     1  UNL1        0.1300
      3  C          8.0980    0.1450   -2.7510 C.3     1  UNL1        0.0870
      4  O          6.8890   -1.6670   -1.9580 O.2     1  UNL1       -0.3000
      5  C          6.6640   -0.2610    0.6060 C.3     1  UNL1        0.0430
      6  C          7.8690    0.3080    1.2350 C.2     1  UNL1       -0.0440
      7  C          7.8290    1.5200    1.9330 C.2     1  UNL1        0.0080
      8  C          9.0680   -0.3620    1.1410 C.2     1  UNL1        0.0540
      9  C          8.9920    2.0050    2.5030 C.2     1  UNL1        0.0510
     10  C         10.2410    0.1320    1.7200 C.2     1  UNL1        0.1660
     11  C         10.2030    1.3260    2.4060 C.2     1  UNL1        0.1650
     12  O         11.5360   -0.3380    1.7660 O.2     1  UNL1       -0.4540
     13  O         11.4880    1.5660    2.8650 O.2     1  UNL1       -0.4540
     14  C         12.3460    0.4920    2.5590 C.3     1  UNL1        0.4680
@<TRIPOS>BOND
     1     3     2    1
     2     4     2    2
     3     2     1    1
     4     1     5    1
     5     5     6    1
     6     8     6    2
     7     8    10    1
     8     6     7    1
     9    10    12    1
    10    10    11    2
    11    12    14    1
    12     7     9    2
    13    11     9    1
    14    11    13    1
    15    14    13    1
