@<TRIPOS>MOLECULE
/home/cewinharhar/GITHUB/reincatalyze/data/processed/docking_pred/2023-May-24-1506_sub9_nm5_bs15_s42_ex16_mel10_mts10000_k50_ec02_g099_lra3e-4_lrc3e-3/5f00cdda1ab61f28c1ea6d7129614616e9231d70_ligand_9.pdbqt
 14 15 0 0 0
SMALL
GASTEIGER

@<TRIPOS>ATOM
      1  C          5.4960    1.9330    1.2690 C.3     1  UNL1        0.0800
      2  C          5.0060    0.7260    1.9930 C.2     1  UNL1        0.1300
      3  C          5.8330   -0.5040    2.1090 C.3     1  UNL1        0.0870
      4  O          3.9030    0.7140    2.5150 O.2     1  UNL1       -0.3000
      5  C          5.3900    1.7540   -0.2320 C.3     1  UNL1        0.0430
      6  C          6.5620    1.0500   -0.7820 C.2     1  UNL1       -0.0440
      7  C          7.8680    1.4620   -0.4910 C.2     1  UNL1        0.0080
      8  C          6.3800   -0.0410   -1.6010 C.2     1  UNL1        0.0540
      9  C          8.9290    0.7620   -1.0360 C.2     1  UNL1        0.0510
     10  C          7.4560   -0.7460   -2.1490 C.2     1  UNL1        0.1660
     11  C          8.7410   -0.3410   -1.8640 C.2     1  UNL1        0.1650
     12  O          7.5360   -1.8440   -2.9780 O.2     1  UNL1       -0.4540
     13  O          9.5920   -1.2090   -2.5300 O.2     1  UNL1       -0.4540
     14  C          8.8720   -2.2320   -3.1750 C.3     1  UNL1        0.4680
@<TRIPOS>BOND
     1    14    12    1
     2    14    13    1
     3    12    10    1
     4    13    11    1
     5    10    11    2
     6    10     8    1
     7    11     9    1
     8     8     6    2
     9     9     7    2
    10     6     7    1
    11     6     5    1
    12     5     1    1
    13     1     2    1
    14     2     3    1
    15     2     4    2
