MODEL 1
REMARK VINA RESULT:      -7.2      0.000      0.000
REMARK SMILES CC(=O)CCc1ccc2c(c1)OCO2
REMARK SMILES IDX 4 1 2 2 1 3 3 4 5 5 6 6 7 7 11 8 8 9 10 10 9 11 12 12 14 13
REMARK SMILES IDX 13 14
REMARK H PARENT
REMARK Flexibility Score: inf
ROOT
ATOM      1  C   UNL     1       5.496   1.933   1.269  1.00  0.00     0.080 C 
ENDROOT
BRANCH   1   2
ATOM      2  C   UNL     1       5.006   0.726   1.993  1.00  0.00     0.130 C 
ATOM      3  C   UNL     1       5.833  -0.504   2.109  1.00  0.00     0.087 C 
ATOM      4  O   UNL     1       3.903   0.714   2.515  1.00  0.00    -0.300 OA
ENDBRANCH   1   2
BRANCH   1   5
ATOM      5  C   UNL     1       5.390   1.754  -0.232  1.00  0.00     0.043 C 
BRANCH   5   6
ATOM      6  C   UNL     1       6.562   1.050  -0.782  1.00  0.00    -0.044 A 
ATOM      7  C   UNL     1       7.868   1.462  -0.491  1.00  0.00     0.008 A 
ATOM      8  C   UNL     1       6.380  -0.041  -1.601  1.00  0.00     0.054 A 
ATOM      9  C   UNL     1       8.929   0.762  -1.036  1.00  0.00     0.051 A 
ATOM     10  C   UNL     1       7.456  -0.746  -2.149  1.00  0.00     0.166 A 
ATOM     11  C   UNL     1       8.741  -0.341  -1.864  1.00  0.00     0.165 A 
ATOM     12  O   UNL     1       7.536  -1.844  -2.978  1.00  0.00    -0.454 OA
ATOM     13  O   UNL     1       9.592  -1.209  -2.530  1.00  0.00    -0.454 OA
ATOM     14  C   UNL     1       8.872  -2.232  -3.175  1.00  0.00     0.468 C 
ENDBRANCH   5   6
ENDBRANCH   1   5
TORSDOF 3
ENDMDL
MODEL 2
REMARK VINA RESULT:      -7.2      2.725      3.974
REMARK SMILES CC(=O)CCc1ccc2c(c1)OCO2
REMARK SMILES IDX 4 1 2 2 1 3 3 4 5 5 6 6 7 7 11 8 8 9 10 10 9 11 12 12 14 13
REMARK SMILES IDX 13 14
REMARK H PARENT
REMARK Flexibility Score: inf
ROOT
ATOM      1  C   UNL     1       9.669   1.297   2.668  1.00  0.00     0.080 C 
ENDROOT
BRANCH   1   2
ATOM      2  C   UNL     1      11.123   0.974   2.681  1.00  0.00     0.130 C 
ATOM      3  C   UNL     1      12.084   1.733   3.526  1.00  0.00     0.087 C 
ATOM      4  O   UNL     1      11.570   0.071   1.993  1.00  0.00    -0.300 OA
ENDBRANCH   1   2
BRANCH   1   5
ATOM      5  C   UNL     1       9.278   2.026   1.397  1.00  0.00     0.043 C 
BRANCH   5   6
ATOM      6  C   UNL     1       8.529   1.153   0.476  1.00  0.00    -0.044 A 
ATOM      7  C   UNL     1       7.135   1.042   0.543  1.00  0.00     0.008 A 
ATOM      8  C   UNL     1       9.205   0.428  -0.479  1.00  0.00     0.054 A 
ATOM      9  C   UNL     1       6.485   0.208  -0.349  1.00  0.00     0.051 A 
ATOM     10  C   UNL     1       8.543  -0.413  -1.378  1.00  0.00     0.166 A 
ATOM     11  C   UNL     1       7.172  -0.525  -1.312  1.00  0.00     0.165 A 
ATOM     12  O   UNL     1       8.982  -1.227  -2.401  1.00  0.00    -0.454 OA
ATOM     13  O   UNL     1       6.794  -1.412  -2.308  1.00  0.00    -0.454 OA
ATOM     14  C   UNL     1       7.900  -1.811  -3.080  1.00  0.00     0.468 C 
ENDBRANCH   5   6
ENDBRANCH   1   5
TORSDOF 3
ENDMDL
MODEL 3
REMARK VINA RESULT:      -7.0      3.495      4.506
REMARK SMILES CC(=O)CCc1ccc2c(c1)OCO2
REMARK SMILES IDX 4 1 2 2 1 3 3 4 5 5 6 6 7 7 11 8 8 9 10 10 9 11 12 12 14 13
REMARK SMILES IDX 13 14
REMARK H PARENT
REMARK Flexibility Score: inf
ROOT
ATOM      1  C   UNL     1       6.135  -0.294   1.294  1.00  0.00     0.080 C 
ENDROOT
BRANCH   1   2
ATOM      2  C   UNL     1       5.136   0.793   1.495  1.00  0.00     0.130 C 
ATOM      3  C   UNL     1       5.025   1.935   0.548  1.00  0.00     0.087 C 
ATOM      4  O   UNL     1       4.376   0.778   2.450  1.00  0.00    -0.300 OA
ENDBRANCH   1   2
BRANCH   1   5
ATOM      5  C   UNL     1       7.285   0.169   0.422  1.00  0.00     0.043 C 
BRANCH   5   6
ATOM      6  C   UNL     1       8.425   0.641   1.227  1.00  0.00    -0.044 A 
ATOM      7  C   UNL     1       8.317   1.753   2.070  1.00  0.00     0.008 A 
ATOM      8  C   UNL     1       9.630  -0.021   1.157  1.00  0.00     0.054 A 
ATOM      9  C   UNL     1       9.421   2.150   2.802  1.00  0.00     0.051 A 
ATOM     10  C   UNL     1      10.743   0.384   1.900  1.00  0.00     0.166 A 
ATOM     11  C   UNL     1      10.638   1.479   2.729  1.00  0.00     0.165 A 
ATOM     12  O   UNL     1      12.031  -0.098   2.003  1.00  0.00    -0.454 OA
ATOM     13  O   UNL     1      11.875   1.646   3.331  1.00  0.00    -0.454 OA
ATOM     14  C   UNL     1      12.761   0.614   2.968  1.00  0.00     0.468 C 
ENDBRANCH   5   6
ENDBRANCH   1   5
TORSDOF 3
ENDMDL
MODEL 4
REMARK VINA RESULT:      -6.9      3.219      4.777
REMARK SMILES CC(=O)CCc1ccc2c(c1)OCO2
REMARK SMILES IDX 4 1 2 2 1 3 3 4 5 5 6 6 7 7 11 8 8 9 10 10 9 11 12 12 14 13
REMARK SMILES IDX 13 14
REMARK H PARENT
REMARK Flexibility Score: inf
ROOT
ATOM      1  C   UNL     1       6.421   0.320  -0.772  1.00  0.00     0.080 C 
ENDROOT
BRANCH   1   2
ATOM      2  C   UNL     1       7.113  -0.475  -1.825  1.00  0.00     0.130 C 
ATOM      3  C   UNL     1       8.098   0.145  -2.751  1.00  0.00     0.087 C 
ATOM      4  O   UNL     1       6.889  -1.667  -1.958  1.00  0.00    -0.300 OA
ENDBRANCH   1   2
BRANCH   1   5
ATOM      5  C   UNL     1       6.664  -0.261   0.606  1.00  0.00     0.043 C 
BRANCH   5   6
ATOM      6  C   UNL     1       7.869   0.308   1.235  1.00  0.00    -0.044 A 
ATOM      7  C   UNL     1       7.829   1.520   1.933  1.00  0.00     0.008 A 
ATOM      8  C   UNL     1       9.068  -0.362   1.141  1.00  0.00     0.054 A 
ATOM      9  C   UNL     1       8.992   2.005   2.503  1.00  0.00     0.051 A 
ATOM     10  C   UNL     1      10.241   0.132   1.720  1.00  0.00     0.166 A 
ATOM     11  C   UNL     1      10.203   1.326   2.406  1.00  0.00     0.165 A 
ATOM     12  O   UNL     1      11.536  -0.338   1.766  1.00  0.00    -0.454 OA
ATOM     13  O   UNL     1      11.488   1.566   2.865  1.00  0.00    -0.454 OA
ATOM     14  C   UNL     1      12.346   0.492   2.559  1.00  0.00     0.468 C 
ENDBRANCH   5   6
ENDBRANCH   1   5
TORSDOF 3
ENDMDL
MODEL 5
REMARK VINA RESULT:      -6.9      3.243      4.230
REMARK SMILES CC(=O)CCc1ccc2c(c1)OCO2
REMARK SMILES IDX 4 1 2 2 1 3 3 4 5 5 6 6 7 7 11 8 8 9 10 10 9 11 12 12 14 13
REMARK SMILES IDX 13 14
REMARK H PARENT
REMARK Flexibility Score: inf
ROOT
ATOM      1  C   UNL     1       5.833   0.959   0.338  1.00  0.00     0.080 C 
ENDROOT
BRANCH   1   2
ATOM      2  C   UNL     1       5.463   0.206   1.568  1.00  0.00     0.130 C 
ATOM      3  C   UNL     1       6.113  -1.086   1.918  1.00  0.00     0.087 C 
ATOM      4  O   UNL     1       4.609   0.630   2.330  1.00  0.00    -0.300 OA
ENDBRANCH   1   2
BRANCH   1   5
ATOM      5  C   UNL     1       6.712   2.150   0.665  1.00  0.00     0.043 C 
BRANCH   5   6
ATOM      6  C   UNL     1       8.110   1.748   0.902  1.00  0.00    -0.044 A 
ATOM      7  C   UNL     1       8.865   1.104  -0.085  1.00  0.00     0.008 A 
ATOM      8  C   UNL     1       8.699   2.010   2.118  1.00  0.00     0.054 A 
ATOM      9  C   UNL     1      10.173   0.752   0.194  1.00  0.00     0.051 A 
ATOM     10  C   UNL     1      10.022   1.652   2.395  1.00  0.00     0.166 A 
ATOM     11  C   UNL     1      10.765   1.017   1.425  1.00  0.00     0.165 A 
ATOM     12  O   UNL     1      10.822   1.799   3.508  1.00  0.00    -0.454 OA
ATOM     13  O   UNL     1      12.019   0.786   1.967  1.00  0.00    -0.454 OA
ATOM     14  C   UNL     1      12.127   1.347   3.254  1.00  0.00     0.468 C 
ENDBRANCH   5   6
ENDBRANCH   1   5
TORSDOF 3
ENDMDL
