@<TRIPOS>MOLECULE
/home/cewinharhar/GITHUB/reincatalyze/data/processed/docking_pred/2023-May-24-1506_sub9_nm5_bs15_s42_ex16_mel10_mts10000_k50_ec02_g099_lra3e-4_lrc3e-3/5f00cdda1ab61f28c1ea6d7129614616e9231d70_ligand_9.pdbqt
 14 15 0 0 0
SMALL
GASTEIGER

@<TRIPOS>ATOM
      1  C          9.6690    1.2970    2.6680 C.3     1  UNL1        0.0800
      2  C         11.1230    0.9740    2.6810 C.2     1  UNL1        0.1300
      3  C         12.0840    1.7330    3.5260 C.3     1  UNL1        0.0870
      4  O         11.5700    0.0710    1.9930 O.2     1  UNL1       -0.3000
      5  C          9.2780    2.0260    1.3970 C.3     1  UNL1        0.0430
      6  C          8.5290    1.1530    0.4760 C.2     1  UNL1       -0.0440
      7  C          7.1350    1.0420    0.5430 C.2     1  UNL1        0.0080
      8  C          9.2050    0.4280   -0.4790 C.2     1  UNL1        0.0540
      9  C          6.4850    0.2080   -0.3490 C.2     1  UNL1        0.0510
     10  C          8.5430   -0.4130   -1.3780 C.2     1  UNL1        0.1660
     11  C          7.1720   -0.5250   -1.3120 C.2     1  UNL1        0.1650
     12  O          8.9820   -1.2270   -2.4010 O.2     1  UNL1       -0.4540
     13  O          6.7940   -1.4120   -2.3080 O.2     1  UNL1       -0.4540
     14  C          7.9000   -1.8110   -3.0800 C.3     1  UNL1        0.4680
@<TRIPOS>BOND
     1    14    12    1
     2    14    13    1
     3    12    10    1
     4    13    11    1
     5    10    11    2
     6    10     8    1
     7    11     9    1
     8     8     6    2
     9     9     7    2
    10     6     7    1
    11     6     5    1
    12     5     1    1
    13     4     2    2
    14     1     2    1
    15     2     3    1
