@<TRIPOS>MOLECULE
/home/cewinharhar/GITHUB/reincatalyze/data/processed/docking_pred/2023-May-24-1506_sub9_nm5_bs15_s42_ex16_mel10_mts10000_k50_ec02_g099_lra3e-4_lrc3e-3/5f7ce1df4e505eeb6c5bd28a98530cf3f623dbf2_ligand_9.pdbqt
 14 15 0 0 0
SMALL
GASTEIGER

@<TRIPOS>ATOM
      1  C          5.4030   -0.0590    2.0300 C.3     1  UNL1        0.0800
      2  C          4.5440    1.1310    1.7730 C.2     1  UNL1        0.1300
      3  C          4.8790    2.1220    0.7160 C.3     1  UNL1        0.0870
      4  O          3.5340    1.3280    2.4290 O.2     1  UNL1       -0.3000
      5  C          6.8370    0.1970    1.6130 C.3     1  UNL1        0.0430
      6  C          7.2590   -0.7030    0.5250 C.2     1  UNL1       -0.0440
      7  C          7.1050   -0.3500   -0.8210 C.2     1  UNL1        0.0080
      8  C          7.8230   -1.9220    0.8280 C.2     1  UNL1        0.0540
      9  C          7.5200   -1.2360   -1.7990 C.2     1  UNL1        0.0510
     10  C          8.2420   -2.8130   -0.1640 C.2     1  UNL1        0.1660
     11  C          8.0890   -2.4670   -1.4890 C.2     1  UNL1        0.1650
     12  O          8.8200   -4.0640   -0.1210 O.2     1  UNL1       -0.4540
     13  O          8.5830   -3.5230   -2.2380 O.2     1  UNL1       -0.4540
     14  C          9.1390   -4.5170   -1.4120 C.3     1  UNL1        0.4680
@<TRIPOS>BOND
     1    13    11    1
     2    13    14    1
     3     9    11    2
     4     9     7    1
     5    11    10    1
     6    14    12    1
     7     7     6    2
     8    10    12    1
     9    10     8    2
    10     6     8    1
    11     6     5    1
    12     3     2    1
    13     5     1    1
    14     2     1    1
    15     2     4    2
