@<TRIPOS>MOLECULE
/home/cewinharhar/GITHUB/reincatalyze/data/processed/docking_pred/2023-May-24-1506_sub9_nm5_bs15_s42_ex16_mel10_mts10000_k50_ec02_g099_lra3e-4_lrc3e-3/5f7ce1df4e505eeb6c5bd28a98530cf3f623dbf2_ligand_9.pdbqt
 14 15 0 0 0
SMALL
GASTEIGER

@<TRIPOS>ATOM
      1  C          6.9020    1.1880    1.3900 C.3     1  UNL1        0.0800
      2  C          5.4150    1.2840    1.3750 C.2     1  UNL1        0.1300
      3  C          4.6990    2.1500    0.4000 C.3     1  UNL1        0.0870
      4  O          4.7380    0.6520    2.1700 O.2     1  UNL1       -0.3000
      5  C          7.4810    1.4050    0.0060 C.3     1  UNL1        0.0430
      6  C          7.7060    0.1310   -0.6990 C.2     1  UNL1       -0.0440
      7  C          7.5520    0.0240   -2.0860 C.2     1  UNL1        0.0080
      8  C          8.0780   -0.9860    0.0130 C.2     1  UNL1        0.0540
      9  C          7.7780   -1.1980   -2.6940 C.2     1  UNL1        0.0510
     10  C          8.3050   -2.2190   -0.6060 C.2     1  UNL1        0.1660
     11  C          8.1530   -2.3260   -1.9710 C.2     1  UNL1        0.1650
     12  O          8.6760   -3.4570   -0.1270 O.2     1  UNL1       -0.4540
     13  O          8.4380   -3.6410   -2.3040 O.2     1  UNL1       -0.4540
     14  C          8.8630   -4.3700   -1.1780 C.3     1  UNL1        0.4680
@<TRIPOS>BOND
     1     9     7    1
     2     9    11    2
     3    13    11    1
     4    13    14    1
     5     7     6    2
     6    11    10    1
     7    14    12    1
     8     6     5    1
     9     6     8    1
    10    10    12    1
    11    10     8    2
    12     5     1    1
    13     3     2    1
    14     2     1    1
    15     2     4    2
