@<TRIPOS>MOLECULE
/home/cewinharhar/GITHUB/reincatalyze/data/processed/docking_pred/2023-May-24-1506_sub9_nm5_bs15_s42_ex16_mel10_mts10000_k50_ec02_g099_lra3e-4_lrc3e-3/5f7ce1df4e505eeb6c5bd28a98530cf3f623dbf2_ligand_9.pdbqt
 14 15 0 0 0
SMALL
GASTEIGER

@<TRIPOS>ATOM
      1  C          5.6850    1.2860   -0.3420 C.3     1  UNL1        0.0800
      2  C          5.1180    1.2520    1.0350 C.2     1  UNL1        0.1300
      3  C          5.4050    0.1310    1.9700 C.3     1  UNL1        0.0870
      4  O          4.3970    2.1500    1.4390 O.2     1  UNL1       -0.3000
      5  C          7.1890    1.0990   -0.3230 C.3     1  UNL1        0.0430
      6  C          7.5890   -0.1790   -0.9380 C.2     1  UNL1       -0.0440
      7  C          7.6980   -0.3220   -2.3260 C.2     1  UNL1        0.0080
      8  C          7.8660   -1.2640   -0.1370 C.2     1  UNL1        0.0540
      9  C          8.0780   -1.5460   -2.8460 C.2     1  UNL1        0.0510
     10  C          8.2510   -2.4990   -0.6680 C.2     1  UNL1        0.1660
     11  C          8.3570   -2.6410   -2.0340 C.2     1  UNL1        0.1650
     12  O          8.5750   -3.7090   -0.0930 O.2     1  UNL1       -0.4540
     13  O          8.7490   -3.9490   -2.2710 O.2     1  UNL1       -0.4540
     14  C          8.9860   -4.6350   -1.0650 C.3     1  UNL1        0.4680
@<TRIPOS>BOND
     1     9     7    1
     2     9    11    2
     3     7     6    2
     4    13    11    1
     5    13    14    1
     6    11    10    1
     7    14    12    1
     8     6     5    1
     9     6     8    1
    10    10     8    2
    11    10    12    1
    12     1     5    1
    13     1     2    1
    14     2     4    2
    15     2     3    1
