MODEL 1
REMARK VINA RESULT:      -7.5      0.000      0.000
REMARK SMILES CC(=O)CCc1ccc2c(c1)OCO2
REMARK SMILES IDX 4 1 2 2 1 3 3 4 5 5 6 6 7 7 11 8 8 9 10 10 9 11 12 12 14 13
REMARK SMILES IDX 13 14
REMARK H PARENT
REMARK Flexibility Score: inf
ROOT
ATOM      1  C   UNL     1       5.567   1.890   1.300  1.00  0.00     0.080 C 
ENDROOT
BRANCH   1   2
ATOM      2  C   UNL     1       5.119   0.670   2.029  1.00  0.00     0.130 C 
ATOM      3  C   UNL     1       6.008  -0.511   2.194  1.00  0.00     0.087 C 
ATOM      4  O   UNL     1       4.002   0.606   2.515  1.00  0.00    -0.300 OA
ENDBRANCH   1   2
BRANCH   1   5
ATOM      5  C   UNL     1       5.429   1.716  -0.199  1.00  0.00     0.043 C 
BRANCH   5   6
ATOM      6  C   UNL     1       6.591   1.017  -0.778  1.00  0.00    -0.044 A 
ATOM      7  C   UNL     1       7.899   1.460  -0.552  1.00  0.00     0.008 A 
ATOM      8  C   UNL     1       6.396  -0.100  -1.558  1.00  0.00     0.054 A 
ATOM      9  C   UNL     1       8.950   0.763  -1.120  1.00  0.00     0.051 A 
ATOM     10  C   UNL     1       7.462  -0.801  -2.130  1.00  0.00     0.166 A 
ATOM     11  C   UNL     1       8.750  -0.366  -1.909  1.00  0.00     0.165 A 
ATOM     12  O   UNL     1       7.528  -1.921  -2.931  1.00  0.00    -0.454 OA
ATOM     13  O   UNL     1       9.589  -1.237  -2.586  1.00  0.00    -0.454 OA
ATOM     14  C   UNL     1       8.862  -2.290  -3.172  1.00  0.00     0.468 C 
ENDBRANCH   5   6
ENDBRANCH   1   5
TORSDOF 3
ENDMDL
MODEL 2
REMARK VINA RESULT:      -7.2      1.871      2.350
REMARK SMILES CC(=O)CCc1ccc2c(c1)OCO2
REMARK SMILES IDX 4 1 2 2 1 3 3 4 5 5 6 6 7 7 11 8 8 9 10 10 9 11 12 12 14 13
REMARK SMILES IDX 13 14
REMARK H PARENT
REMARK Flexibility Score: inf
ROOT
ATOM      1  C   UNL     1       5.685   1.286  -0.342  1.00  0.00     0.080 C 
ENDROOT
BRANCH   1   2
ATOM      2  C   UNL     1       5.118   1.252   1.035  1.00  0.00     0.130 C 
ATOM      3  C   UNL     1       5.405   0.131   1.970  1.00  0.00     0.087 C 
ATOM      4  O   UNL     1       4.397   2.150   1.439  1.00  0.00    -0.300 OA
ENDBRANCH   1   2
BRANCH   1   5
ATOM      5  C   UNL     1       7.189   1.099  -0.323  1.00  0.00     0.043 C 
BRANCH   5   6
ATOM      6  C   UNL     1       7.589  -0.179  -0.938  1.00  0.00    -0.044 A 
ATOM      7  C   UNL     1       7.698  -0.322  -2.326  1.00  0.00     0.008 A 
ATOM      8  C   UNL     1       7.866  -1.264  -0.137  1.00  0.00     0.054 A 
ATOM      9  C   UNL     1       8.078  -1.546  -2.846  1.00  0.00     0.051 A 
ATOM     10  C   UNL     1       8.251  -2.499  -0.668  1.00  0.00     0.166 A 
ATOM     11  C   UNL     1       8.357  -2.641  -2.034  1.00  0.00     0.165 A 
ATOM     12  O   UNL     1       8.575  -3.709  -0.093  1.00  0.00    -0.454 OA
ATOM     13  O   UNL     1       8.749  -3.949  -2.271  1.00  0.00    -0.454 OA
ATOM     14  C   UNL     1       8.986  -4.635  -1.065  1.00  0.00     0.468 C 
ENDBRANCH   5   6
ENDBRANCH   1   5
TORSDOF 3
ENDMDL
MODEL 3
REMARK VINA RESULT:      -6.9      1.241      1.446
REMARK SMILES CC(=O)CCc1ccc2c(c1)OCO2
REMARK SMILES IDX 4 1 2 2 1 3 3 4 5 5 6 6 7 7 11 8 8 9 10 10 9 11 12 12 14 13
REMARK SMILES IDX 13 14
REMARK H PARENT
REMARK Flexibility Score: inf
ROOT
ATOM      1  C   UNL     1       6.375   1.207   0.888  1.00  0.00     0.080 C 
ENDROOT
BRANCH   1   2
ATOM      2  C   UNL     1       5.672   0.391   1.917  1.00  0.00     0.130 C 
ATOM      3  C   UNL     1       6.293  -0.825   2.506  1.00  0.00     0.087 C 
ATOM      4  O   UNL     1       4.558   0.699   2.307  1.00  0.00    -0.300 OA
ENDBRANCH   1   2
BRANCH   1   5
ATOM      5  C   UNL     1       5.865   0.895  -0.505  1.00  0.00     0.043 C 
BRANCH   5   6
ATOM      6  C   UNL     1       6.827   0.081  -1.270  1.00  0.00    -0.044 A 
ATOM      7  C   UNL     1       7.542   0.613  -2.349  1.00  0.00     0.008 A 
ATOM      8  C   UNL     1       7.038  -1.233  -0.921  1.00  0.00     0.054 A 
ATOM      9  C   UNL     1       8.432  -0.198  -3.029  1.00  0.00     0.051 A 
ATOM     10  C   UNL     1       7.940  -2.049  -1.611  1.00  0.00     0.166 A 
ATOM     11  C   UNL     1       8.643  -1.527  -2.674  1.00  0.00     0.165 A 
ATOM     12  O   UNL     1       8.320  -3.365  -1.462  1.00  0.00    -0.454 OA
ATOM     13  O   UNL     1       9.449  -2.544  -3.160  1.00  0.00    -0.454 OA
ATOM     14  C   UNL     1       9.343  -3.700  -2.364  1.00  0.00     0.468 C 
ENDBRANCH   5   6
ENDBRANCH   1   5
TORSDOF 3
ENDMDL
MODEL 4
REMARK VINA RESULT:      -6.9      1.995      2.571
REMARK SMILES CC(=O)CCc1ccc2c(c1)OCO2
REMARK SMILES IDX 4 1 2 2 1 3 3 4 5 5 6 6 7 7 11 8 8 9 10 10 9 11 12 12 14 13
REMARK SMILES IDX 13 14
REMARK H PARENT
REMARK Flexibility Score: inf
ROOT
ATOM      1  C   UNL     1       5.403  -0.059   2.030  1.00  0.00     0.080 C 
ENDROOT
BRANCH   1   2
ATOM      2  C   UNL     1       4.544   1.131   1.773  1.00  0.00     0.130 C 
ATOM      3  C   UNL     1       4.879   2.122   0.716  1.00  0.00     0.087 C 
ATOM      4  O   UNL     1       3.534   1.328   2.429  1.00  0.00    -0.300 OA
ENDBRANCH   1   2
BRANCH   1   5
ATOM      5  C   UNL     1       6.837   0.197   1.613  1.00  0.00     0.043 C 
BRANCH   5   6
ATOM      6  C   UNL     1       7.259  -0.703   0.525  1.00  0.00    -0.044 A 
ATOM      7  C   UNL     1       7.105  -0.350  -0.821  1.00  0.00     0.008 A 
ATOM      8  C   UNL     1       7.823  -1.922   0.828  1.00  0.00     0.054 A 
ATOM      9  C   UNL     1       7.520  -1.236  -1.799  1.00  0.00     0.051 A 
ATOM     10  C   UNL     1       8.242  -2.813  -0.164  1.00  0.00     0.166 A 
ATOM     11  C   UNL     1       8.089  -2.467  -1.489  1.00  0.00     0.165 A 
ATOM     12  O   UNL     1       8.820  -4.064  -0.121  1.00  0.00    -0.454 OA
ATOM     13  O   UNL     1       8.583  -3.523  -2.238  1.00  0.00    -0.454 OA
ATOM     14  C   UNL     1       9.139  -4.517  -1.412  1.00  0.00     0.468 C 
ENDBRANCH   5   6
ENDBRANCH   1   5
TORSDOF 3
ENDMDL
MODEL 5
REMARK VINA RESULT:      -6.6      1.764      2.343
REMARK SMILES CC(=O)CCc1ccc2c(c1)OCO2
REMARK SMILES IDX 4 1 2 2 1 3 3 4 5 5 6 6 7 7 11 8 8 9 10 10 9 11 12 12 14 13
REMARK SMILES IDX 13 14
REMARK H PARENT
REMARK Flexibility Score: inf
ROOT
ATOM      1  C   UNL     1       6.902   1.188   1.390  1.00  0.00     0.080 C 
ENDROOT
BRANCH   1   2
ATOM      2  C   UNL     1       5.415   1.284   1.375  1.00  0.00     0.130 C 
ATOM      3  C   UNL     1       4.699   2.150   0.400  1.00  0.00     0.087 C 
ATOM      4  O   UNL     1       4.738   0.652   2.170  1.00  0.00    -0.300 OA
ENDBRANCH   1   2
BRANCH   1   5
ATOM      5  C   UNL     1       7.481   1.405   0.006  1.00  0.00     0.043 C 
BRANCH   5   6
ATOM      6  C   UNL     1       7.706   0.131  -0.699  1.00  0.00    -0.044 A 
ATOM      7  C   UNL     1       7.552   0.024  -2.086  1.00  0.00     0.008 A 
ATOM      8  C   UNL     1       8.078  -0.986   0.013  1.00  0.00     0.054 A 
ATOM      9  C   UNL     1       7.778  -1.198  -2.694  1.00  0.00     0.051 A 
ATOM     10  C   UNL     1       8.305  -2.219  -0.606  1.00  0.00     0.166 A 
ATOM     11  C   UNL     1       8.153  -2.326  -1.971  1.00  0.00     0.165 A 
ATOM     12  O   UNL     1       8.676  -3.457  -0.127  1.00  0.00    -0.454 OA
ATOM     13  O   UNL     1       8.438  -3.641  -2.304  1.00  0.00    -0.454 OA
ATOM     14  C   UNL     1       8.863  -4.370  -1.178  1.00  0.00     0.468 C 
ENDBRANCH   5   6
ENDBRANCH   1   5
TORSDOF 3
ENDMDL
