@<TRIPOS>MOLECULE
/home/cewinharhar/GITHUB/reincatalyze/data/processed/docking_pred/2023-May-24-1506_sub9_nm5_bs15_s42_ex16_mel10_mts10000_k50_ec02_g099_lra3e-4_lrc3e-3/6047b5c71b47d2a809e14c46b0582b8ae3076bc9_ligand_9.pdbqt
 14 15 0 0 0
SMALL
GASTEIGER

@<TRIPOS>ATOM
      1  C          8.5650    0.2290   -2.6210 C.3     1  UNL1        0.0800
      2  C          8.4660   -1.2500   -2.7650 C.2     1  UNL1        0.1300
      3  C          7.1510   -1.9380   -2.8700 C.3     1  UNL1        0.0870
      4  O          9.4680   -1.9450   -2.7990 O.2     1  UNL1       -0.3000
      5  C          9.0260    0.6180   -1.2310 C.3     1  UNL1        0.0430
      6  C          7.9570    0.4430   -0.2310 C.2     1  UNL1       -0.0440
      7  C          8.0160   -0.5650    0.7380 C.2     1  UNL1        0.0080
      8  C          6.8700    1.2880   -0.2410 C.2     1  UNL1        0.0540
      9  C          6.9840   -0.6790    1.6510 C.2     1  UNL1        0.0510
     10  C          5.8290    1.1690    0.6850 C.2     1  UNL1        0.1660
     11  C          5.8860    0.1760    1.6380 C.2     1  UNL1        0.1650
     12  O          4.6600    1.8720    0.8800 O.2     1  UNL1       -0.4540
     13  O          4.7390    0.2930    2.4070 O.2     1  UNL1       -0.4540
     14  C          3.9780    1.4120    2.0190 C.3     1  UNL1        0.4680
@<TRIPOS>BOND
     1     3     2    1
     2     4     2    2
     3     2     1    1
     4     1     5    1
     5     5     6    1
     6     8     6    2
     7     8    10    1
     8     6     7    1
     9    10    12    1
    10    10    11    2
    11     7     9    2
    12    12    14    1
    13    11     9    1
    14    11    13    1
    15    14    13    1
