@<TRIPOS>MOLECULE
/home/cewinharhar/GITHUB/reincatalyze/data/processed/docking_pred/2023-May-24-1506_sub9_nm5_bs15_s42_ex16_mel10_mts10000_k50_ec02_g099_lra3e-4_lrc3e-3/6070aa1b8336213875ea865ca7f6d729a9af33a9_ligand_9.pdbqt
 14 15 0 0 0
SMALL
GASTEIGER

@<TRIPOS>ATOM
      1  C          5.4200   -0.0520    2.0260 C.3     1  UNL1        0.0800
      2  C          4.5690    1.1430    1.7680 C.2     1  UNL1        0.1300
      3  C          4.9090    2.1280    0.7070 C.3     1  UNL1        0.0870
      4  O          3.5620    1.3490    2.4250 O.2     1  UNL1       -0.3000
      5  C          6.8570    0.1950    1.6110 C.3     1  UNL1        0.0430
      6  C          7.2840   -0.7290    0.5460 C.2     1  UNL1       -0.0440
      7  C          7.1640   -0.3950   -0.8080 C.2     1  UNL1        0.0080
      8  C          7.8190   -1.9530    0.8790 C.2     1  UNL1        0.0540
      9  C          7.5830   -1.3020   -1.7640 C.2     1  UNL1        0.0510
     10  C          8.2420   -2.8670   -0.0910 C.2     1  UNL1        0.1660
     11  C          8.1220   -2.5390   -1.4230 C.2     1  UNL1        0.1650
     12  O          8.7970   -4.1270   -0.0170 O.2     1  UNL1       -0.4540
     13  O          8.6130   -3.6140   -2.1470 O.2     1  UNL1       -0.4540
     14  C          9.1340   -4.6050   -1.2940 C.3     1  UNL1        0.4680
@<TRIPOS>BOND
     1    13    11    1
     2    13    14    1
     3     9    11    2
     4     9     7    1
     5    11    10    1
     6    14    12    1
     7     7     6    2
     8    10    12    1
     9    10     8    2
    10     6     8    1
    11     6     5    1
    12     3     2    1
    13     5     1    1
    14     2     1    1
    15     2     4    2
