MODEL 1
REMARK VINA RESULT:      -7.6      0.000      0.000
REMARK SMILES CC(=O)CCc1ccc2c(c1)OCO2
REMARK SMILES IDX 4 1 2 2 1 3 3 4 5 5 6 6 7 7 11 8 8 9 10 10 9 11 12 12 14 13
REMARK SMILES IDX 13 14
REMARK H PARENT
REMARK Flexibility Score: inf
ROOT
ATOM      1  C   UNL     1       5.546   1.895   1.287  1.00  0.00     0.080 C 
ENDROOT
BRANCH   1   2
ATOM      2  C   UNL     1       5.108   0.672   2.016  1.00  0.00     0.130 C 
ATOM      3  C   UNL     1       6.007  -0.500   2.184  1.00  0.00     0.087 C 
ATOM      4  O   UNL     1       3.990   0.598   2.500  1.00  0.00    -0.300 OA
ENDBRANCH   1   2
BRANCH   1   5
ATOM      5  C   UNL     1       5.415   1.718  -0.213  1.00  0.00     0.043 C 
BRANCH   5   6
ATOM      6  C   UNL     1       6.577   1.015  -0.784  1.00  0.00    -0.044 A 
ATOM      7  C   UNL     1       7.886   1.445  -0.540  1.00  0.00     0.008 A 
ATOM      8  C   UNL     1       6.383  -0.094  -1.575  1.00  0.00     0.054 A 
ATOM      9  C   UNL     1       8.939   0.745  -1.102  1.00  0.00     0.051 A 
ATOM     10  C   UNL     1       7.450  -0.799  -2.140  1.00  0.00     0.166 A 
ATOM     11  C   UNL     1       8.738  -0.376  -1.902  1.00  0.00     0.165 A 
ATOM     12  O   UNL     1       7.516  -1.913  -2.949  1.00  0.00    -0.454 OA
ATOM     13  O   UNL     1       9.578  -1.248  -2.576  1.00  0.00    -0.454 OA
ATOM     14  C   UNL     1       8.850  -2.291  -3.178  1.00  0.00     0.468 C 
ENDBRANCH   5   6
ENDBRANCH   1   5
TORSDOF 3
ENDMDL
MODEL 2
REMARK VINA RESULT:      -7.5      1.909      2.352
REMARK SMILES CC(=O)CCc1ccc2c(c1)OCO2
REMARK SMILES IDX 4 1 2 2 1 3 3 4 5 5 6 6 7 7 11 8 8 9 10 10 9 11 12 12 14 13
REMARK SMILES IDX 13 14
REMARK H PARENT
REMARK Flexibility Score: inf
ROOT
ATOM      1  C   UNL     1       5.723   1.376  -0.274  1.00  0.00     0.080 C 
ENDROOT
BRANCH   1   2
ATOM      2  C   UNL     1       5.082   1.263   1.066  1.00  0.00     0.130 C 
ATOM      3  C   UNL     1       5.365   0.118   1.972  1.00  0.00     0.087 C 
ATOM      4  O   UNL     1       4.301   2.113   1.460  1.00  0.00    -0.300 OA
ENDBRANCH   1   2
BRANCH   1   5
ATOM      5  C   UNL     1       7.216   1.126  -0.193  1.00  0.00     0.043 C 
BRANCH   5   6
ATOM      6  C   UNL     1       7.591  -0.155  -0.818  1.00  0.00    -0.044 A 
ATOM      7  C   UNL     1       7.655  -0.302  -2.208  1.00  0.00     0.008 A 
ATOM      8  C   UNL     1       7.889  -1.239  -0.024  1.00  0.00     0.054 A 
ATOM      9  C   UNL     1       8.013  -1.528  -2.738  1.00  0.00     0.051 A 
ATOM     10  C   UNL     1       8.252  -2.477  -0.565  1.00  0.00     0.166 A 
ATOM     11  C   UNL     1       8.314  -2.622  -1.933  1.00  0.00     0.165 A 
ATOM     12  O   UNL     1       8.589  -3.687   0.003  1.00  0.00    -0.454 OA
ATOM     13  O   UNL     1       8.693  -3.932  -2.180  1.00  0.00    -0.454 OA
ATOM     14  C   UNL     1       8.966  -4.617  -0.980  1.00  0.00     0.468 C 
ENDBRANCH   5   6
ENDBRANCH   1   5
TORSDOF 3
ENDMDL
MODEL 3
REMARK VINA RESULT:      -7.3      2.053      2.622
REMARK SMILES CC(=O)CCc1ccc2c(c1)OCO2
REMARK SMILES IDX 4 1 2 2 1 3 3 4 5 5 6 6 7 7 11 8 8 9 10 10 9 11 12 12 14 13
REMARK SMILES IDX 13 14
REMARK H PARENT
REMARK Flexibility Score: inf
ROOT
ATOM      1  C   UNL     1       5.420  -0.052   2.026  1.00  0.00     0.080 C 
ENDROOT
BRANCH   1   2
ATOM      2  C   UNL     1       4.569   1.143   1.768  1.00  0.00     0.130 C 
ATOM      3  C   UNL     1       4.909   2.128   0.707  1.00  0.00     0.087 C 
ATOM      4  O   UNL     1       3.562   1.349   2.425  1.00  0.00    -0.300 OA
ENDBRANCH   1   2
BRANCH   1   5
ATOM      5  C   UNL     1       6.857   0.195   1.611  1.00  0.00     0.043 C 
BRANCH   5   6
ATOM      6  C   UNL     1       7.284  -0.729   0.546  1.00  0.00    -0.044 A 
ATOM      7  C   UNL     1       7.164  -0.395  -0.808  1.00  0.00     0.008 A 
ATOM      8  C   UNL     1       7.819  -1.953   0.879  1.00  0.00     0.054 A 
ATOM      9  C   UNL     1       7.583  -1.302  -1.764  1.00  0.00     0.051 A 
ATOM     10  C   UNL     1       8.242  -2.867  -0.091  1.00  0.00     0.166 A 
ATOM     11  C   UNL     1       8.122  -2.539  -1.423  1.00  0.00     0.165 A 
ATOM     12  O   UNL     1       8.797  -4.127  -0.017  1.00  0.00    -0.454 OA
ATOM     13  O   UNL     1       8.613  -3.614  -2.147  1.00  0.00    -0.454 OA
ATOM     14  C   UNL     1       9.134  -4.605  -1.294  1.00  0.00     0.468 C 
ENDBRANCH   5   6
ENDBRANCH   1   5
TORSDOF 3
ENDMDL
MODEL 4
REMARK VINA RESULT:      -7.1      1.240      1.435
REMARK SMILES CC(=O)CCc1ccc2c(c1)OCO2
REMARK SMILES IDX 4 1 2 2 1 3 3 4 5 5 6 6 7 7 11 8 8 9 10 10 9 11 12 12 14 13
REMARK SMILES IDX 13 14
REMARK H PARENT
REMARK Flexibility Score: inf
ROOT
ATOM      1  C   UNL     1       6.375   1.244   0.929  1.00  0.00     0.080 C 
ENDROOT
BRANCH   1   2
ATOM      2  C   UNL     1       5.671   0.387   1.923  1.00  0.00     0.130 C 
ATOM      3  C   UNL     1       6.310  -0.828   2.498  1.00  0.00     0.087 C 
ATOM      4  O   UNL     1       4.542   0.658   2.296  1.00  0.00    -0.300 OA
ENDBRANCH   1   2
BRANCH   1   5
ATOM      5  C   UNL     1       5.875   0.981  -0.477  1.00  0.00     0.043 C 
BRANCH   5   6
ATOM      6  C   UNL     1       6.815   0.145  -1.245  1.00  0.00    -0.044 A 
ATOM      7  C   UNL     1       7.509   0.649  -2.351  1.00  0.00     0.008 A 
ATOM      8  C   UNL     1       7.025  -1.164  -0.872  1.00  0.00     0.054 A 
ATOM      9  C   UNL     1       8.380  -0.183  -3.032  1.00  0.00     0.051 A 
ATOM     10  C   UNL     1       7.907  -2.000  -1.564  1.00  0.00     0.166 A 
ATOM     11  C   UNL     1       8.589  -1.505  -2.653  1.00  0.00     0.165 A 
ATOM     12  O   UNL     1       8.282  -3.315  -1.395  1.00  0.00    -0.454 OA
ATOM     13  O   UNL     1       9.379  -2.538  -3.134  1.00  0.00    -0.454 OA
ATOM     14  C   UNL     1       9.283  -3.676  -2.312  1.00  0.00     0.468 C 
ENDBRANCH   5   6
ENDBRANCH   1   5
TORSDOF 3
ENDMDL
MODEL 5
REMARK VINA RESULT:      -7.1      1.976      2.520
REMARK SMILES CC(=O)CCc1ccc2c(c1)OCO2
REMARK SMILES IDX 4 1 2 2 1 3 3 4 5 5 6 6 7 7 11 8 8 9 10 10 9 11 12 12 14 13
REMARK SMILES IDX 13 14
REMARK H PARENT
REMARK Flexibility Score: inf
ROOT
ATOM      1  C   UNL     1       6.820   0.761   1.474  1.00  0.00     0.080 C 
ENDROOT
BRANCH   1   2
ATOM      2  C   UNL     1       5.384   1.154   1.513  1.00  0.00     0.130 C 
ATOM      3  C   UNL     1       4.821   2.150   0.562  1.00  0.00     0.087 C 
ATOM      4  O   UNL     1       4.623   0.668   2.333  1.00  0.00    -0.300 OA
ENDBRANCH   1   2
BRANCH   1   5
ATOM      5  C   UNL     1       7.421   1.006   0.104  1.00  0.00     0.043 C 
BRANCH   5   6
ATOM      6  C   UNL     1       7.712  -0.256  -0.599  1.00  0.00    -0.044 A 
ATOM      7  C   UNL     1       7.683  -0.340  -1.996  1.00  0.00     0.008 A 
ATOM      8  C   UNL     1       8.023  -1.384   0.125  1.00  0.00     0.054 A 
ATOM      9  C   UNL     1       7.965  -1.551  -2.601  1.00  0.00     0.051 A 
ATOM     10  C   UNL     1       8.308  -2.606  -0.492  1.00  0.00     0.166 A 
ATOM     11  C   UNL     1       8.278  -2.690  -1.866  1.00  0.00     0.165 A 
ATOM     12  O   UNL     1       8.639  -3.852  -0.002  1.00  0.00    -0.454 OA
ATOM     13  O   UNL     1       8.596  -3.999  -2.195  1.00  0.00    -0.454 OA
ATOM     14  C   UNL     1       8.921  -4.746  -1.047  1.00  0.00     0.468 C 
ENDBRANCH   5   6
ENDBRANCH   1   5
TORSDOF 3
ENDMDL
