@<TRIPOS>MOLECULE
/home/cewinharhar/GITHUB/reincatalyze/data/processed/docking_pred/2023-May-24-1506_sub9_nm5_bs15_s42_ex16_mel10_mts10000_k50_ec02_g099_lra3e-4_lrc3e-3/6070aa1b8336213875ea865ca7f6d729a9af33a9_ligand_9.pdbqt
 14 15 0 0 0
SMALL
GASTEIGER

@<TRIPOS>ATOM
      1  C          6.8200    0.7610    1.4740 C.3     1  UNL1        0.0800
      2  C          5.3840    1.1540    1.5130 C.2     1  UNL1        0.1300
      3  C          4.8210    2.1500    0.5620 C.3     1  UNL1        0.0870
      4  O          4.6230    0.6680    2.3330 O.2     1  UNL1       -0.3000
      5  C          7.4210    1.0060    0.1040 C.3     1  UNL1        0.0430
      6  C          7.7120   -0.2560   -0.5990 C.2     1  UNL1       -0.0440
      7  C          7.6830   -0.3400   -1.9960 C.2     1  UNL1        0.0080
      8  C          8.0230   -1.3840    0.1250 C.2     1  UNL1        0.0540
      9  C          7.9650   -1.5510   -2.6010 C.2     1  UNL1        0.0510
     10  C          8.3080   -2.6060   -0.4920 C.2     1  UNL1        0.1660
     11  C          8.2780   -2.6900   -1.8660 C.2     1  UNL1        0.1650
     12  O          8.6390   -3.8520   -0.0020 O.2     1  UNL1       -0.4540
     13  O          8.5960   -3.9990   -2.1950 O.2     1  UNL1       -0.4540
     14  C          8.9210   -4.7460   -1.0470 C.3     1  UNL1        0.4680
@<TRIPOS>BOND
     1     9     7    1
     2     9    11    2
     3    13    11    1
     4    13    14    1
     5     7     6    2
     6    11    10    1
     7    14    12    1
     8     6     5    1
     9     6     8    1
    10    10    12    1
    11    10     8    2
    12     5     1    1
    13     3     2    1
    14     1     2    1
    15     2     4    2
