@<TRIPOS>MOLECULE
/home/cewinharhar/GITHUB/reincatalyze/data/processed/docking_pred/2023-May-24-1506_sub9_nm5_bs15_s42_ex16_mel10_mts10000_k50_ec02_g099_lra3e-4_lrc3e-3/6070aa1b8336213875ea865ca7f6d729a9af33a9_ligand_9.pdbqt
 14 15 0 0 0
SMALL
GASTEIGER

@<TRIPOS>ATOM
      1  C          5.5460    1.8950    1.2870 C.3     1  UNL1        0.0800
      2  C          5.1080    0.6720    2.0160 C.2     1  UNL1        0.1300
      3  C          6.0070   -0.5000    2.1840 C.3     1  UNL1        0.0870
      4  O          3.9900    0.5980    2.5000 O.2     1  UNL1       -0.3000
      5  C          5.4150    1.7180   -0.2130 C.3     1  UNL1        0.0430
      6  C          6.5770    1.0150   -0.7840 C.2     1  UNL1       -0.0440
      7  C          7.8860    1.4450   -0.5400 C.2     1  UNL1        0.0080
      8  C          6.3830   -0.0940   -1.5750 C.2     1  UNL1        0.0540
      9  C          8.9390    0.7450   -1.1020 C.2     1  UNL1        0.0510
     10  C          7.4500   -0.7990   -2.1400 C.2     1  UNL1        0.1660
     11  C          8.7380   -0.3760   -1.9020 C.2     1  UNL1        0.1650
     12  O          7.5160   -1.9130   -2.9490 O.2     1  UNL1       -0.4540
     13  O          9.5780   -1.2480   -2.5760 O.2     1  UNL1       -0.4540
     14  C          8.8500   -2.2910   -3.1780 C.3     1  UNL1        0.4680
@<TRIPOS>BOND
     1    14    12    1
     2    14    13    1
     3    12    10    1
     4    13    11    1
     5    10    11    2
     6    10     8    1
     7    11     9    1
     8     8     6    2
     9     9     7    2
    10     6     7    1
    11     6     5    1
    12     5     1    1
    13     1     2    1
    14     2     3    1
    15     2     4    2
