@<TRIPOS>MOLECULE
/home/cewinharhar/GITHUB/reincatalyze/data/processed/docking_pred/2023-May-24-1506_sub9_nm5_bs15_s42_ex16_mel10_mts10000_k50_ec02_g099_lra3e-4_lrc3e-3/6070aa1b8336213875ea865ca7f6d729a9af33a9_ligand_9.pdbqt
 14 15 0 0 0
SMALL
GASTEIGER

@<TRIPOS>ATOM
      1  C          5.7230    1.3760   -0.2740 C.3     1  UNL1        0.0800
      2  C          5.0820    1.2630    1.0660 C.2     1  UNL1        0.1300
      3  C          5.3650    0.1180    1.9720 C.3     1  UNL1        0.0870
      4  O          4.3010    2.1130    1.4600 O.2     1  UNL1       -0.3000
      5  C          7.2160    1.1260   -0.1930 C.3     1  UNL1        0.0430
      6  C          7.5910   -0.1550   -0.8180 C.2     1  UNL1       -0.0440
      7  C          7.6550   -0.3020   -2.2080 C.2     1  UNL1        0.0080
      8  C          7.8890   -1.2390   -0.0240 C.2     1  UNL1        0.0540
      9  C          8.0130   -1.5280   -2.7380 C.2     1  UNL1        0.0510
     10  C          8.2520   -2.4770   -0.5650 C.2     1  UNL1        0.1660
     11  C          8.3140   -2.6220   -1.9330 C.2     1  UNL1        0.1650
     12  O          8.5890   -3.6870    0.0030 O.2     1  UNL1       -0.4540
     13  O          8.6930   -3.9320   -2.1800 O.2     1  UNL1       -0.4540
     14  C          8.9660   -4.6170   -0.9800 C.3     1  UNL1        0.4680
@<TRIPOS>BOND
     1     9     7    1
     2     9    11    2
     3     7     6    2
     4    13    11    1
     5    13    14    1
     6    11    10    1
     7    14    12    1
     8     6     5    1
     9     6     8    1
    10    10     8    2
    11    10    12    1
    12     1     5    1
    13     1     2    1
    14     2     4    2
    15     2     3    1
