@<TRIPOS>MOLECULE
/home/cewinharhar/GITHUB/reincatalyze/data/processed/docking_pred/2023-May-24-1506_sub9_nm5_bs15_s42_ex16_mel10_mts10000_k50_ec02_g099_lra3e-4_lrc3e-3/61dc813153d4923306b963558f4fcc6da37b8e75_ligand_9.pdbqt
 14 15 0 0 0
SMALL
GASTEIGER

@<TRIPOS>ATOM
      1  C          5.7880    0.8570   -0.3300 C.3     1  UNL1        0.0800
      2  C          5.4160    1.0430    1.1000 C.2     1  UNL1        0.1300
      3  C          4.9910   -0.1000    1.9520 C.3     1  UNL1        0.0870
      4  O          5.4500    2.1480    1.6180 O.2     1  UNL1       -0.3000
      5  C          7.2900    0.7380   -0.4970 C.3     1  UNL1        0.0430
      6  C          7.7610   -0.6370   -0.2540 C.2     1  UNL1       -0.0440
      7  C          7.9500   -1.1290    1.0430 C.2     1  UNL1        0.0080
      8  C          8.0210   -1.4680   -1.3200 C.2     1  UNL1        0.0540
      9  C          8.3920   -2.4280    1.2100 C.2     1  UNL1        0.0510
     10  C          8.4670   -2.7810   -1.1460 C.2     1  UNL1        0.1660
     11  C          8.6550   -3.2650    0.1290 C.2     1  UNL1        0.1650
     12  O          8.7910   -3.7880   -2.0300 O.2     1  UNL1       -0.4540
     13  O          9.0930   -4.5740    0.0010 O.2     1  UNL1       -0.4540
     14  C          9.1070   -4.9750   -1.3480 C.3     1  UNL1        0.4680
@<TRIPOS>BOND
     1    12    14    1
     2    12    10    1
     3    14    13    1
     4     8    10    1
     5     8     6    2
     6    10    11    2
     7     5     1    1
     8     5     6    1
     9     1     2    1
    10     6     7    1
    11    13    11    1
    12    11     9    1
    13     7     9    2
    14     2     4    2
    15     2     3    1
