@<TRIPOS>MOLECULE
/home/cewinharhar/GITHUB/reincatalyze/data/processed/docking_pred/2023-May-24-1506_sub9_nm5_bs15_s42_ex16_mel10_mts10000_k50_ec02_g099_lra3e-4_lrc3e-3/61dc813153d4923306b963558f4fcc6da37b8e75_ligand_9.pdbqt
 14 15 0 0 0
SMALL
GASTEIGER

@<TRIPOS>ATOM
      1  C          7.9690   -2.9400    0.4220 C.3     1  UNL1        0.0800
      2  C          9.0180   -3.9610    0.1440 C.2     1  UNL1        0.1300
      3  C          9.0130   -4.7650   -1.1070 C.3     1  UNL1        0.0870
      4  O          9.9180   -4.1680    0.9420 O.2     1  UNL1       -0.3000
      5  C          7.9410   -1.8720   -0.6530 C.3     1  UNL1        0.0430
      6  C          7.0360   -0.7640   -0.3000 C.2     1  UNL1       -0.0440
      7  C          6.8790    0.3490   -1.1340 C.2     1  UNL1        0.0080
      8  C          6.3210   -0.8160    0.8750 C.2     1  UNL1        0.0540
      9  C          6.0140    1.3580   -0.7500 C.2     1  UNL1        0.0510
     10  C          5.4470    0.2070    1.2580 C.2     1  UNL1        0.1660
     11  C          5.2930    1.3030    0.4380 C.2     1  UNL1        0.1650
     12  O          4.6370    0.3870    2.3590 O.2     1  UNL1       -0.4540
     13  O          4.3810    2.1420    1.0590 O.2     1  UNL1       -0.4540
     14  C          3.8710    1.5590    2.2340 C.3     1  UNL1        0.4680
@<TRIPOS>BOND
     1     7     9    1
     2     7     6    2
     3     3     2    1
     4     9    11    2
     5     5     6    1
     6     5     1    1
     7     6     8    1
     8     2     1    1
     9     2     4    2
    10    11    13    1
    11    11    10    1
    12     8    10    2
    13    13    14    1
    14    10    12    1
    15    14    12    1
