@<TRIPOS>MOLECULE
/home/cewinharhar/GITHUB/reincatalyze/data/processed/docking_pred/2023-May-24-1506_sub9_nm5_bs15_s42_ex16_mel10_mts10000_k50_ec02_g099_lra3e-4_lrc3e-3/61dc813153d4923306b963558f4fcc6da37b8e75_ligand_9.pdbqt
 14 15 0 0 0
SMALL
GASTEIGER

@<TRIPOS>ATOM
      1  C          8.6910   -3.8680   -0.4250 C.3     1  UNL1        0.0800
      2  C          9.2560   -4.8500   -1.3920 C.2     1  UNL1        0.1300
      3  C          8.8490   -6.2800   -1.3800 C.3     1  UNL1        0.0870
      4  O         10.0750   -4.5050   -2.2280 O.2     1  UNL1       -0.3000
      5  C          8.3140   -2.5710   -1.1140 C.3     1  UNL1        0.0430
      6  C          7.5030   -1.7040   -0.2400 C.2     1  UNL1       -0.0440
      7  C          7.3150   -1.9990    1.1150 C.2     1  UNL1        0.0080
      8  C          6.9140   -0.5730   -0.7590 C.2     1  UNL1        0.0540
      9  C          6.5440   -1.1480    1.8860 C.2     1  UNL1        0.0510
     10  C          6.1360    0.2840    0.0250 C.2     1  UNL1        0.1660
     11  C          5.9500   -0.0060    1.3590 C.2     1  UNL1        0.1650
     12  O          5.4540    1.4500   -0.2510 O.2     1  UNL1       -0.4540
     13  O          5.1500    0.9990    1.8790 O.2     1  UNL1       -0.4540
     14  C          4.8880    1.9910    0.9150 C.3     1  UNL1        0.4680
@<TRIPOS>BOND
     1     4     2    2
     2     2     3    1
     3     2     1    1
     4     5     1    1
     5     5     6    1
     6     8     6    2
     7     8    10    1
     8    12    10    1
     9    12    14    1
    10     6     7    1
    11    10    11    2
    12    14    13    1
    13     7     9    2
    14    11    13    1
    15    11     9    1
