MODEL 1
REMARK VINA RESULT:      -6.4      0.000      0.000
REMARK SMILES CC(=O)CCc1ccc2c(c1)OCO2
REMARK SMILES IDX 4 1 2 2 1 3 3 4 5 5 6 6 7 7 11 8 8 9 10 10 9 11 12 12 14 13
REMARK SMILES IDX 13 14
REMARK H PARENT
REMARK Flexibility Score: inf
ROOT
ATOM      1  C   UNL     1       5.350  -0.168   2.082  1.00  0.00     0.080 C 
ENDROOT
BRANCH   1   2
ATOM      2  C   UNL     1       4.578   1.076   1.805  1.00  0.00     0.130 C 
ATOM      3  C   UNL     1       4.982   2.022   0.731  1.00  0.00     0.087 C 
ATOM      4  O   UNL     1       3.585   1.355   2.457  1.00  0.00    -0.300 OA
ENDBRANCH   1   2
BRANCH   1   5
ATOM      5  C   UNL     1       6.836   0.049   1.878  1.00  0.00     0.043 C 
BRANCH   5   6
ATOM      6  C   UNL     1       7.371  -0.805   0.803  1.00  0.00    -0.044 A 
ATOM      7  C   UNL     1       7.522  -0.329  -0.505  1.00  0.00     0.008 A 
ATOM      8  C   UNL     1       7.736  -2.103   1.080  1.00  0.00     0.054 A 
ATOM      9  C   UNL     1       8.031  -1.176  -1.473  1.00  0.00     0.051 A 
ATOM     10  C   UNL     1       8.250  -2.955   0.098  1.00  0.00     0.166 A 
ATOM     11  C   UNL     1       8.398  -2.488  -1.189  1.00  0.00     0.165 A 
ATOM     12  O   UNL     1       8.678  -4.265   0.122  1.00  0.00    -0.454 OA
ATOM     13  O   UNL     1       8.921  -3.532  -1.936  1.00  0.00    -0.454 OA
ATOM     14  C   UNL     1       9.198  -4.648  -1.125  1.00  0.00     0.468 C 
ENDBRANCH   5   6
ENDBRANCH   1   5
TORSDOF 3
ENDMDL
MODEL 2
REMARK VINA RESULT:      -6.4      1.415      6.114
REMARK SMILES CC(=O)CCc1ccc2c(c1)OCO2
REMARK SMILES IDX 4 1 2 2 1 3 3 4 5 5 6 6 7 7 11 8 8 9 10 10 9 11 12 12 14 13
REMARK SMILES IDX 13 14
REMARK H PARENT
REMARK Flexibility Score: inf
ROOT
ATOM      1  C   UNL     1       8.691  -3.868  -0.425  1.00  0.00     0.080 C 
ENDROOT
BRANCH   1   2
ATOM      2  C   UNL     1       9.256  -4.850  -1.392  1.00  0.00     0.130 C 
ATOM      3  C   UNL     1       8.849  -6.280  -1.380  1.00  0.00     0.087 C 
ATOM      4  O   UNL     1      10.075  -4.505  -2.228  1.00  0.00    -0.300 OA
ENDBRANCH   1   2
BRANCH   1   5
ATOM      5  C   UNL     1       8.314  -2.571  -1.114  1.00  0.00     0.043 C 
BRANCH   5   6
ATOM      6  C   UNL     1       7.503  -1.704  -0.240  1.00  0.00    -0.044 A 
ATOM      7  C   UNL     1       7.315  -1.999   1.115  1.00  0.00     0.008 A 
ATOM      8  C   UNL     1       6.914  -0.573  -0.759  1.00  0.00     0.054 A 
ATOM      9  C   UNL     1       6.544  -1.148   1.886  1.00  0.00     0.051 A 
ATOM     10  C   UNL     1       6.136   0.284   0.025  1.00  0.00     0.166 A 
ATOM     11  C   UNL     1       5.950  -0.006   1.359  1.00  0.00     0.165 A 
ATOM     12  O   UNL     1       5.454   1.450  -0.251  1.00  0.00    -0.454 OA
ATOM     13  O   UNL     1       5.150   0.999   1.879  1.00  0.00    -0.454 OA
ATOM     14  C   UNL     1       4.888   1.991   0.915  1.00  0.00     0.468 C 
ENDBRANCH   5   6
ENDBRANCH   1   5
TORSDOF 3
ENDMDL
MODEL 3
REMARK VINA RESULT:      -6.2      1.294      5.739
REMARK SMILES CC(=O)CCc1ccc2c(c1)OCO2
REMARK SMILES IDX 4 1 2 2 1 3 3 4 5 5 6 6 7 7 11 8 8 9 10 10 9 11 12 12 14 13
REMARK SMILES IDX 13 14
REMARK H PARENT
REMARK Flexibility Score: inf
ROOT
ATOM      1  C   UNL     1       7.969  -2.940   0.422  1.00  0.00     0.080 C 
ENDROOT
BRANCH   1   2
ATOM      2  C   UNL     1       9.018  -3.961   0.144  1.00  0.00     0.130 C 
ATOM      3  C   UNL     1       9.013  -4.765  -1.107  1.00  0.00     0.087 C 
ATOM      4  O   UNL     1       9.918  -4.168   0.942  1.00  0.00    -0.300 OA
ENDBRANCH   1   2
BRANCH   1   5
ATOM      5  C   UNL     1       7.941  -1.872  -0.653  1.00  0.00     0.043 C 
BRANCH   5   6
ATOM      6  C   UNL     1       7.036  -0.764  -0.300  1.00  0.00    -0.044 A 
ATOM      7  C   UNL     1       6.879   0.349  -1.134  1.00  0.00     0.008 A 
ATOM      8  C   UNL     1       6.321  -0.816   0.875  1.00  0.00     0.054 A 
ATOM      9  C   UNL     1       6.014   1.358  -0.750  1.00  0.00     0.051 A 
ATOM     10  C   UNL     1       5.447   0.207   1.258  1.00  0.00     0.166 A 
ATOM     11  C   UNL     1       5.293   1.303   0.438  1.00  0.00     0.165 A 
ATOM     12  O   UNL     1       4.637   0.387   2.359  1.00  0.00    -0.454 OA
ATOM     13  O   UNL     1       4.381   2.142   1.059  1.00  0.00    -0.454 OA
ATOM     14  C   UNL     1       3.871   1.559   2.234  1.00  0.00     0.468 C 
ENDBRANCH   5   6
ENDBRANCH   1   5
TORSDOF 3
ENDMDL
MODEL 4
REMARK VINA RESULT:      -5.9      0.965      2.052
REMARK SMILES CC(=O)CCc1ccc2c(c1)OCO2
REMARK SMILES IDX 4 1 2 2 1 3 3 4 5 5 6 6 7 7 11 8 8 9 10 10 9 11 12 12 14 13
REMARK SMILES IDX 13 14
REMARK H PARENT
REMARK Flexibility Score: inf
ROOT
ATOM      1  C   UNL     1       5.788   0.857  -0.330  1.00  0.00     0.080 C 
ENDROOT
BRANCH   1   2
ATOM      2  C   UNL     1       5.416   1.043   1.100  1.00  0.00     0.130 C 
ATOM      3  C   UNL     1       4.991  -0.100   1.952  1.00  0.00     0.087 C 
ATOM      4  O   UNL     1       5.450   2.148   1.618  1.00  0.00    -0.300 OA
ENDBRANCH   1   2
BRANCH   1   5
ATOM      5  C   UNL     1       7.290   0.738  -0.497  1.00  0.00     0.043 C 
BRANCH   5   6
ATOM      6  C   UNL     1       7.761  -0.637  -0.254  1.00  0.00    -0.044 A 
ATOM      7  C   UNL     1       7.950  -1.129   1.043  1.00  0.00     0.008 A 
ATOM      8  C   UNL     1       8.021  -1.468  -1.320  1.00  0.00     0.054 A 
ATOM      9  C   UNL     1       8.392  -2.428   1.210  1.00  0.00     0.051 A 
ATOM     10  C   UNL     1       8.467  -2.781  -1.146  1.00  0.00     0.166 A 
ATOM     11  C   UNL     1       8.655  -3.265   0.129  1.00  0.00     0.165 A 
ATOM     12  O   UNL     1       8.791  -3.788  -2.030  1.00  0.00    -0.454 OA
ATOM     13  O   UNL     1       9.093  -4.574   0.001  1.00  0.00    -0.454 OA
ATOM     14  C   UNL     1       9.107  -4.975  -1.348  1.00  0.00     0.468 C 
ENDBRANCH   5   6
ENDBRANCH   1   5
TORSDOF 3
ENDMDL
MODEL 5
REMARK VINA RESULT:      -5.9      1.147      2.080
REMARK SMILES CC(=O)CCc1ccc2c(c1)OCO2
REMARK SMILES IDX 4 1 2 2 1 3 3 4 5 5 6 6 7 7 11 8 8 9 10 10 9 11 12 12 14 13
REMARK SMILES IDX 13 14
REMARK H PARENT
REMARK Flexibility Score: inf
ROOT
ATOM      1  C   UNL     1       7.129   2.016   0.672  1.00  0.00     0.080 C 
ENDROOT
BRANCH   1   2
ATOM      2  C   UNL     1       5.644   2.102   0.586  1.00  0.00     0.130 C 
ATOM      3  C   UNL     1       4.939   2.150  -0.723  1.00  0.00     0.087 C 
ATOM      4  O   UNL     1       4.959   2.137   1.595  1.00  0.00    -0.300 OA
ENDBRANCH   1   2
BRANCH   1   5
ATOM      5  C   UNL     1       7.707   1.278  -0.520  1.00  0.00     0.043 C 
BRANCH   5   6
ATOM      6  C   UNL     1       7.959  -0.141  -0.214  1.00  0.00    -0.044 A 
ATOM      7  C   UNL     1       7.890  -0.632   1.095  1.00  0.00     0.008 A 
ATOM      8  C   UNL     1       8.267  -1.014  -1.232  1.00  0.00     0.054 A 
ATOM      9  C   UNL     1       8.135  -1.974   1.322  1.00  0.00     0.051 A 
ATOM     10  C   UNL     1       8.513  -2.370  -0.998  1.00  0.00     0.166 A 
ATOM     11  C   UNL     1       8.447  -2.854   0.290  1.00  0.00     0.165 A 
ATOM     12  O   UNL     1       8.835  -3.424  -1.827  1.00  0.00    -0.454 OA
ATOM     13  O   UNL     1       8.732  -4.209   0.224  1.00  0.00    -0.454 OA
ATOM     14  C   UNL     1       8.894  -4.630  -1.109  1.00  0.00     0.468 C 
ENDBRANCH   5   6
ENDBRANCH   1   5
TORSDOF 3
ENDMDL
