@<TRIPOS>MOLECULE
/home/cewinharhar/GITHUB/reincatalyze/data/processed/docking_pred/2023-May-24-1506_sub9_nm5_bs15_s42_ex16_mel10_mts10000_k50_ec02_g099_lra3e-4_lrc3e-3/61dc813153d4923306b963558f4fcc6da37b8e75_ligand_9.pdbqt
 14 15 0 0 0
SMALL
GASTEIGER

@<TRIPOS>ATOM
      1  C          5.3500   -0.1680    2.0820 C.3     1  UNL1        0.0800
      2  C          4.5780    1.0760    1.8050 C.2     1  UNL1        0.1300
      3  C          4.9820    2.0220    0.7310 C.3     1  UNL1        0.0870
      4  O          3.5850    1.3550    2.4570 O.2     1  UNL1       -0.3000
      5  C          6.8360    0.0490    1.8780 C.3     1  UNL1        0.0430
      6  C          7.3710   -0.8050    0.8030 C.2     1  UNL1       -0.0440
      7  C          7.5220   -0.3290   -0.5050 C.2     1  UNL1        0.0080
      8  C          7.7360   -2.1030    1.0800 C.2     1  UNL1        0.0540
      9  C          8.0310   -1.1760   -1.4730 C.2     1  UNL1        0.0510
     10  C          8.2500   -2.9550    0.0980 C.2     1  UNL1        0.1660
     11  C          8.3980   -2.4880   -1.1890 C.2     1  UNL1        0.1650
     12  O          8.6780   -4.2650    0.1220 O.2     1  UNL1       -0.4540
     13  O          8.9210   -3.5320   -1.9360 O.2     1  UNL1       -0.4540
     14  C          9.1980   -4.6480   -1.1250 C.3     1  UNL1        0.4680
@<TRIPOS>BOND
     1    13    11    1
     2    13    14    1
     3     9    11    2
     4     9     7    1
     5    11    10    1
     6    14    12    1
     7     7     6    2
     8    10    12    1
     9    10     8    2
    10     3     2    1
    11     6     8    1
    12     6     5    1
    13     2     1    1
    14     2     4    2
    15     5     1    1
