@<TRIPOS>MOLECULE
/home/cewinharhar/GITHUB/reincatalyze/data/processed/docking_pred/2023-May-24-1506_sub9_nm5_bs15_s42_ex16_mel10_mts10000_k50_ec02_g099_lra3e-4_lrc3e-3/61dc813153d4923306b963558f4fcc6da37b8e75_ligand_9.pdbqt
 14 15 0 0 0
SMALL
GASTEIGER

@<TRIPOS>ATOM
      1  C          7.1290    2.0160    0.6720 C.3     1  UNL1        0.0800
      2  C          5.6440    2.1020    0.5860 C.2     1  UNL1        0.1300
      3  C          4.9390    2.1500   -0.7230 C.3     1  UNL1        0.0870
      4  O          4.9590    2.1370    1.5950 O.2     1  UNL1       -0.3000
      5  C          7.7070    1.2780   -0.5200 C.3     1  UNL1        0.0430
      6  C          7.9590   -0.1410   -0.2140 C.2     1  UNL1       -0.0440
      7  C          7.8900   -0.6320    1.0950 C.2     1  UNL1        0.0080
      8  C          8.2670   -1.0140   -1.2320 C.2     1  UNL1        0.0540
      9  C          8.1350   -1.9740    1.3220 C.2     1  UNL1        0.0510
     10  C          8.5130   -2.3700   -0.9980 C.2     1  UNL1        0.1660
     11  C          8.4470   -2.8540    0.2900 C.2     1  UNL1        0.1650
     12  O          8.8350   -3.4240   -1.8270 O.2     1  UNL1       -0.4540
     13  O          8.7320   -4.2090    0.2240 O.2     1  UNL1       -0.4540
     14  C          8.8940   -4.6300   -1.1090 C.3     1  UNL1        0.4680
@<TRIPOS>BOND
     1    12    14    1
     2    12    10    1
     3     8    10    1
     4     8     6    2
     5    14    13    1
     6    10    11    2
     7     3     2    1
     8     5     6    1
     9     5     1    1
    10     6     7    1
    11    13    11    1
    12    11     9    1
    13     2     1    1
    14     2     4    2
    15     7     9    2
