MODEL 1
REMARK VINA RESULT:      -7.6      0.000      0.000
REMARK SMILES CC(=O)CCc1ccc2c(c1)OCO2
REMARK SMILES IDX 4 1 2 2 1 3 3 4 5 5 6 6 7 7 11 8 8 9 10 10 9 11 12 12 14 13
REMARK SMILES IDX 13 14
REMARK H PARENT
REMARK Flexibility Score: inf
ROOT
ATOM      1  C   UNL     1       5.520   1.941   1.262  1.00  0.00     0.080 C 
ENDROOT
BRANCH   1   2
ATOM      2  C   UNL     1       5.096   0.724   2.008  1.00  0.00     0.130 C 
ATOM      3  C   UNL     1       6.007  -0.437   2.191  1.00  0.00     0.087 C 
ATOM      4  O   UNL     1       3.979   0.644   2.494  1.00  0.00    -0.300 OA
ENDBRANCH   1   2
BRANCH   1   5
ATOM      5  C   UNL     1       5.391   1.741  -0.236  1.00  0.00     0.043 C 
BRANCH   5   6
ATOM      6  C   UNL     1       6.560   1.041  -0.796  1.00  0.00    -0.044 A 
ATOM      7  C   UNL     1       7.866   1.478  -0.546  1.00  0.00     0.008 A 
ATOM      8  C   UNL     1       6.376  -0.073  -1.584  1.00  0.00     0.054 A 
ATOM      9  C   UNL     1       8.925   0.780  -1.098  1.00  0.00     0.051 A 
ATOM     10  C   UNL     1       7.449  -0.775  -2.139  1.00  0.00     0.166 A 
ATOM     11  C   UNL     1       8.734  -0.345  -1.894  1.00  0.00     0.165 A 
ATOM     12  O   UNL     1       7.526  -1.893  -2.943  1.00  0.00    -0.454 OA
ATOM     13  O   UNL     1       9.582  -1.217  -2.559  1.00  0.00    -0.454 OA
ATOM     14  C   UNL     1       8.862  -2.266  -3.162  1.00  0.00     0.468 C 
ENDBRANCH   5   6
ENDBRANCH   1   5
TORSDOF 3
ENDMDL
MODEL 2
REMARK VINA RESULT:      -7.5      1.935      2.401
REMARK SMILES CC(=O)CCc1ccc2c(c1)OCO2
REMARK SMILES IDX 4 1 2 2 1 3 3 4 5 5 6 6 7 7 11 8 8 9 10 10 9 11 12 12 14 13
REMARK SMILES IDX 13 14
REMARK H PARENT
REMARK Flexibility Score: inf
ROOT
ATOM      1  C   UNL     1       5.746   1.396  -0.326  1.00  0.00     0.080 C 
ENDROOT
BRANCH   1   2
ATOM      2  C   UNL     1       5.079   1.301   1.003  1.00  0.00     0.130 C 
ATOM      3  C   UNL     1       5.361   0.180   1.939  1.00  0.00     0.087 C 
ATOM      4  O   UNL     1       4.277   2.146   1.364  1.00  0.00    -0.300 OA
ENDBRANCH   1   2
BRANCH   1   5
ATOM      5  C   UNL     1       7.232   1.120  -0.217  1.00  0.00     0.043 C 
BRANCH   5   6
ATOM      6  C   UNL     1       7.594  -0.173  -0.826  1.00  0.00    -0.044 A 
ATOM      7  C   UNL     1       7.626  -0.345  -2.214  1.00  0.00     0.008 A 
ATOM      8  C   UNL     1       7.911  -1.242  -0.019  1.00  0.00     0.054 A 
ATOM      9  C   UNL     1       7.974  -1.581  -2.729  1.00  0.00     0.051 A 
ATOM     10  C   UNL     1       8.262  -2.489  -0.544  1.00  0.00     0.166 A 
ATOM     11  C   UNL     1       8.293  -2.660  -1.910  1.00  0.00     0.165 A 
ATOM     12  O   UNL     1       8.613  -3.689   0.038  1.00  0.00    -0.454 OA
ATOM     13  O   UNL     1       8.668  -3.975  -2.141  1.00  0.00    -0.454 OA
ATOM     14  C   UNL     1       8.968  -4.637  -0.935  1.00  0.00     0.468 C 
ENDBRANCH   5   6
ENDBRANCH   1   5
TORSDOF 3
ENDMDL
MODEL 3
REMARK VINA RESULT:      -7.2      2.077      2.625
REMARK SMILES CC(=O)CCc1ccc2c(c1)OCO2
REMARK SMILES IDX 4 1 2 2 1 3 3 4 5 5 6 6 7 7 11 8 8 9 10 10 9 11 12 12 14 13
REMARK SMILES IDX 13 14
REMARK H PARENT
REMARK Flexibility Score: inf
ROOT
ATOM      1  C   UNL     1       5.553   0.025   1.982  1.00  0.00     0.080 C 
ENDROOT
BRANCH   1   2
ATOM      2  C   UNL     1       4.659   1.170   1.648  1.00  0.00     0.130 C 
ATOM      3  C   UNL     1       4.979   2.114   0.545  1.00  0.00     0.087 C 
ATOM      4  O   UNL     1       3.632   1.366   2.277  1.00  0.00    -0.300 OA
ENDBRANCH   1   2
BRANCH   1   5
ATOM      5  C   UNL     1       6.968   0.274   1.500  1.00  0.00     0.043 C 
BRANCH   5   6
ATOM      6  C   UNL     1       7.367  -0.687   0.456  1.00  0.00    -0.044 A 
ATOM      7  C   UNL     1       7.246  -0.383  -0.905  1.00  0.00     0.008 A 
ATOM      8  C   UNL     1       7.873  -1.915   0.816  1.00  0.00     0.054 A 
ATOM      9  C   UNL     1       7.637  -1.323  -1.840  1.00  0.00     0.051 A 
ATOM     10  C   UNL     1       8.267  -2.863  -0.133  1.00  0.00     0.166 A 
ATOM     11  C   UNL     1       8.148  -2.564  -1.473  1.00  0.00     0.165 A 
ATOM     12  O   UNL     1       8.791  -4.134  -0.031  1.00  0.00    -0.454 OA
ATOM     13  O   UNL     1       8.607  -3.670  -2.172  1.00  0.00    -0.454 OA
ATOM     14  C   UNL     1       9.108  -4.652  -1.297  1.00  0.00     0.468 C 
ENDBRANCH   5   6
ENDBRANCH   1   5
TORSDOF 3
ENDMDL
MODEL 4
REMARK VINA RESULT:      -7.1      1.252      1.463
REMARK SMILES CC(=O)CCc1ccc2c(c1)OCO2
REMARK SMILES IDX 4 1 2 2 1 3 3 4 5 5 6 6 7 7 11 8 8 9 10 10 9 11 12 12 14 13
REMARK SMILES IDX 13 14
REMARK H PARENT
REMARK Flexibility Score: inf
ROOT
ATOM      1  C   UNL     1       6.343   1.227   0.882  1.00  0.00     0.080 C 
ENDROOT
BRANCH   1   2
ATOM      2  C   UNL     1       5.666   0.410   1.927  1.00  0.00     0.130 C 
ATOM      3  C   UNL     1       6.298  -0.810   2.497  1.00  0.00     0.087 C 
ATOM      4  O   UNL     1       4.563   0.722   2.349  1.00  0.00    -0.300 OA
ENDBRANCH   1   2
BRANCH   1   5
ATOM      5  C   UNL     1       5.829   0.885  -0.502  1.00  0.00     0.043 C 
BRANCH   5   6
ATOM      6  C   UNL     1       6.801   0.078  -1.262  1.00  0.00    -0.044 A 
ATOM      7  C   UNL     1       7.514   0.614  -2.341  1.00  0.00     0.008 A 
ATOM      8  C   UNL     1       7.021  -1.234  -0.910  1.00  0.00     0.054 A 
ATOM      9  C   UNL     1       8.413  -0.191  -3.016  1.00  0.00     0.051 A 
ATOM     10  C   UNL     1       7.932  -2.043  -1.596  1.00  0.00     0.166 A 
ATOM     11  C   UNL     1       8.634  -1.517  -2.658  1.00  0.00     0.165 A 
ATOM     12  O   UNL     1       8.323  -3.356  -1.442  1.00  0.00    -0.454 OA
ATOM     13  O   UNL     1       9.450  -2.529  -3.139  1.00  0.00    -0.454 OA
ATOM     14  C   UNL     1       9.352  -3.684  -2.341  1.00  0.00     0.468 C 
ENDBRANCH   5   6
ENDBRANCH   1   5
TORSDOF 3
ENDMDL
MODEL 5
REMARK VINA RESULT:      -7.1      1.963      2.545
REMARK SMILES CC(=O)CCc1ccc2c(c1)OCO2
REMARK SMILES IDX 4 1 2 2 1 3 3 4 5 5 6 6 7 7 11 8 8 9 10 10 9 11 12 12 14 13
REMARK SMILES IDX 13 14
REMARK H PARENT
REMARK Flexibility Score: inf
ROOT
ATOM      1  C   UNL     1       6.808   0.807   1.259  1.00  0.00     0.080 C 
ENDROOT
BRANCH   1   2
ATOM      2  C   UNL     1       5.362   1.151   1.351  1.00  0.00     0.130 C 
ATOM      3  C   UNL     1       4.736   2.144   0.437  1.00  0.00     0.087 C 
ATOM      4  O   UNL     1       4.644   0.625   2.186  1.00  0.00    -0.300 OA
ENDBRANCH   1   2
BRANCH   1   5
ATOM      5  C   UNL     1       7.333   1.008  -0.148  1.00  0.00     0.043 C 
BRANCH   5   6
ATOM      6  C   UNL     1       7.676  -0.273  -0.792  1.00  0.00    -0.044 A 
ATOM      7  C   UNL     1       7.725  -0.404  -2.184  1.00  0.00     0.008 A 
ATOM      8  C   UNL     1       7.958  -1.373  -0.014  1.00  0.00     0.054 A 
ATOM      9  C   UNL     1       8.054  -1.631  -2.732  1.00  0.00     0.051 A 
ATOM     10  C   UNL     1       8.290  -2.611  -0.572  1.00  0.00     0.166 A 
ATOM     11  C   UNL     1       8.338  -2.741  -1.942  1.00  0.00     0.165 A 
ATOM     12  O   UNL     1       8.606  -3.836  -0.022  1.00  0.00    -0.454 OA
ATOM     13  O   UNL     1       8.687  -4.056  -2.208  1.00  0.00    -0.454 OA
ATOM     14  C   UNL     1       8.955  -4.761  -1.020  1.00  0.00     0.468 C 
ENDBRANCH   5   6
ENDBRANCH   1   5
TORSDOF 3
ENDMDL
