@<TRIPOS>MOLECULE
/home/cewinharhar/GITHUB/reincatalyze/data/processed/docking_pred/2023-May-24-1506_sub9_nm5_bs15_s42_ex16_mel10_mts10000_k50_ec02_g099_lra3e-4_lrc3e-3/64ade7361adfbcba1ebdf367c3e16aacabd62181_ligand_9.pdbqt
 14 15 0 0 0
SMALL
GASTEIGER

@<TRIPOS>ATOM
      1  C          5.5530    0.0250    1.9820 C.3     1  UNL1        0.0800
      2  C          4.6590    1.1700    1.6480 C.2     1  UNL1        0.1300
      3  C          4.9790    2.1140    0.5450 C.3     1  UNL1        0.0870
      4  O          3.6320    1.3660    2.2770 O.2     1  UNL1       -0.3000
      5  C          6.9680    0.2740    1.5000 C.3     1  UNL1        0.0430
      6  C          7.3670   -0.6870    0.4560 C.2     1  UNL1       -0.0440
      7  C          7.2460   -0.3830   -0.9050 C.2     1  UNL1        0.0080
      8  C          7.8730   -1.9150    0.8160 C.2     1  UNL1        0.0540
      9  C          7.6370   -1.3230   -1.8400 C.2     1  UNL1        0.0510
     10  C          8.2670   -2.8630   -0.1330 C.2     1  UNL1        0.1660
     11  C          8.1480   -2.5640   -1.4730 C.2     1  UNL1        0.1650
     12  O          8.7910   -4.1340   -0.0310 O.2     1  UNL1       -0.4540
     13  O          8.6070   -3.6700   -2.1720 O.2     1  UNL1       -0.4540
     14  C          9.1080   -4.6520   -1.2970 C.3     1  UNL1        0.4680
@<TRIPOS>BOND
     1    13    11    1
     2    13    14    1
     3     9    11    2
     4     9     7    1
     5    11    10    1
     6    14    12    1
     7     7     6    2
     8    10    12    1
     9    10     8    2
    10     6     8    1
    11     6     5    1
    12     3     2    1
    13     5     1    1
    14     2     1    1
    15     2     4    2
