@<TRIPOS>MOLECULE
/home/cewinharhar/GITHUB/reincatalyze/data/processed/docking_pred/2023-May-24-1506_sub9_nm5_bs15_s42_ex16_mel10_mts10000_k50_ec02_g099_lra3e-4_lrc3e-3/64ade7361adfbcba1ebdf367c3e16aacabd62181_ligand_9.pdbqt
 14 15 0 0 0
SMALL
GASTEIGER

@<TRIPOS>ATOM
      1  C          6.8080    0.8070    1.2590 C.3     1  UNL1        0.0800
      2  C          5.3620    1.1510    1.3510 C.2     1  UNL1        0.1300
      3  C          4.7360    2.1440    0.4370 C.3     1  UNL1        0.0870
      4  O          4.6440    0.6250    2.1860 O.2     1  UNL1       -0.3000
      5  C          7.3330    1.0080   -0.1480 C.3     1  UNL1        0.0430
      6  C          7.6760   -0.2730   -0.7920 C.2     1  UNL1       -0.0440
      7  C          7.7250   -0.4040   -2.1840 C.2     1  UNL1        0.0080
      8  C          7.9580   -1.3730   -0.0140 C.2     1  UNL1        0.0540
      9  C          8.0540   -1.6310   -2.7320 C.2     1  UNL1        0.0510
     10  C          8.2900   -2.6110   -0.5720 C.2     1  UNL1        0.1660
     11  C          8.3380   -2.7410   -1.9420 C.2     1  UNL1        0.1650
     12  O          8.6060   -3.8360   -0.0220 O.2     1  UNL1       -0.4540
     13  O          8.6870   -4.0560   -2.2080 O.2     1  UNL1       -0.4540
     14  C          8.9550   -4.7610   -1.0200 C.3     1  UNL1        0.4680
@<TRIPOS>BOND
     1     9     7    1
     2     9    11    2
     3    13    11    1
     4    13    14    1
     5     7     6    2
     6    11    10    1
     7    14    12    1
     8     6     5    1
     9     6     8    1
    10    10    12    1
    11    10     8    2
    12     5     1    1
    13     3     2    1
    14     1     2    1
    15     2     4    2
