@<TRIPOS>MOLECULE
/home/cewinharhar/GITHUB/reincatalyze/data/processed/docking_pred/2023-May-24-1506_sub9_nm5_bs15_s42_ex16_mel10_mts10000_k50_ec02_g099_lra3e-4_lrc3e-3/650932a4c96e02f0afcc120cab6b741f416c7ae8_ligand_9.pdbqt
 14 15 0 0 0
SMALL
GASTEIGER

@<TRIPOS>ATOM
      1  C          5.8600    1.4690   -0.3880 C.3     1  UNL1        0.0800
      2  C          5.1640    1.3680    0.9250 C.2     1  UNL1        0.1300
      3  C          5.5170    0.3180    1.9180 C.3     1  UNL1        0.0870
      4  O          4.2760    2.1500    1.2250 O.2     1  UNL1       -0.3000
      5  C          7.3360    1.1490   -0.2540 C.3     1  UNL1        0.0430
      6  C          7.6710   -0.1490   -0.8680 C.2     1  UNL1       -0.0440
      7  C          7.6880   -0.3200   -2.2570 C.2     1  UNL1        0.0080
      8  C          7.9770   -1.2240   -0.0650 C.2     1  UNL1        0.0540
      9  C          8.0110   -1.5610   -2.7760 C.2     1  UNL1        0.0510
     10  C          8.3030   -2.4760   -0.5950 C.2     1  UNL1        0.1660
     11  C          8.3200   -2.6460   -1.9620 C.2     1  UNL1        0.1650
     12  O          8.6390   -3.6820   -0.0180 O.2     1  UNL1       -0.4540
     13  O          8.6700   -3.9660   -2.1970 O.2     1  UNL1       -0.4540
     14  C          8.9710   -4.6350   -0.9960 C.3     1  UNL1        0.4680
@<TRIPOS>BOND
     1     9     7    1
     2     9    11    2
     3     7     6    2
     4    13    11    1
     5    13    14    1
     6    11    10    1
     7    14    12    1
     8     6     5    1
     9     6     8    1
    10    10     8    2
    11    10    12    1
    12     1     5    1
    13     1     2    1
    14     2     4    2
    15     2     3    1
