@<TRIPOS>MOLECULE
/home/cewinharhar/GITHUB/reincatalyze/data/processed/docking_pred/2023-May-24-1506_sub9_nm5_bs15_s42_ex16_mel10_mts10000_k50_ec02_g099_lra3e-4_lrc3e-3/650932a4c96e02f0afcc120cab6b741f416c7ae8_ligand_9.pdbqt
 14 15 0 0 0
SMALL
GASTEIGER

@<TRIPOS>ATOM
      1  C          5.5110    1.9280    1.2470 C.3     1  UNL1        0.0800
      2  C          5.0730    0.7200    2.0000 C.2     1  UNL1        0.1300
      3  C          5.9660   -0.4570    2.1740 C.3     1  UNL1        0.0870
      4  O          3.9610    0.6600    2.4980 O.2     1  UNL1       -0.3000
      5  C          5.3840    1.7200   -0.2490 C.3     1  UNL1        0.0430
      6  C          6.5570    1.0220   -0.8050 C.2     1  UNL1       -0.0440
      7  C          7.8610    1.4600   -0.5470 C.2     1  UNL1        0.0080
      8  C          6.3770   -0.0900   -1.5960 C.2     1  UNL1        0.0540
      9  C          8.9230    0.7640   -1.0950 C.2     1  UNL1        0.0510
     10  C          7.4540   -0.7900   -2.1470 C.2     1  UNL1        0.1660
     11  C          8.7380   -0.3600   -1.8950 C.2     1  UNL1        0.1650
     12  O          7.5360   -1.9060   -2.9540 O.2     1  UNL1       -0.4540
     13  O          9.5900   -1.2290   -2.5570 O.2     1  UNL1       -0.4540
     14  C          8.8740   -2.2770   -3.1660 C.3     1  UNL1        0.4680
@<TRIPOS>BOND
     1    14    12    1
     2    14    13    1
     3    12    10    1
     4    13    11    1
     5    10    11    2
     6    10     8    1
     7    11     9    1
     8     8     6    2
     9     9     7    2
    10     6     7    1
    11     6     5    1
    12     5     1    1
    13     1     2    1
    14     2     3    1
    15     2     4    2
