@<TRIPOS>MOLECULE
/home/cewinharhar/GITHUB/reincatalyze/data/processed/docking_pred/2023-May-24-1506_sub9_nm5_bs15_s42_ex16_mel10_mts10000_k50_ec02_g099_lra3e-4_lrc3e-3/650932a4c96e02f0afcc120cab6b741f416c7ae8_ligand_9.pdbqt
 14 15 0 0 0
SMALL
GASTEIGER

@<TRIPOS>ATOM
      1  C          6.3590    1.2440    0.8900 C.3     1  UNL1        0.0800
      2  C          5.6720    0.4090    1.9140 C.2     1  UNL1        0.1300
      3  C          6.3090   -0.8080    2.4840 C.3     1  UNL1        0.0870
      4  O          4.5590    0.7030    2.3180 O.2     1  UNL1       -0.3000
      5  C          5.8540    0.9310   -0.5050 C.3     1  UNL1        0.0430
      6  C          6.8090    0.0990   -1.2580 C.2     1  UNL1       -0.0440
      7  C          7.5140    0.6050   -2.3570 C.2     1  UNL1        0.0080
      8  C          7.0230   -1.2070   -0.8800 C.2     1  UNL1        0.0540
      9  C          8.3980   -0.2220   -3.0250 C.2     1  UNL1        0.0510
     10  C          7.9180   -2.0390   -1.5590 C.2     1  UNL1        0.1660
     11  C          8.6110   -1.5420   -2.6410 C.2     1  UNL1        0.1650
     12  O          8.3000   -3.3520   -1.3830 O.2     1  UNL1       -0.4540
     13  O          9.4130   -2.5710   -3.1100 O.2     1  UNL1       -0.4540
     14  C          9.3140   -3.7080   -2.2860 C.3     1  UNL1        0.4680
@<TRIPOS>BOND
     1    13    11    1
     2    13    14    1
     3     9    11    2
     4     9     7    1
     5    11    10    1
     6     7     6    2
     7    14    12    1
     8    10    12    1
     9    10     8    2
    10     6     8    1
    11     6     5    1
    12     5     1    1
    13     1     2    1
    14     2     4    2
    15     2     3    1
