MODEL 1
REMARK VINA RESULT:      -7.7      0.000      0.000
REMARK SMILES CC(=O)CCc1ccc2c(c1)OCO2
REMARK SMILES IDX 4 1 2 2 1 3 3 4 5 5 6 6 7 7 11 8 8 9 10 10 9 11 12 12 14 13
REMARK SMILES IDX 13 14
REMARK H PARENT
REMARK Flexibility Score: inf
ROOT
ATOM      1  C   UNL     1       5.511   1.928   1.247  1.00  0.00     0.080 C 
ENDROOT
BRANCH   1   2
ATOM      2  C   UNL     1       5.073   0.720   2.000  1.00  0.00     0.130 C 
ATOM      3  C   UNL     1       5.966  -0.457   2.174  1.00  0.00     0.087 C 
ATOM      4  O   UNL     1       3.961   0.660   2.498  1.00  0.00    -0.300 OA
ENDBRANCH   1   2
BRANCH   1   5
ATOM      5  C   UNL     1       5.384   1.720  -0.249  1.00  0.00     0.043 C 
BRANCH   5   6
ATOM      6  C   UNL     1       6.557   1.022  -0.805  1.00  0.00    -0.044 A 
ATOM      7  C   UNL     1       7.861   1.460  -0.547  1.00  0.00     0.008 A 
ATOM      8  C   UNL     1       6.377  -0.090  -1.596  1.00  0.00     0.054 A 
ATOM      9  C   UNL     1       8.923   0.764  -1.095  1.00  0.00     0.051 A 
ATOM     10  C   UNL     1       7.454  -0.790  -2.147  1.00  0.00     0.166 A 
ATOM     11  C   UNL     1       8.738  -0.360  -1.895  1.00  0.00     0.165 A 
ATOM     12  O   UNL     1       7.536  -1.906  -2.954  1.00  0.00    -0.454 OA
ATOM     13  O   UNL     1       9.590  -1.229  -2.557  1.00  0.00    -0.454 OA
ATOM     14  C   UNL     1       8.874  -2.277  -3.166  1.00  0.00     0.468 C 
ENDBRANCH   5   6
ENDBRANCH   1   5
TORSDOF 3
ENDMDL
MODEL 2
REMARK VINA RESULT:      -7.4      1.912      2.400
REMARK SMILES CC(=O)CCc1ccc2c(c1)OCO2
REMARK SMILES IDX 4 1 2 2 1 3 3 4 5 5 6 6 7 7 11 8 8 9 10 10 9 11 12 12 14 13
REMARK SMILES IDX 13 14
REMARK H PARENT
REMARK Flexibility Score: inf
ROOT
ATOM      1  C   UNL     1       5.860   1.469  -0.388  1.00  0.00     0.080 C 
ENDROOT
BRANCH   1   2
ATOM      2  C   UNL     1       5.164   1.368   0.925  1.00  0.00     0.130 C 
ATOM      3  C   UNL     1       5.517   0.318   1.918  1.00  0.00     0.087 C 
ATOM      4  O   UNL     1       4.276   2.150   1.225  1.00  0.00    -0.300 OA
ENDBRANCH   1   2
BRANCH   1   5
ATOM      5  C   UNL     1       7.336   1.149  -0.254  1.00  0.00     0.043 C 
BRANCH   5   6
ATOM      6  C   UNL     1       7.671  -0.149  -0.868  1.00  0.00    -0.044 A 
ATOM      7  C   UNL     1       7.688  -0.320  -2.257  1.00  0.00     0.008 A 
ATOM      8  C   UNL     1       7.977  -1.224  -0.065  1.00  0.00     0.054 A 
ATOM      9  C   UNL     1       8.011  -1.561  -2.776  1.00  0.00     0.051 A 
ATOM     10  C   UNL     1       8.303  -2.476  -0.595  1.00  0.00     0.166 A 
ATOM     11  C   UNL     1       8.320  -2.646  -1.962  1.00  0.00     0.165 A 
ATOM     12  O   UNL     1       8.639  -3.682  -0.018  1.00  0.00    -0.454 OA
ATOM     13  O   UNL     1       8.670  -3.966  -2.197  1.00  0.00    -0.454 OA
ATOM     14  C   UNL     1       8.971  -4.635  -0.996  1.00  0.00     0.468 C 
ENDBRANCH   5   6
ENDBRANCH   1   5
TORSDOF 3
ENDMDL
MODEL 3
REMARK VINA RESULT:      -7.3      2.048      2.609
REMARK SMILES CC(=O)CCc1ccc2c(c1)OCO2
REMARK SMILES IDX 4 1 2 2 1 3 3 4 5 5 6 6 7 7 11 8 8 9 10 10 9 11 12 12 14 13
REMARK SMILES IDX 13 14
REMARK H PARENT
REMARK Flexibility Score: inf
ROOT
ATOM      1  C   UNL     1       5.442  -0.023   2.030  1.00  0.00     0.080 C 
ENDROOT
BRANCH   1   2
ATOM      2  C   UNL     1       4.562   1.149   1.768  1.00  0.00     0.130 C 
ATOM      3  C   UNL     1       4.875   2.138   0.702  1.00  0.00     0.087 C 
ATOM      4  O   UNL     1       3.551   1.334   2.427  1.00  0.00    -0.300 OA
ENDBRANCH   1   2
BRANCH   1   5
ATOM      5  C   UNL     1       6.865   0.245   1.579  1.00  0.00     0.043 C 
BRANCH   5   6
ATOM      6  C   UNL     1       7.288  -0.690   0.522  1.00  0.00    -0.044 A 
ATOM      7  C   UNL     1       7.170  -0.364  -0.835  1.00  0.00     0.008 A 
ATOM      8  C   UNL     1       7.815  -1.915   0.864  1.00  0.00     0.054 A 
ATOM      9  C   UNL     1       7.585  -1.281  -1.783  1.00  0.00     0.051 A 
ATOM     10  C   UNL     1       8.233  -2.838  -0.099  1.00  0.00     0.166 A 
ATOM     11  C   UNL     1       8.116  -2.518  -1.434  1.00  0.00     0.165 A 
ATOM     12  O   UNL     1       8.780  -4.101  -0.015  1.00  0.00    -0.454 OA
ATOM     13  O   UNL     1       8.600  -3.603  -2.149  1.00  0.00    -0.454 OA
ATOM     14  C   UNL     1       9.115  -4.591  -1.288  1.00  0.00     0.468 C 
ENDBRANCH   5   6
ENDBRANCH   1   5
TORSDOF 3
ENDMDL
MODEL 4
REMARK VINA RESULT:      -7.1      1.257      1.469
REMARK SMILES CC(=O)CCc1ccc2c(c1)OCO2
REMARK SMILES IDX 4 1 2 2 1 3 3 4 5 5 6 6 7 7 11 8 8 9 10 10 9 11 12 12 14 13
REMARK SMILES IDX 13 14
REMARK H PARENT
REMARK Flexibility Score: inf
ROOT
ATOM      1  C   UNL     1       6.359   1.244   0.890  1.00  0.00     0.080 C 
ENDROOT
BRANCH   1   2
ATOM      2  C   UNL     1       5.672   0.409   1.914  1.00  0.00     0.130 C 
ATOM      3  C   UNL     1       6.309  -0.808   2.484  1.00  0.00     0.087 C 
ATOM      4  O   UNL     1       4.559   0.703   2.318  1.00  0.00    -0.300 OA
ENDBRANCH   1   2
BRANCH   1   5
ATOM      5  C   UNL     1       5.854   0.931  -0.505  1.00  0.00     0.043 C 
BRANCH   5   6
ATOM      6  C   UNL     1       6.809   0.099  -1.258  1.00  0.00    -0.044 A 
ATOM      7  C   UNL     1       7.514   0.605  -2.357  1.00  0.00     0.008 A 
ATOM      8  C   UNL     1       7.023  -1.207  -0.880  1.00  0.00     0.054 A 
ATOM      9  C   UNL     1       8.398  -0.222  -3.025  1.00  0.00     0.051 A 
ATOM     10  C   UNL     1       7.918  -2.039  -1.559  1.00  0.00     0.166 A 
ATOM     11  C   UNL     1       8.611  -1.542  -2.641  1.00  0.00     0.165 A 
ATOM     12  O   UNL     1       8.300  -3.352  -1.383  1.00  0.00    -0.454 OA
ATOM     13  O   UNL     1       9.413  -2.571  -3.110  1.00  0.00    -0.454 OA
ATOM     14  C   UNL     1       9.314  -3.708  -2.286  1.00  0.00     0.468 C 
ENDBRANCH   5   6
ENDBRANCH   1   5
TORSDOF 3
ENDMDL
MODEL 5
REMARK VINA RESULT:      -7.1      1.981      2.523
REMARK SMILES CC(=O)CCc1ccc2c(c1)OCO2
REMARK SMILES IDX 4 1 2 2 1 3 3 4 5 5 6 6 7 7 11 8 8 9 10 10 9 11 12 12 14 13
REMARK SMILES IDX 13 14
REMARK H PARENT
REMARK Flexibility Score: inf
ROOT
ATOM      1  C   UNL     1       6.861   0.842   1.374  1.00  0.00     0.080 C 
ENDROOT
BRANCH   1   2
ATOM      2  C   UNL     1       5.407   1.149   1.479  1.00  0.00     0.130 C 
ATOM      3  C   UNL     1       4.752   2.139   0.584  1.00  0.00     0.087 C 
ATOM      4  O   UNL     1       4.708   0.593   2.310  1.00  0.00    -0.300 OA
ENDBRANCH   1   2
BRANCH   1   5
ATOM      5  C   UNL     1       7.366   1.048  -0.040  1.00  0.00     0.043 C 
BRANCH   5   6
ATOM      6  C   UNL     1       7.695  -0.230  -0.695  1.00  0.00    -0.044 A 
ATOM      7  C   UNL     1       7.710  -0.357  -2.089  1.00  0.00     0.008 A 
ATOM      8  C   UNL     1       8.000  -1.331   0.072  1.00  0.00     0.054 A 
ATOM      9  C   UNL     1       8.027  -1.582  -2.647  1.00  0.00     0.051 A 
ATOM     10  C   UNL     1       8.320  -2.567  -0.497  1.00  0.00     0.166 A 
ATOM     11  C   UNL     1       8.334  -2.694  -1.868  1.00  0.00     0.165 A 
ATOM     12  O   UNL     1       8.653  -3.792   0.041  1.00  0.00    -0.454 OA
ATOM     13  O   UNL     1       8.680  -4.007  -2.146  1.00  0.00    -0.454 OA
ATOM     14  C   UNL     1       8.979  -4.714  -0.967  1.00  0.00     0.468 C 
ENDBRANCH   5   6
ENDBRANCH   1   5
TORSDOF 3
ENDMDL
