@<TRIPOS>MOLECULE
/home/cewinharhar/GITHUB/reincatalyze/data/processed/docking_pred/2023-May-24-1506_sub9_nm5_bs15_s42_ex16_mel10_mts10000_k50_ec02_g099_lra3e-4_lrc3e-3/650932a4c96e02f0afcc120cab6b741f416c7ae8_ligand_9.pdbqt
 14 15 0 0 0
SMALL
GASTEIGER

@<TRIPOS>ATOM
      1  C          5.4420   -0.0230    2.0300 C.3     1  UNL1        0.0800
      2  C          4.5620    1.1490    1.7680 C.2     1  UNL1        0.1300
      3  C          4.8750    2.1380    0.7020 C.3     1  UNL1        0.0870
      4  O          3.5510    1.3340    2.4270 O.2     1  UNL1       -0.3000
      5  C          6.8650    0.2450    1.5790 C.3     1  UNL1        0.0430
      6  C          7.2880   -0.6900    0.5220 C.2     1  UNL1       -0.0440
      7  C          7.1700   -0.3640   -0.8350 C.2     1  UNL1        0.0080
      8  C          7.8150   -1.9150    0.8640 C.2     1  UNL1        0.0540
      9  C          7.5850   -1.2810   -1.7830 C.2     1  UNL1        0.0510
     10  C          8.2330   -2.8380   -0.0990 C.2     1  UNL1        0.1660
     11  C          8.1160   -2.5180   -1.4340 C.2     1  UNL1        0.1650
     12  O          8.7800   -4.1010   -0.0150 O.2     1  UNL1       -0.4540
     13  O          8.6000   -3.6030   -2.1490 O.2     1  UNL1       -0.4540
     14  C          9.1150   -4.5910   -1.2880 C.3     1  UNL1        0.4680
@<TRIPOS>BOND
     1    13    11    1
     2    13    14    1
     3     9    11    2
     4     9     7    1
     5    11    10    1
     6    14    12    1
     7     7     6    2
     8    10    12    1
     9    10     8    2
    10     6     8    1
    11     6     5    1
    12     3     2    1
    13     5     1    1
    14     2     1    1
    15     2     4    2
