MODEL 1
REMARK VINA RESULT:      -7.2      0.000      0.000
REMARK SMILES CC(=O)CCc1ccc2c(c1)OCO2
REMARK SMILES IDX 4 1 2 2 1 3 3 4 5 5 6 6 7 7 11 8 8 9 10 10 9 11 12 12 14 13
REMARK SMILES IDX 13 14
REMARK H PARENT
REMARK Flexibility Score: inf
ROOT
ATOM      1  C   UNL     1       6.132   1.639   1.502  1.00  0.00     0.080 C 
ENDROOT
BRANCH   1   2
ATOM      2  C   UNL     1       5.513   0.428   2.110  1.00  0.00     0.130 C 
ATOM      3  C   UNL     1       6.294  -0.817   2.338  1.00  0.00     0.087 C 
ATOM      4  O   UNL     1       4.338   0.424   2.440  1.00  0.00    -0.300 OA
ENDBRANCH   1   2
BRANCH   1   5
ATOM      5  C   UNL     1       5.927   1.667  -0.000  1.00  0.00     0.043 C 
BRANCH   5   6
ATOM      6  C   UNL     1       6.968   0.901  -0.708  1.00  0.00    -0.044 A 
ATOM      7  C   UNL     1       8.288   1.360  -0.790  1.00  0.00     0.008 A 
ATOM      8  C   UNL     1       6.647  -0.297  -1.304  1.00  0.00     0.054 A 
ATOM      9  C   UNL     1       9.223   0.598  -1.467  1.00  0.00     0.051 A 
ATOM     10  C   UNL     1       7.596  -1.064  -1.987  1.00  0.00     0.166 A 
ATOM     11  C   UNL     1       8.894  -0.613  -2.069  1.00  0.00     0.165 A 
ATOM     12  O   UNL     1       7.527  -2.269  -2.654  1.00  0.00    -0.454 OA
ATOM     13  O   UNL     1       9.603  -1.560  -2.791  1.00  0.00    -0.454 OA
ATOM     14  C   UNL     1       8.796  -2.670  -3.103  1.00  0.00     0.468 C 
ENDBRANCH   5   6
ENDBRANCH   1   5
TORSDOF 3
ENDMDL
MODEL 2
REMARK VINA RESULT:      -7.2      1.143      1.181
REMARK SMILES CC(=O)CCc1ccc2c(c1)OCO2
REMARK SMILES IDX 4 1 2 2 1 3 3 4 5 5 6 6 7 7 11 8 8 9 10 10 9 11 12 12 14 13
REMARK SMILES IDX 13 14
REMARK H PARENT
REMARK Flexibility Score: inf
ROOT
ATOM      1  C   UNL     1       6.342   1.226   0.898  1.00  0.00     0.080 C 
ENDROOT
BRANCH   1   2
ATOM      2  C   UNL     1       5.661   0.403   1.937  1.00  0.00     0.130 C 
ATOM      3  C   UNL     1       6.287  -0.825   2.495  1.00  0.00     0.087 C 
ATOM      4  O   UNL     1       4.561   0.716   2.362  1.00  0.00    -0.300 OA
ENDBRANCH   1   2
BRANCH   1   5
ATOM      5  C   UNL     1       5.826   0.898  -0.489  1.00  0.00     0.043 C 
BRANCH   5   6
ATOM      6  C   UNL     1       6.793   0.093  -1.256  1.00  0.00    -0.044 A 
ATOM      7  C   UNL     1       7.500   0.631  -2.337  1.00  0.00     0.008 A 
ATOM      8  C   UNL     1       7.016  -1.220  -0.907  1.00  0.00     0.054 A 
ATOM      9  C   UNL     1       8.396  -0.172  -3.019  1.00  0.00     0.051 A 
ATOM     10  C   UNL     1       7.923  -2.027  -1.600  1.00  0.00     0.166 A 
ATOM     11  C   UNL     1       8.618  -1.499  -2.665  1.00  0.00     0.165 A 
ATOM     12  O   UNL     1       8.315  -3.341  -1.452  1.00  0.00    -0.454 OA
ATOM     13  O   UNL     1       9.432  -2.509  -3.153  1.00  0.00    -0.454 OA
ATOM     14  C   UNL     1       9.339  -3.667  -2.357  1.00  0.00     0.468 C 
ENDBRANCH   5   6
ENDBRANCH   1   5
TORSDOF 3
ENDMDL
MODEL 3
REMARK VINA RESULT:      -7.0      1.790      2.285
REMARK SMILES CC(=O)CCc1ccc2c(c1)OCO2
REMARK SMILES IDX 4 1 2 2 1 3 3 4 5 5 6 6 7 7 11 8 8 9 10 10 9 11 12 12 14 13
REMARK SMILES IDX 13 14
REMARK H PARENT
REMARK Flexibility Score: inf
ROOT
ATOM      1  C   UNL     1       5.982   1.165  -0.204  1.00  0.00     0.080 C 
ENDROOT
BRANCH   1   2
ATOM      2  C   UNL     1       5.916   1.172   1.284  1.00  0.00     0.130 C 
ATOM      3  C   UNL     1       5.343   0.031   2.046  1.00  0.00     0.087 C 
ATOM      4  O   UNL     1       6.333   2.124   1.925  1.00  0.00    -0.300 OA
ENDBRANCH   1   2
BRANCH   1   5
ATOM      5  C   UNL     1       7.417   1.127  -0.691  1.00  0.00     0.043 C 
BRANCH   5   6
ATOM      6  C   UNL     1       7.794  -0.211  -1.179  1.00  0.00    -0.044 A 
ATOM      7  C   UNL     1       7.998  -0.465  -2.540  1.00  0.00     0.008 A 
ATOM      8  C   UNL     1       7.955  -1.244  -0.283  1.00  0.00     0.054 A 
ATOM      9  C   UNL     1       8.351  -1.741  -2.940  1.00  0.00     0.051 A 
ATOM     10  C   UNL     1       8.313  -2.532  -0.692  1.00  0.00     0.166 A 
ATOM     11  C   UNL     1       8.512  -2.782  -2.031  1.00  0.00     0.165 A 
ATOM     12  O   UNL     1       8.530  -3.709  -0.007  1.00  0.00    -0.454 OA
ATOM     13  O   UNL     1       8.852  -4.121  -2.142  1.00  0.00    -0.454 OA
ATOM     14  C   UNL     1       8.964  -4.724  -0.875  1.00  0.00     0.468 C 
ENDBRANCH   5   6
ENDBRANCH   1   5
TORSDOF 3
ENDMDL
MODEL 4
REMARK VINA RESULT:      -6.6      2.027      2.600
REMARK SMILES CC(=O)CCc1ccc2c(c1)OCO2
REMARK SMILES IDX 4 1 2 2 1 3 3 4 5 5 6 6 7 7 11 8 8 9 10 10 9 11 12 12 14 13
REMARK SMILES IDX 13 14
REMARK H PARENT
REMARK Flexibility Score: inf
ROOT
ATOM      1  C   UNL     1       6.140  -0.422   2.321  1.00  0.00     0.080 C 
ENDROOT
BRANCH   1   2
ATOM      2  C   UNL     1       5.101   0.553   1.886  1.00  0.00     0.130 C 
ATOM      3  C   UNL     1       5.284   1.401   0.678  1.00  0.00     0.087 C 
ATOM      4  O   UNL     1       4.062   0.684   2.513  1.00  0.00    -0.300 OA
ENDBRANCH   1   2
BRANCH   1   5
ATOM      5  C   UNL     1       7.479  -0.126   1.675  1.00  0.00     0.043 C 
BRANCH   5   6
ATOM      6  C   UNL     1       7.770  -1.056   0.570  1.00  0.00    -0.044 A 
ATOM      7  C   UNL     1       7.624  -0.674  -0.768  1.00  0.00     0.008 A 
ATOM      8  C   UNL     1       8.199  -2.334   0.850  1.00  0.00     0.054 A 
ATOM      9  C   UNL     1       7.914  -1.590  -1.763  1.00  0.00     0.051 A 
ATOM     10  C   UNL     1       8.491  -3.256  -0.159  1.00  0.00     0.166 A 
ATOM     11  C   UNL     1       8.347  -2.881  -1.477  1.00  0.00     0.165 A 
ATOM     12  O   UNL     1       8.926  -4.564  -0.140  1.00  0.00    -0.454 OA
ATOM     13  O   UNL     1       8.701  -3.978  -2.247  1.00  0.00    -0.454 OA
ATOM     14  C   UNL     1       9.161  -5.037  -1.441  1.00  0.00     0.468 C 
ENDBRANCH   5   6
ENDBRANCH   1   5
TORSDOF 3
ENDMDL
MODEL 5
REMARK VINA RESULT:      -6.4      2.108      2.544
REMARK SMILES CC(=O)CCc1ccc2c(c1)OCO2
REMARK SMILES IDX 4 1 2 2 1 3 3 4 5 5 6 6 7 7 11 8 8 9 10 10 9 11 12 12 14 13
REMARK SMILES IDX 13 14
REMARK H PARENT
REMARK Flexibility Score: inf
ROOT
ATOM      1  C   UNL     1       5.808   1.066  -0.287  1.00  0.00     0.080 C 
ENDROOT
BRANCH   1   2
ATOM      2  C   UNL     1       5.741   1.252   1.190  1.00  0.00     0.130 C 
ATOM      3  C   UNL     1       4.907   0.371   2.050  1.00  0.00     0.087 C 
ATOM      4  O   UNL     1       6.373   2.139   1.739  1.00  0.00    -0.300 OA
ENDBRANCH   1   2
BRANCH   1   5
ATOM      5  C   UNL     1       7.235   0.846  -0.750  1.00  0.00     0.043 C 
BRANCH   5   6
ATOM      6  C   UNL     1       7.698  -0.522  -0.460  1.00  0.00    -0.044 A 
ATOM      7  C   UNL     1       7.929  -0.957   0.850  1.00  0.00     0.008 A 
ATOM      8  C   UNL     1       7.910  -1.404  -1.496  1.00  0.00     0.054 A 
ATOM      9  C   UNL     1       8.362  -2.253   1.061  1.00  0.00     0.051 A 
ATOM     10  C   UNL     1       8.348  -2.714  -1.278  1.00  0.00     0.166 A 
ATOM     11  C   UNL     1       8.576  -3.142   0.011  1.00  0.00     0.165 A 
ATOM     12  O   UNL     1       8.628  -3.764  -2.125  1.00  0.00    -0.454 OA
ATOM     13  O   UNL     1       8.995  -4.460  -0.072  1.00  0.00    -0.454 OA
ATOM     14  C   UNL     1       8.955  -4.923  -1.401  1.00  0.00     0.468 C 
ENDBRANCH   5   6
ENDBRANCH   1   5
TORSDOF 3
ENDMDL
