@<TRIPOS>MOLECULE
/home/cewinharhar/GITHUB/reincatalyze/data/processed/docking_pred/2023-May-24-1506_sub9_nm5_bs15_s42_ex16_mel10_mts10000_k50_ec02_g099_lra3e-4_lrc3e-3/661305b30cebe31e235170a50c1781f21e405ac9_ligand_9.pdbqt
 14 15 0 0 0
SMALL
GASTEIGER

@<TRIPOS>ATOM
      1  C          6.1400   -0.4220    2.3210 C.3     1  UNL1        0.0800
      2  C          5.1010    0.5530    1.8860 C.2     1  UNL1        0.1300
      3  C          5.2840    1.4010    0.6780 C.3     1  UNL1        0.0870
      4  O          4.0620    0.6840    2.5130 O.2     1  UNL1       -0.3000
      5  C          7.4790   -0.1260    1.6750 C.3     1  UNL1        0.0430
      6  C          7.7700   -1.0560    0.5700 C.2     1  UNL1       -0.0440
      7  C          7.6240   -0.6740   -0.7680 C.2     1  UNL1        0.0080
      8  C          8.1990   -2.3340    0.8500 C.2     1  UNL1        0.0540
      9  C          7.9140   -1.5900   -1.7630 C.2     1  UNL1        0.0510
     10  C          8.4910   -3.2560   -0.1590 C.2     1  UNL1        0.1660
     11  C          8.3470   -2.8810   -1.4770 C.2     1  UNL1        0.1650
     12  O          8.9260   -4.5640   -0.1400 O.2     1  UNL1       -0.4540
     13  O          8.7010   -3.9780   -2.2470 O.2     1  UNL1       -0.4540
     14  C          9.1610   -5.0370   -1.4410 C.3     1  UNL1        0.4680
@<TRIPOS>BOND
     1    13    11    1
     2    13    14    1
     3     9    11    2
     4     9     7    1
     5    11    10    1
     6    14    12    1
     7     7     6    2
     8    10    12    1
     9    10     8    2
    10     6     8    1
    11     6     5    1
    12     3     2    1
    13     5     1    1
    14     2     1    1
    15     2     4    2
