@<TRIPOS>MOLECULE
/home/cewinharhar/GITHUB/reincatalyze/data/processed/docking_pred/2023-May-24-1506_sub9_nm5_bs15_s42_ex16_mel10_mts10000_k50_ec02_g099_lra3e-4_lrc3e-3/661305b30cebe31e235170a50c1781f21e405ac9_ligand_9.pdbqt
 14 15 0 0 0
SMALL
GASTEIGER

@<TRIPOS>ATOM
      1  C          6.3420    1.2260    0.8980 C.3     1  UNL1        0.0800
      2  C          5.6610    0.4030    1.9370 C.2     1  UNL1        0.1300
      3  C          6.2870   -0.8250    2.4950 C.3     1  UNL1        0.0870
      4  O          4.5610    0.7160    2.3620 O.2     1  UNL1       -0.3000
      5  C          5.8260    0.8980   -0.4890 C.3     1  UNL1        0.0430
      6  C          6.7930    0.0930   -1.2560 C.2     1  UNL1       -0.0440
      7  C          7.5000    0.6310   -2.3370 C.2     1  UNL1        0.0080
      8  C          7.0160   -1.2200   -0.9070 C.2     1  UNL1        0.0540
      9  C          8.3960   -0.1720   -3.0190 C.2     1  UNL1        0.0510
     10  C          7.9230   -2.0270   -1.6000 C.2     1  UNL1        0.1660
     11  C          8.6180   -1.4990   -2.6650 C.2     1  UNL1        0.1650
     12  O          8.3150   -3.3410   -1.4520 O.2     1  UNL1       -0.4540
     13  O          9.4320   -2.5090   -3.1530 O.2     1  UNL1       -0.4540
     14  C          9.3390   -3.6670   -2.3570 C.3     1  UNL1        0.4680
@<TRIPOS>BOND
     1    13    11    1
     2    13    14    1
     3     9    11    2
     4     9     7    1
     5    11    10    1
     6    14    12    1
     7     7     6    2
     8    10    12    1
     9    10     8    2
    10     6     8    1
    11     6     5    1
    12     5     1    1
    13     1     2    1
    14     2     4    2
    15     2     3    1
