@<TRIPOS>MOLECULE
/home/cewinharhar/GITHUB/reincatalyze/data/processed/docking_pred/2023-May-24-1506_sub9_nm5_bs15_s42_ex16_mel10_mts10000_k50_ec02_g099_lra3e-4_lrc3e-3/661305b30cebe31e235170a50c1781f21e405ac9_ligand_9.pdbqt
 14 15 0 0 0
SMALL
GASTEIGER

@<TRIPOS>ATOM
      1  C          5.9820    1.1650   -0.2040 C.3     1  UNL1        0.0800
      2  C          5.9160    1.1720    1.2840 C.2     1  UNL1        0.1300
      3  C          5.3430    0.0310    2.0460 C.3     1  UNL1        0.0870
      4  O          6.3330    2.1240    1.9250 O.2     1  UNL1       -0.3000
      5  C          7.4170    1.1270   -0.6910 C.3     1  UNL1        0.0430
      6  C          7.7940   -0.2110   -1.1790 C.2     1  UNL1       -0.0440
      7  C          7.9980   -0.4650   -2.5400 C.2     1  UNL1        0.0080
      8  C          7.9550   -1.2440   -0.2830 C.2     1  UNL1        0.0540
      9  C          8.3510   -1.7410   -2.9400 C.2     1  UNL1        0.0510
     10  C          8.3130   -2.5320   -0.6920 C.2     1  UNL1        0.1660
     11  C          8.5120   -2.7820   -2.0310 C.2     1  UNL1        0.1650
     12  O          8.5300   -3.7090   -0.0070 O.2     1  UNL1       -0.4540
     13  O          8.8520   -4.1210   -2.1420 O.2     1  UNL1       -0.4540
     14  C          8.9640   -4.7240   -0.8750 C.3     1  UNL1        0.4680
@<TRIPOS>BOND
     1     9     7    1
     2     9    11    2
     3     7     6    2
     4    13    11    1
     5    13    14    1
     6    11    10    1
     7     6     5    1
     8     6     8    1
     9    14    12    1
    10    10     8    2
    11    10    12    1
    12     5     1    1
    13     1     2    1
    14     2     4    2
    15     2     3    1
