MODEL 1
REMARK VINA RESULT:      -7.7      0.000      0.000
REMARK SMILES CC(=O)CCc1ccc2c(c1)OCO2
REMARK SMILES IDX 4 1 2 2 1 3 3 4 5 5 6 6 7 7 11 8 8 9 10 10 9 11 12 12 14 13
REMARK SMILES IDX 13 14
REMARK H PARENT
REMARK Flexibility Score: inf
ROOT
ATOM      1  C   UNL     1       5.490   1.928   1.258  1.00  0.00     0.080 C 
ENDROOT
BRANCH   1   2
ATOM      2  C   UNL     1       5.027   0.717   1.992  1.00  0.00     0.130 C 
ATOM      3  C   UNL     1       5.879  -0.497   2.111  1.00  0.00     0.087 C 
ATOM      4  O   UNL     1       3.927   0.686   2.519  1.00  0.00    -0.300 OA
ENDBRANCH   1   2
BRANCH   1   5
ATOM      5  C   UNL     1       5.375   1.740  -0.242  1.00  0.00     0.043 C 
BRANCH   5   6
ATOM      6  C   UNL     1       6.547   1.039  -0.797  1.00  0.00    -0.044 A 
ATOM      7  C   UNL     1       7.852   1.470  -0.532  1.00  0.00     0.008 A 
ATOM      8  C   UNL     1       6.365  -0.069  -1.593  1.00  0.00     0.054 A 
ATOM      9  C   UNL     1       8.913   0.772  -1.079  1.00  0.00     0.051 A 
ATOM     10  C   UNL     1       7.442  -0.772  -2.143  1.00  0.00     0.166 A 
ATOM     11  C   UNL     1       8.726  -0.347  -1.884  1.00  0.00     0.165 A 
ATOM     12  O   UNL     1       7.521  -1.884  -2.954  1.00  0.00    -0.454 OA
ATOM     13  O   UNL     1       9.577  -1.218  -2.547  1.00  0.00    -0.454 OA
ATOM     14  C   UNL     1       8.858  -2.260  -3.163  1.00  0.00     0.468 C 
ENDBRANCH   5   6
ENDBRANCH   1   5
TORSDOF 3
ENDMDL
MODEL 2
REMARK VINA RESULT:      -7.5      1.946      2.418
REMARK SMILES CC(=O)CCc1ccc2c(c1)OCO2
REMARK SMILES IDX 4 1 2 2 1 3 3 4 5 5 6 6 7 7 11 8 8 9 10 10 9 11 12 12 14 13
REMARK SMILES IDX 13 14
REMARK H PARENT
REMARK Flexibility Score: inf
ROOT
ATOM      1  C   UNL     1       5.809   1.380  -0.317  1.00  0.00     0.080 C 
ENDROOT
BRANCH   1   2
ATOM      2  C   UNL     1       5.154   1.289   1.018  1.00  0.00     0.130 C 
ATOM      3  C   UNL     1       5.420   0.155   1.943  1.00  0.00     0.087 C 
ATOM      4  O   UNL     1       4.375   2.150   1.394  1.00  0.00    -0.300 OA
ENDBRANCH   1   2
BRANCH   1   5
ATOM      5  C   UNL     1       7.296   1.100  -0.221  1.00  0.00     0.043 C 
BRANCH   5   6
ATOM      6  C   UNL     1       7.649  -0.193  -0.832  1.00  0.00    -0.044 A 
ATOM      7  C   UNL     1       7.688  -0.361  -2.221  1.00  0.00     0.008 A 
ATOM      8  C   UNL     1       7.951  -1.268  -0.028  1.00  0.00     0.054 A 
ATOM      9  C   UNL     1       8.027  -1.598  -2.738  1.00  0.00     0.051 A 
ATOM     10  C   UNL     1       8.294  -2.517  -0.555  1.00  0.00     0.166 A 
ATOM     11  C   UNL     1       8.332  -2.683  -1.922  1.00  0.00     0.165 A 
ATOM     12  O   UNL     1       8.630  -3.722   0.024  1.00  0.00    -0.454 OA
ATOM     13  O   UNL     1       8.695  -4.000  -2.156  1.00  0.00    -0.454 OA
ATOM     14  C   UNL     1       8.982  -4.669  -0.951  1.00  0.00     0.468 C 
ENDBRANCH   5   6
ENDBRANCH   1   5
TORSDOF 3
ENDMDL
MODEL 3
REMARK VINA RESULT:      -7.2      2.089      2.619
REMARK SMILES CC(=O)CCc1ccc2c(c1)OCO2
REMARK SMILES IDX 4 1 2 2 1 3 3 4 5 5 6 6 7 7 11 8 8 9 10 10 9 11 12 12 14 13
REMARK SMILES IDX 13 14
REMARK H PARENT
REMARK Flexibility Score: inf
ROOT
ATOM      1  C   UNL     1       5.585   0.024   1.900  1.00  0.00     0.080 C 
ENDROOT
BRANCH   1   2
ATOM      2  C   UNL     1       4.686   1.175   1.609  1.00  0.00     0.130 C 
ATOM      3  C   UNL     1       4.990   2.150   0.528  1.00  0.00     0.087 C 
ATOM      4  O   UNL     1       3.666   1.353   2.256  1.00  0.00    -0.300 OA
ENDBRANCH   1   2
BRANCH   1   5
ATOM      5  C   UNL     1       6.991   0.282   1.397  1.00  0.00     0.043 C 
BRANCH   5   6
ATOM      6  C   UNL     1       7.391  -0.692   0.367  1.00  0.00    -0.044 A 
ATOM      7  C   UNL     1       7.272  -0.406  -0.998  1.00  0.00     0.008 A 
ATOM      8  C   UNL     1       7.897  -1.915   0.744  1.00  0.00     0.054 A 
ATOM      9  C   UNL     1       7.664  -1.360  -1.920  1.00  0.00     0.051 A 
ATOM     10  C   UNL     1       8.293  -2.875  -0.192  1.00  0.00     0.166 A 
ATOM     11  C   UNL     1       8.175  -2.595  -1.535  1.00  0.00     0.165 A 
ATOM     12  O   UNL     1       8.817  -4.145  -0.072  1.00  0.00    -0.454 OA
ATOM     13  O   UNL     1       8.635  -3.710  -2.219  1.00  0.00    -0.454 OA
ATOM     14  C   UNL     1       9.136  -4.680  -1.331  1.00  0.00     0.468 C 
ENDBRANCH   5   6
ENDBRANCH   1   5
TORSDOF 3
ENDMDL
MODEL 4
REMARK VINA RESULT:      -7.1      1.269      1.487
REMARK SMILES CC(=O)CCc1ccc2c(c1)OCO2
REMARK SMILES IDX 4 1 2 2 1 3 3 4 5 5 6 6 7 7 11 8 8 9 10 10 9 11 12 12 14 13
REMARK SMILES IDX 13 14
REMARK H PARENT
REMARK Flexibility Score: inf
ROOT
ATOM      1  C   UNL     1       6.381   1.181   0.956  1.00  0.00     0.080 C 
ENDROOT
BRANCH   1   2
ATOM      2  C   UNL     1       5.648   0.362   1.962  1.00  0.00     0.130 C 
ATOM      3  C   UNL     1       6.243  -0.866   2.551  1.00  0.00     0.087 C 
ATOM      4  O   UNL     1       4.529   0.679   2.332  1.00  0.00    -0.300 OA
ENDBRANCH   1   2
BRANCH   1   5
ATOM      5  C   UNL     1       5.867   0.920  -0.446  1.00  0.00     0.043 C 
BRANCH   5   6
ATOM      6  C   UNL     1       6.809   0.099  -1.228  1.00  0.00    -0.044 A 
ATOM      7  C   UNL     1       7.474   0.612  -2.348  1.00  0.00     0.008 A 
ATOM      8  C   UNL     1       7.049  -1.205  -0.856  1.00  0.00     0.054 A 
ATOM      9  C   UNL     1       8.346  -0.206  -3.043  1.00  0.00     0.051 A 
ATOM     10  C   UNL     1       7.933  -2.027  -1.562  1.00  0.00     0.166 A 
ATOM     11  C   UNL     1       8.587  -1.523  -2.665  1.00  0.00     0.165 A 
ATOM     12  O   UNL     1       8.335  -3.335  -1.396  1.00  0.00    -0.454 OA
ATOM     13  O   UNL     1       9.386  -2.543  -3.157  1.00  0.00    -0.454 OA
ATOM     14  C   UNL     1       9.325  -3.680  -2.330  1.00  0.00     0.468 C 
ENDBRANCH   5   6
ENDBRANCH   1   5
TORSDOF 3
ENDMDL
MODEL 5
REMARK VINA RESULT:      -7.0      1.969      2.551
REMARK SMILES CC(=O)CCc1ccc2c(c1)OCO2
REMARK SMILES IDX 4 1 2 2 1 3 3 4 5 5 6 6 7 7 11 8 8 9 10 10 9 11 12 12 14 13
REMARK SMILES IDX 13 14
REMARK H PARENT
REMARK Flexibility Score: inf
ROOT
ATOM      1  C   UNL     1       6.936   0.935   1.188  1.00  0.00     0.080 C 
ENDROOT
BRANCH   1   2
ATOM      2  C   UNL     1       5.489   1.155   1.464  1.00  0.00     0.130 C 
ATOM      3  C   UNL     1       4.691   2.150   0.700  1.00  0.00     0.087 C 
ATOM      4  O   UNL     1       4.914   0.520   2.333  1.00  0.00    -0.300 OA
ENDBRANCH   1   2
BRANCH   1   5
ATOM      5  C   UNL     1       7.237   1.051  -0.293  1.00  0.00     0.043 C 
BRANCH   5   6
ATOM      6  C   UNL     1       7.585  -0.253  -0.885  1.00  0.00    -0.044 A 
ATOM      7  C   UNL     1       7.599  -0.450  -2.270  1.00  0.00     0.008 A 
ATOM      8  C   UNL     1       7.908  -1.310  -0.064  1.00  0.00     0.054 A 
ATOM      9  C   UNL     1       7.934  -1.696  -2.768  1.00  0.00     0.051 A 
ATOM     10  C   UNL     1       8.246  -2.568  -0.572  1.00  0.00     0.166 A 
ATOM     11  C   UNL     1       8.259  -2.762  -1.935  1.00  0.00     0.165 A 
ATOM     12  O   UNL     1       8.600  -3.759   0.026  1.00  0.00    -0.454 OA
ATOM     13  O   UNL     1       8.624  -4.082  -2.148  1.00  0.00    -0.454 OA
ATOM     14  C   UNL     1       8.938  -4.725  -0.936  1.00  0.00     0.468 C 
ENDBRANCH   5   6
ENDBRANCH   1   5
TORSDOF 3
ENDMDL
