@<TRIPOS>MOLECULE
/home/cewinharhar/GITHUB/reincatalyze/data/processed/docking_pred/2023-May-24-1506_sub9_nm5_bs15_s42_ex16_mel10_mts10000_k50_ec02_g099_lra3e-4_lrc3e-3/6691783982383693653edef26cf46480091a335e_ligand_9.pdbqt
 14 15 0 0 0
SMALL
GASTEIGER

@<TRIPOS>ATOM
      1  C          6.9360    0.9350    1.1880 C.3     1  UNL1        0.0800
      2  C          5.4890    1.1550    1.4640 C.2     1  UNL1        0.1300
      3  C          4.6910    2.1500    0.7000 C.3     1  UNL1        0.0870
      4  O          4.9140    0.5200    2.3330 O.2     1  UNL1       -0.3000
      5  C          7.2370    1.0510   -0.2930 C.3     1  UNL1        0.0430
      6  C          7.5850   -0.2530   -0.8850 C.2     1  UNL1       -0.0440
      7  C          7.5990   -0.4500   -2.2700 C.2     1  UNL1        0.0080
      8  C          7.9080   -1.3100   -0.0640 C.2     1  UNL1        0.0540
      9  C          7.9340   -1.6960   -2.7680 C.2     1  UNL1        0.0510
     10  C          8.2460   -2.5680   -0.5720 C.2     1  UNL1        0.1660
     11  C          8.2590   -2.7620   -1.9350 C.2     1  UNL1        0.1650
     12  O          8.6000   -3.7590    0.0260 O.2     1  UNL1       -0.4540
     13  O          8.6240   -4.0820   -2.1480 O.2     1  UNL1       -0.4540
     14  C          8.9380   -4.7250   -0.9360 C.3     1  UNL1        0.4680
@<TRIPOS>BOND
     1     9     7    1
     2     9    11    2
     3     7     6    2
     4    13    11    1
     5    13    14    1
     6    11    10    1
     7    14    12    1
     8     6     5    1
     9     6     8    1
    10    10     8    2
    11    10    12    1
    12     5     1    1
    13     3     2    1
    14     1     2    1
    15     2     4    2
