@<TRIPOS>MOLECULE
/home/cewinharhar/GITHUB/reincatalyze/data/processed/docking_pred/2023-May-24-1506_sub9_nm5_bs15_s42_ex16_mel10_mts10000_k50_ec02_g099_lra3e-4_lrc3e-3/6691783982383693653edef26cf46480091a335e_ligand_9.pdbqt
 14 15 0 0 0
SMALL
GASTEIGER

@<TRIPOS>ATOM
      1  C          5.5850    0.0240    1.9000 C.3     1  UNL1        0.0800
      2  C          4.6860    1.1750    1.6090 C.2     1  UNL1        0.1300
      3  C          4.9900    2.1500    0.5280 C.3     1  UNL1        0.0870
      4  O          3.6660    1.3530    2.2560 O.2     1  UNL1       -0.3000
      5  C          6.9910    0.2820    1.3970 C.3     1  UNL1        0.0430
      6  C          7.3910   -0.6920    0.3670 C.2     1  UNL1       -0.0440
      7  C          7.2720   -0.4060   -0.9980 C.2     1  UNL1        0.0080
      8  C          7.8970   -1.9150    0.7440 C.2     1  UNL1        0.0540
      9  C          7.6640   -1.3600   -1.9200 C.2     1  UNL1        0.0510
     10  C          8.2930   -2.8750   -0.1920 C.2     1  UNL1        0.1660
     11  C          8.1750   -2.5950   -1.5350 C.2     1  UNL1        0.1650
     12  O          8.8170   -4.1450   -0.0720 O.2     1  UNL1       -0.4540
     13  O          8.6350   -3.7100   -2.2190 O.2     1  UNL1       -0.4540
     14  C          9.1360   -4.6800   -1.3310 C.3     1  UNL1        0.4680
@<TRIPOS>BOND
     1    13    11    1
     2    13    14    1
     3     9    11    2
     4     9     7    1
     5    11    10    1
     6    14    12    1
     7     7     6    2
     8    10    12    1
     9    10     8    2
    10     6     8    1
    11     6     5    1
    12     3     2    1
    13     5     1    1
    14     2     1    1
    15     2     4    2
