@<TRIPOS>MOLECULE
/home/cewinharhar/GITHUB/reincatalyze/data/processed/docking_pred/2023-May-24-1506_sub9_nm5_bs15_s42_ex16_mel10_mts10000_k50_ec02_g099_lra3e-4_lrc3e-3/67714d3181cdcfbe83529be90e704c7fe5693ba3_ligand_9.pdbqt
 14 15 0 0 0
SMALL
GASTEIGER

@<TRIPOS>ATOM
      1  C          5.7670   -0.1480    1.4160 C.3     1  UNL1        0.0800
      2  C          4.8990    1.0620    1.4390 C.2     1  UNL1        0.1300
      3  C          5.0490    2.1500    0.4360 C.3     1  UNL1        0.0870
      4  O          4.0320    1.1950    2.2880 O.2     1  UNL1       -0.3000
      5  C          7.2040    0.2120    1.0930 C.3     1  UNL1        0.0430
      6  C          7.6090   -0.2920   -0.2310 C.2     1  UNL1       -0.0440
      7  C          7.8130    0.5710   -1.3130 C.2     1  UNL1        0.0080
      8  C          7.7970   -1.6430   -0.4180 C.2     1  UNL1        0.0540
      9  C          8.1940    0.0410   -2.5320 C.2     1  UNL1        0.0510
     10  C          8.1830   -2.1740   -1.6520 C.2     1  UNL1        0.1660
     11  C          8.3820   -1.3250   -2.7180 C.2     1  UNL1        0.1650
     12  O          8.4290   -3.4590   -2.0870 O.2     1  UNL1       -0.4540
     13  O          8.7520   -2.1150   -3.7960 O.2     1  UNL1       -0.4540
     14  C          8.8830   -3.4640   -3.4160 C.3     1  UNL1        0.4680
@<TRIPOS>BOND
     1    13    14    1
     2    13    11    1
     3    14    12    1
     4    11     9    2
     5    11    10    1
     6     9     7    1
     7    12    10    1
     8    10     8    2
     9     7     6    2
    10     8     6    1
    11     6     5    1
    12     3     2    1
    13     5     1    1
    14     1     2    1
    15     2     4    2
