@<TRIPOS>MOLECULE
/home/cewinharhar/GITHUB/reincatalyze/data/processed/docking_pred/2023-May-24-1506_sub9_nm5_bs15_s42_ex16_mel10_mts10000_k50_ec02_g099_lra3e-4_lrc3e-3/67714d3181cdcfbe83529be90e704c7fe5693ba3_ligand_9.pdbqt
 14 15 0 0 0
SMALL
GASTEIGER

@<TRIPOS>ATOM
      1  C          8.1140   -2.5520   -3.6230 C.3     1  UNL1        0.0800
      2  C          9.2230   -3.5250   -3.4180 C.2     1  UNL1        0.1300
      3  C          8.9700   -4.9880   -3.3200 C.3     1  UNL1        0.0870
      4  O         10.3790   -3.1470   -3.3240 O.2     1  UNL1       -0.3000
      5  C          8.5050   -1.1650   -3.1540 C.3     1  UNL1        0.0430
      6  C          7.7400   -0.7540   -1.9630 C.2     1  UNL1       -0.0440
      7  C          6.8740    0.3450   -1.9910 C.2     1  UNL1        0.0080
      8  C          7.8700   -1.4630   -0.7910 C.2     1  UNL1        0.0540
      9  C          6.1810    0.6830   -0.8430 C.2     1  UNL1        0.0510
     10  C          7.1660   -1.1180    0.3670 C.2     1  UNL1        0.1660
     11  C          6.3150   -0.0350    0.3400 C.2     1  UNL1        0.1650
     12  O          7.1240   -1.6540    1.6360 O.2     1  UNL1       -0.4540
     13  O          5.7620    0.0710    1.6070 O.2     1  UNL1       -0.4540
     14  C          6.1780   -0.9900    2.4340 C.3     1  UNL1        0.4680
@<TRIPOS>BOND
     1     1     2    1
     2     1     5    1
     3     2     4    2
     4     2     3    1
     5     5     6    1
     6     7     6    2
     7     7     9    1
     8     6     8    1
     9     9    11    2
    10     8    10    2
    11    11    10    1
    12    11    13    1
    13    10    12    1
    14    13    14    1
    15    12    14    1
