MODEL 1
REMARK VINA RESULT:      -8.1      0.000      0.000
REMARK SMILES CC(=O)CCc1ccc2c(c1)OCO2
REMARK SMILES IDX 4 1 2 2 1 3 3 4 5 5 6 6 7 7 11 8 8 9 10 10 9 11 12 12 14 13
REMARK SMILES IDX 13 14
REMARK H PARENT
REMARK Flexibility Score: inf
ROOT
ATOM      1  C   UNL     1       6.028   1.631   1.168  1.00  0.00     0.080 C 
ENDROOT
BRANCH   1   2
ATOM      2  C   UNL     1       5.451   0.527   1.984  1.00  0.00     0.130 C 
ATOM      3  C   UNL     1       6.231  -0.699   2.301  1.00  0.00     0.087 C 
ATOM      4  O   UNL     1       4.313   0.598   2.419  1.00  0.00    -0.300 OA
ENDBRANCH   1   2
BRANCH   1   5
ATOM      5  C   UNL     1       5.749   1.427  -0.309  1.00  0.00     0.043 C 
BRANCH   5   6
ATOM      6  C   UNL     1       6.815   0.646  -0.963  1.00  0.00    -0.044 A 
ATOM      7  C   UNL     1       8.161   1.017  -0.864  1.00  0.00     0.008 A 
ATOM      8  C   UNL     1       6.490  -0.477  -1.688  1.00  0.00     0.054 A 
ATOM      9  C   UNL     1       9.117   0.245  -1.499  1.00  0.00     0.051 A 
ATOM     10  C   UNL     1       7.461  -1.255  -2.327  1.00  0.00     0.166 A 
ATOM     11  C   UNL     1       8.785  -0.890  -2.232  1.00  0.00     0.165 A 
ATOM     12  O   UNL     1       7.393  -2.397  -3.096  1.00  0.00    -0.454 OA
ATOM     13  O   UNL     1       9.511  -1.826  -2.951  1.00  0.00    -0.454 OA
ATOM     14  C   UNL     1       8.678  -2.850  -3.439  1.00  0.00     0.468 C 
ENDBRANCH   5   6
ENDBRANCH   1   5
TORSDOF 3
ENDMDL
MODEL 2
REMARK VINA RESULT:      -7.2      1.605      5.563
REMARK SMILES CC(=O)CCc1ccc2c(c1)OCO2
REMARK SMILES IDX 4 1 2 2 1 3 3 4 5 5 6 6 7 7 11 8 8 9 10 10 9 11 12 12 14 13
REMARK SMILES IDX 13 14
REMARK H PARENT
REMARK Flexibility Score: inf
ROOT
ATOM      1  C   UNL     1       8.111  -2.611  -3.560  1.00  0.00     0.080 C 
ENDROOT
BRANCH   1   2
ATOM      2  C   UNL     1       9.240  -3.561  -3.362  1.00  0.00     0.130 C 
ATOM      3  C   UNL     1       9.011  -5.018  -3.167  1.00  0.00     0.087 C 
ATOM      4  O   UNL     1      10.396  -3.168  -3.354  1.00  0.00    -0.300 OA
ENDBRANCH   1   2
BRANCH   1   5
ATOM      5  C   UNL     1       8.468  -1.222  -3.070  1.00  0.00     0.043 C 
BRANCH   5   6
ATOM      6  C   UNL     1       7.715  -0.861  -1.855  1.00  0.00    -0.044 A 
ATOM      7  C   UNL     1       7.768  -1.649  -0.699  1.00  0.00     0.008 A 
ATOM      8  C   UNL     1       6.941   0.276  -1.844  1.00  0.00     0.054 A 
ATOM      9  C   UNL     1       7.041  -1.260   0.412  1.00  0.00     0.051 A 
ATOM     10  C   UNL     1       6.208   0.665  -0.719  1.00  0.00     0.166 A 
ATOM     11  C   UNL     1       6.259  -0.110   0.418  1.00  0.00     0.165 A 
ATOM     12  O   UNL     1       5.377   1.735  -0.462  1.00  0.00    -0.454 OA
ATOM     13  O   UNL     1       5.449   0.507   1.360  1.00  0.00    -0.454 OA
ATOM     14  C   UNL     1       4.943   1.727   0.874  1.00  0.00     0.468 C 
ENDBRANCH   5   6
ENDBRANCH   1   5
TORSDOF 3
ENDMDL
MODEL 3
REMARK VINA RESULT:      -7.2      1.217      1.359
REMARK SMILES CC(=O)CCc1ccc2c(c1)OCO2
REMARK SMILES IDX 4 1 2 2 1 3 3 4 5 5 6 6 7 7 11 8 8 9 10 10 9 11 12 12 14 13
REMARK SMILES IDX 13 14
REMARK H PARENT
REMARK Flexibility Score: inf
ROOT
ATOM      1  C   UNL     1       5.745   0.786   0.399  1.00  0.00     0.080 C 
ENDROOT
BRANCH   1   2
ATOM      2  C   UNL     1       5.426   0.289   1.767  1.00  0.00     0.130 C 
ATOM      3  C   UNL     1       6.274  -0.727   2.446  1.00  0.00     0.087 C 
ATOM      4  O   UNL     1       4.452   0.704   2.373  1.00  0.00    -0.300 OA
ENDBRANCH   1   2
BRANCH   1   5
ATOM      5  C   UNL     1       7.243   0.838   0.168  1.00  0.00     0.043 C 
BRANCH   5   6
ATOM      6  C   UNL     1       7.649  -0.004  -0.971  1.00  0.00    -0.044 A 
ATOM      7  C   UNL     1       7.859   0.538  -2.245  1.00  0.00     0.008 A 
ATOM      8  C   UNL     1       7.832  -1.355  -0.790  1.00  0.00     0.054 A 
ATOM      9  C   UNL     1       8.240  -0.300  -3.276  1.00  0.00     0.051 A 
ATOM     10  C   UNL     1       8.219  -2.199  -1.836  1.00  0.00     0.166 A 
ATOM     11  C   UNL     1       8.424  -1.667  -3.089  1.00  0.00     0.165 A 
ATOM     12  O   UNL     1       8.461  -3.554  -1.909  1.00  0.00    -0.454 OA
ATOM     13  O   UNL     1       8.793  -2.717  -3.915  1.00  0.00    -0.454 OA
ATOM     14  C   UNL     1       8.918  -3.916  -3.187  1.00  0.00     0.468 C 
ENDBRANCH   5   6
ENDBRANCH   1   5
TORSDOF 3
ENDMDL
MODEL 4
REMARK VINA RESULT:      -7.2      1.260      1.687
REMARK SMILES CC(=O)CCc1ccc2c(c1)OCO2
REMARK SMILES IDX 4 1 2 2 1 3 3 4 5 5 6 6 7 7 11 8 8 9 10 10 9 11 12 12 14 13
REMARK SMILES IDX 13 14
REMARK H PARENT
REMARK Flexibility Score: inf
ROOT
ATOM      1  C   UNL     1       5.767  -0.148   1.416  1.00  0.00     0.080 C 
ENDROOT
BRANCH   1   2
ATOM      2  C   UNL     1       4.899   1.062   1.439  1.00  0.00     0.130 C 
ATOM      3  C   UNL     1       5.049   2.150   0.436  1.00  0.00     0.087 C 
ATOM      4  O   UNL     1       4.032   1.195   2.288  1.00  0.00    -0.300 OA
ENDBRANCH   1   2
BRANCH   1   5
ATOM      5  C   UNL     1       7.204   0.212   1.093  1.00  0.00     0.043 C 
BRANCH   5   6
ATOM      6  C   UNL     1       7.609  -0.292  -0.231  1.00  0.00    -0.044 A 
ATOM      7  C   UNL     1       7.813   0.571  -1.313  1.00  0.00     0.008 A 
ATOM      8  C   UNL     1       7.797  -1.643  -0.418  1.00  0.00     0.054 A 
ATOM      9  C   UNL     1       8.194   0.041  -2.532  1.00  0.00     0.051 A 
ATOM     10  C   UNL     1       8.183  -2.174  -1.652  1.00  0.00     0.166 A 
ATOM     11  C   UNL     1       8.382  -1.325  -2.718  1.00  0.00     0.165 A 
ATOM     12  O   UNL     1       8.429  -3.459  -2.087  1.00  0.00    -0.454 OA
ATOM     13  O   UNL     1       8.752  -2.115  -3.796  1.00  0.00    -0.454 OA
ATOM     14  C   UNL     1       8.883  -3.464  -3.416  1.00  0.00     0.468 C 
ENDBRANCH   5   6
ENDBRANCH   1   5
TORSDOF 3
ENDMDL
MODEL 5
REMARK VINA RESULT:      -7.1      1.643      5.444
REMARK SMILES CC(=O)CCc1ccc2c(c1)OCO2
REMARK SMILES IDX 4 1 2 2 1 3 3 4 5 5 6 6 7 7 11 8 8 9 10 10 9 11 12 12 14 13
REMARK SMILES IDX 13 14
REMARK H PARENT
REMARK Flexibility Score: inf
ROOT
ATOM      1  C   UNL     1       8.114  -2.552  -3.623  1.00  0.00     0.080 C 
ENDROOT
BRANCH   1   2
ATOM      2  C   UNL     1       9.223  -3.525  -3.418  1.00  0.00     0.130 C 
ATOM      3  C   UNL     1       8.970  -4.988  -3.320  1.00  0.00     0.087 C 
ATOM      4  O   UNL     1      10.379  -3.147  -3.324  1.00  0.00    -0.300 OA
ENDBRANCH   1   2
BRANCH   1   5
ATOM      5  C   UNL     1       8.505  -1.165  -3.154  1.00  0.00     0.043 C 
BRANCH   5   6
ATOM      6  C   UNL     1       7.740  -0.754  -1.963  1.00  0.00    -0.044 A 
ATOM      7  C   UNL     1       6.874   0.345  -1.991  1.00  0.00     0.008 A 
ATOM      8  C   UNL     1       7.870  -1.463  -0.791  1.00  0.00     0.054 A 
ATOM      9  C   UNL     1       6.181   0.683  -0.843  1.00  0.00     0.051 A 
ATOM     10  C   UNL     1       7.166  -1.118   0.367  1.00  0.00     0.166 A 
ATOM     11  C   UNL     1       6.315  -0.035   0.340  1.00  0.00     0.165 A 
ATOM     12  O   UNL     1       7.124  -1.654   1.636  1.00  0.00    -0.454 OA
ATOM     13  O   UNL     1       5.762   0.071   1.607  1.00  0.00    -0.454 OA
ATOM     14  C   UNL     1       6.178  -0.990   2.434  1.00  0.00     0.468 C 
ENDBRANCH   5   6
ENDBRANCH   1   5
TORSDOF 3
ENDMDL
