@<TRIPOS>MOLECULE
/home/cewinharhar/GITHUB/reincatalyze/data/processed/docking_pred/2023-May-24-1506_sub9_nm5_bs15_s42_ex16_mel10_mts10000_k50_ec02_g099_lra3e-4_lrc3e-3/67714d3181cdcfbe83529be90e704c7fe5693ba3_ligand_9.pdbqt
 14 15 0 0 0
SMALL
GASTEIGER

@<TRIPOS>ATOM
      1  C          5.7450    0.7860    0.3990 C.3     1  UNL1        0.0800
      2  C          5.4260    0.2890    1.7670 C.2     1  UNL1        0.1300
      3  C          6.2740   -0.7270    2.4460 C.3     1  UNL1        0.0870
      4  O          4.4520    0.7040    2.3730 O.2     1  UNL1       -0.3000
      5  C          7.2430    0.8380    0.1680 C.3     1  UNL1        0.0430
      6  C          7.6490   -0.0040   -0.9710 C.2     1  UNL1       -0.0440
      7  C          7.8590    0.5380   -2.2450 C.2     1  UNL1        0.0080
      8  C          7.8320   -1.3550   -0.7900 C.2     1  UNL1        0.0540
      9  C          8.2400   -0.3000   -3.2760 C.2     1  UNL1        0.0510
     10  C          8.2190   -2.1990   -1.8360 C.2     1  UNL1        0.1660
     11  C          8.4240   -1.6670   -3.0890 C.2     1  UNL1        0.1650
     12  O          8.4610   -3.5540   -1.9090 O.2     1  UNL1       -0.4540
     13  O          8.7930   -2.7170   -3.9150 O.2     1  UNL1       -0.4540
     14  C          8.9180   -3.9160   -3.1870 C.3     1  UNL1        0.4680
@<TRIPOS>BOND
     1    13    14    1
     2    13    11    1
     3     9    11    2
     4     9     7    1
     5    14    12    1
     6    11    10    1
     7     7     6    2
     8    12    10    1
     9    10     8    2
    10     6     8    1
    11     6     5    1
    12     5     1    1
    13     1     2    1
    14     2     4    2
    15     2     3    1
