@<TRIPOS>MOLECULE
/home/cewinharhar/GITHUB/reincatalyze/data/processed/docking_pred/2023-May-24-1506_sub9_nm5_bs15_s42_ex16_mel10_mts10000_k50_ec02_g099_lra3e-4_lrc3e-3/67714d3181cdcfbe83529be90e704c7fe5693ba3_ligand_9.pdbqt
 14 15 0 0 0
SMALL
GASTEIGER

@<TRIPOS>ATOM
      1  C          6.0280    1.6310    1.1680 C.3     1  UNL1        0.0800
      2  C          5.4510    0.5270    1.9840 C.2     1  UNL1        0.1300
      3  C          6.2310   -0.6990    2.3010 C.3     1  UNL1        0.0870
      4  O          4.3130    0.5980    2.4190 O.2     1  UNL1       -0.3000
      5  C          5.7490    1.4270   -0.3090 C.3     1  UNL1        0.0430
      6  C          6.8150    0.6460   -0.9630 C.2     1  UNL1       -0.0440
      7  C          8.1610    1.0170   -0.8640 C.2     1  UNL1        0.0080
      8  C          6.4900   -0.4770   -1.6880 C.2     1  UNL1        0.0540
      9  C          9.1170    0.2450   -1.4990 C.2     1  UNL1        0.0510
     10  C          7.4610   -1.2550   -2.3270 C.2     1  UNL1        0.1660
     11  C          8.7850   -0.8900   -2.2320 C.2     1  UNL1        0.1650
     12  O          7.3930   -2.3970   -3.0960 O.2     1  UNL1       -0.4540
     13  O          9.5110   -1.8260   -2.9510 O.2     1  UNL1       -0.4540
     14  C          8.6780   -2.8500   -3.4390 C.3     1  UNL1        0.4680
@<TRIPOS>BOND
     1    14    12    1
     2    14    13    1
     3    12    10    1
     4    13    11    1
     5    10    11    2
     6    10     8    1
     7    11     9    1
     8     8     6    2
     9     9     7    2
    10     6     7    1
    11     6     5    1
    12     5     1    1
    13     1     2    1
    14     2     3    1
    15     2     4    2
