@<TRIPOS>MOLECULE
/home/cewinharhar/GITHUB/reincatalyze/data/processed/docking_pred/2023-May-24-1506_sub9_nm5_bs15_s42_ex16_mel10_mts10000_k50_ec02_g099_lra3e-4_lrc3e-3/67714d3181cdcfbe83529be90e704c7fe5693ba3_ligand_9.pdbqt
 14 15 0 0 0
SMALL
GASTEIGER

@<TRIPOS>ATOM
      1  C          8.1110   -2.6110   -3.5600 C.3     1  UNL1        0.0800
      2  C          9.2400   -3.5610   -3.3620 C.2     1  UNL1        0.1300
      3  C          9.0110   -5.0180   -3.1670 C.3     1  UNL1        0.0870
      4  O         10.3960   -3.1680   -3.3540 O.2     1  UNL1       -0.3000
      5  C          8.4680   -1.2220   -3.0700 C.3     1  UNL1        0.0430
      6  C          7.7150   -0.8610   -1.8550 C.2     1  UNL1       -0.0440
      7  C          7.7680   -1.6490   -0.6990 C.2     1  UNL1        0.0080
      8  C          6.9410    0.2760   -1.8440 C.2     1  UNL1        0.0540
      9  C          7.0410   -1.2600    0.4120 C.2     1  UNL1        0.0510
     10  C          6.2080    0.6650   -0.7190 C.2     1  UNL1        0.1660
     11  C          6.2590   -0.1100    0.4180 C.2     1  UNL1        0.1650
     12  O          5.3770    1.7350   -0.4620 O.2     1  UNL1       -0.4540
     13  O          5.4490    0.5070    1.3600 O.2     1  UNL1       -0.4540
     14  C          4.9430    1.7270    0.8740 C.3     1  UNL1        0.4680
@<TRIPOS>BOND
     1     1     2    1
     2     1     5    1
     3     2     4    2
     4     2     3    1
     5     5     6    1
     6     6     8    2
     7     6     7    1
     8     8    10    1
     9    10    12    1
    10    10    11    2
    11     7     9    2
    12    12    14    1
    13     9    11    1
    14    11    13    1
    15    14    13    1
