@<TRIPOS>MOLECULE
/home/cewinharhar/GITHUB/reincatalyze/data/processed/docking_pred/2023-May-24-1506_sub9_nm5_bs15_s42_ex16_mel10_mts10000_k50_ec02_g099_lra3e-4_lrc3e-3/677496c5c46bc5e4ac1ff58ba47d0b72a83fedc5_ligand_9.pdbqt
 14 15 0 0 0
SMALL
GASTEIGER

@<TRIPOS>ATOM
      1  C          5.7450    1.2840   -0.2890 C.3     1  UNL1        0.0800
      2  C          5.2010    1.2120    1.0960 C.2     1  UNL1        0.1300
      3  C          5.3840    0.0050    1.9450 C.3     1  UNL1        0.0870
      4  O          4.5850    2.1500    1.5760 O.2     1  UNL1       -0.3000
      5  C          7.2460    1.0730   -0.3020 C.3     1  UNL1        0.0430
      6  C          7.6110   -0.2180   -0.9130 C.2     1  UNL1       -0.0440
      7  C          7.6380   -0.3900   -2.3010 C.2     1  UNL1        0.0080
      8  C          7.9380   -1.2850   -0.1080 C.2     1  UNL1        0.0540
      9  C          7.9880   -1.6250   -2.8180 C.2     1  UNL1        0.0510
     10  C          8.2930   -2.5310   -0.6340 C.2     1  UNL1        0.1660
     11  C          8.3180   -2.7020   -2.0010 C.2     1  UNL1        0.1650
     12  O          8.6530   -3.7290   -0.0540 O.2     1  UNL1       -0.4540
     13  O          8.6970   -4.0140   -2.2340 O.2     1  UNL1       -0.4540
     14  C          9.0080   -4.6750   -1.0300 C.3     1  UNL1        0.4680
@<TRIPOS>BOND
     1     9     7    1
     2     9    11    2
     3     7     6    2
     4    13    11    1
     5    13    14    1
     6    11    10    1
     7    14    12    1
     8     6     5    1
     9     6     8    1
    10    10     8    2
    11    10    12    1
    12     5     1    1
    13     1     2    1
    14     2     4    2
    15     2     3    1
