@<TRIPOS>MOLECULE
/home/cewinharhar/GITHUB/reincatalyze/data/processed/docking_pred/2023-May-24-1506_sub9_nm5_bs15_s42_ex16_mel10_mts10000_k50_ec02_g099_lra3e-4_lrc3e-3/677496c5c46bc5e4ac1ff58ba47d0b72a83fedc5_ligand_9.pdbqt
 14 15 0 0 0
SMALL
GASTEIGER

@<TRIPOS>ATOM
      1  C          6.3920    1.1460    0.9420 C.3     1  UNL1        0.0800
      2  C          5.6680    0.3150    1.9440 C.2     1  UNL1        0.1300
      3  C          6.2880   -0.8940    2.5490 C.3     1  UNL1        0.0870
      4  O          4.5370    0.6040    2.2990 O.2     1  UNL1       -0.3000
      5  C          5.8860    0.8800   -0.4630 C.3     1  UNL1        0.0430
      6  C          6.8330    0.0570   -1.2370 C.2     1  UNL1       -0.0440
      7  C          7.5050    0.5690   -2.3530 C.2     1  UNL1        0.0080
      8  C          7.0710   -1.2450   -0.8610 C.2     1  UNL1        0.0540
      9  C          8.3830   -0.2500   -3.0410 C.2     1  UNL1        0.0510
     10  C          7.9600   -2.0680   -1.5590 C.2     1  UNL1        0.1660
     11  C          8.6210   -1.5660   -2.6580 C.2     1  UNL1        0.1650
     12  O          8.3610   -3.3760   -1.3880 O.2     1  UNL1       -0.4540
     13  O          9.4230   -2.5870   -3.1440 O.2     1  UNL1       -0.4540
     14  C          9.3580   -3.7230   -2.3150 C.3     1  UNL1        0.4680
@<TRIPOS>BOND
     1    13    11    1
     2    13    14    1
     3     9    11    2
     4     9     7    1
     5    11    10    1
     6     7     6    2
     7    14    12    1
     8    10    12    1
     9    10     8    2
    10     6     8    1
    11     6     5    1
    12     5     1    1
    13     1     2    1
    14     2     4    2
    15     2     3    1
