@<TRIPOS>MOLECULE
/home/cewinharhar/GITHUB/reincatalyze/data/processed/docking_pred/2023-May-24-1506_sub9_nm5_bs15_s42_ex16_mel10_mts10000_k50_ec02_g099_lra3e-4_lrc3e-3/677496c5c46bc5e4ac1ff58ba47d0b72a83fedc5_ligand_9.pdbqt
 14 15 0 0 0
SMALL
GASTEIGER

@<TRIPOS>ATOM
      1  C          6.8360    0.8640    1.3300 C.3     1  UNL1        0.0800
      2  C          5.3810    1.1250    1.5100 C.2     1  UNL1        0.1300
      3  C          4.6660    2.1500    0.7040 C.3     1  UNL1        0.0870
      4  O          4.7300    0.5000    2.3320 O.2     1  UNL1       -0.3000
      5  C          7.2550    1.0560   -0.1140 C.3     1  UNL1        0.0430
      6  C          7.6060   -0.2230   -0.7570 C.2     1  UNL1       -0.0440
      7  C          7.6310   -0.3620   -2.1490 C.2     1  UNL1        0.0080
      8  C          7.9200   -1.3140    0.0220 C.2     1  UNL1        0.0540
      9  C          7.9680   -1.5870   -2.6960 C.2     1  UNL1        0.0510
     10  C          8.2610   -2.5500   -0.5350 C.2     1  UNL1        0.1660
     11  C          8.2850   -2.6880   -1.9050 C.2     1  UNL1        0.1650
     12  O          8.6070   -3.7660    0.0150 O.2     1  UNL1       -0.4540
     13  O          8.6500   -3.9980   -2.1700 O.2     1  UNL1       -0.4540
     14  C          8.9520   -4.6920   -0.9830 C.3     1  UNL1        0.4680
@<TRIPOS>BOND
     1     9     7    1
     2     9    11    2
     3    13    11    1
     4    13    14    1
     5     7     6    2
     6    11    10    1
     7    14    12    1
     8     6     5    1
     9     6     8    1
    10    10    12    1
    11    10     8    2
    12     5     1    1
    13     3     2    1
    14     1     2    1
    15     2     4    2
