@<TRIPOS>MOLECULE
/home/cewinharhar/GITHUB/reincatalyze/data/processed/docking_pred/2023-May-24-1506_sub9_nm5_bs15_s42_ex16_mel10_mts10000_k50_ec02_g099_lra3e-4_lrc3e-3/67ebe37560d6b2ff0daae954040d2bc7ae74be81_ligand_9.pdbqt
 14 15 0 0 0
SMALL
GASTEIGER

@<TRIPOS>ATOM
      1  C          6.3430    1.2450    0.8680 C.3     1  UNL1        0.0800
      2  C          5.6490    0.4310    1.9040 C.2     1  UNL1        0.1300
      3  C          6.2640   -0.7970    2.4740 C.3     1  UNL1        0.0870
      4  O          4.5470    0.7520    2.3190 O.2     1  UNL1       -0.3000
      5  C          5.8370    0.9140   -0.5220 C.3     1  UNL1        0.0430
      6  C          6.8080    0.1030   -1.2780 C.2     1  UNL1       -0.0440
      7  C          7.5350    0.6390   -2.3470 C.2     1  UNL1        0.0080
      8  C          7.0130   -1.2130   -0.9320 C.2     1  UNL1        0.0540
      9  C          8.4330   -0.1700   -3.0200 C.2     1  UNL1        0.0510
     10  C          7.9220   -2.0260   -1.6150 C.2     1  UNL1        0.1660
     11  C          8.6380   -1.5010   -2.6680 C.2     1  UNL1        0.1650
     12  O          8.3000   -3.3440   -1.4670 O.2     1  UNL1       -0.4540
     13  O          9.4490   -2.5170   -3.1480 O.2     1  UNL1       -0.4540
     14  C          9.3330   -3.6760   -2.3580 C.3     1  UNL1        0.4680
@<TRIPOS>BOND
     1    13    11    1
     2    13    14    1
     3     9    11    2
     4     9     7    1
     5    11    10    1
     6    14    12    1
     7     7     6    2
     8    10    12    1
     9    10     8    2
    10     6     8    1
    11     6     5    1
    12     5     1    1
    13     1     2    1
    14     2     4    2
    15     2     3    1
