@<TRIPOS>MOLECULE
/home/cewinharhar/GITHUB/reincatalyze/data/processed/docking_pred/2023-May-24-1506_sub9_nm5_bs15_s42_ex16_mel10_mts10000_k50_ec02_g099_lra3e-4_lrc3e-3/67ebe37560d6b2ff0daae954040d2bc7ae74be81_ligand_9.pdbqt
 14 15 0 0 0
SMALL
GASTEIGER

@<TRIPOS>ATOM
      1  C          5.5360    1.9310    1.2540 C.3     1  UNL1        0.0800
      2  C          5.1060    0.7200    2.0070 C.2     1  UNL1        0.1300
      3  C          6.0130   -0.4450    2.1970 C.3     1  UNL1        0.0870
      4  O          3.9890    0.6480    2.4940 O.2     1  UNL1       -0.3000
      5  C          5.4040    1.7240   -0.2420 C.3     1  UNL1        0.0430
      6  C          6.5720    1.0230   -0.8020 C.2     1  UNL1       -0.0440
      7  C          7.8790    1.4570   -0.5490 C.2     1  UNL1        0.0080
      8  C          6.3870   -0.0880   -1.5940 C.2     1  UNL1        0.0540
      9  C          8.9370    0.7580   -1.1010 C.2     1  UNL1        0.0510
     10  C          7.4600   -0.7910   -2.1500 C.2     1  UNL1        0.1660
     11  C          8.7450   -0.3640   -1.9010 C.2     1  UNL1        0.1650
     12  O          7.5360   -1.9050   -2.9570 O.2     1  UNL1       -0.4540
     13  O          9.5930   -1.2350   -2.5680 O.2     1  UNL1       -0.4540
     14  C          8.8710   -2.2800   -3.1750 C.3     1  UNL1        0.4680
@<TRIPOS>BOND
     1    14    12    1
     2    14    13    1
     3    12    10    1
     4    13    11    1
     5    10    11    2
     6    10     8    1
     7    11     9    1
     8     8     6    2
     9     9     7    2
    10     6     7    1
    11     6     5    1
    12     5     1    1
    13     1     2    1
    14     2     3    1
    15     2     4    2
