@<TRIPOS>MOLECULE
/home/cewinharhar/GITHUB/reincatalyze/data/processed/docking_pred/2023-May-24-1506_sub9_nm5_bs15_s42_ex16_mel10_mts10000_k50_ec02_g099_lra3e-4_lrc3e-3/69e2ce579100b0ee4b56c8bb4a95d1562fd611af_ligand_9.pdbqt
 14 15 0 0 0
SMALL
GASTEIGER

@<TRIPOS>ATOM
      1  C          5.5610    1.8690    1.2860 C.3     1  UNL1        0.0800
      2  C          5.1000    0.6540    2.0140 C.2     1  UNL1        0.1300
      3  C          5.9780   -0.5340    2.1850 C.3     1  UNL1        0.0870
      4  O          3.9800    0.6000    2.4950 O.2     1  UNL1       -0.3000
      5  C          5.4260    1.6950   -0.2140 C.3     1  UNL1        0.0430
      6  C          6.5880    0.9960   -0.7910 C.2     1  UNL1       -0.0440
      7  C          7.8960    1.4380   -0.5640 C.2     1  UNL1        0.0080
      8  C          6.3940   -0.1220   -1.5700 C.2     1  UNL1        0.0540
      9  C          8.9480    0.7410   -1.1300 C.2     1  UNL1        0.0510
     10  C          7.4600   -0.8230   -2.1400 C.2     1  UNL1        0.1660
     11  C          8.7480   -0.3880   -1.9180 C.2     1  UNL1        0.1650
     12  O          7.5270   -1.9440   -2.9400 O.2     1  UNL1       -0.4540
     13  O          9.5880   -1.2600   -2.5930 O.2     1  UNL1       -0.4540
     14  C          8.8610   -2.3140   -3.1790 C.3     1  UNL1        0.4680
@<TRIPOS>BOND
     1    14    12    1
     2    14    13    1
     3    12    10    1
     4    13    11    1
     5    10    11    2
     6    10     8    1
     7    11     9    1
     8     8     6    2
     9     9     7    2
    10     6     7    1
    11     6     5    1
    12     5     1    1
    13     1     2    1
    14     2     3    1
    15     2     4    2
