@<TRIPOS>MOLECULE
/home/cewinharhar/GITHUB/reincatalyze/data/processed/docking_pred/2023-May-24-1506_sub9_nm5_bs15_s42_ex16_mel10_mts10000_k50_ec02_g099_lra3e-4_lrc3e-3/6b061a7890d75c8b26c884693b3b8f9ee5a9c423_ligand_9.pdbqt
 14 15 0 0 0
SMALL
GASTEIGER

@<TRIPOS>ATOM
      1  C          8.3090    0.1740   -2.7120 C.3     1  UNL1        0.0800
      2  C          8.0550   -1.2920   -2.7840 C.2     1  UNL1        0.1300
      3  C          9.1530   -2.2630   -3.0380 C.3     1  UNL1        0.0870
      4  O          6.9310   -1.7410   -2.6350 O.2     1  UNL1       -0.3000
      5  C          8.8450    0.5740   -1.3510 C.3     1  UNL1        0.0430
      6  C          7.8250    0.4290   -0.2980 C.2     1  UNL1       -0.0440
      7  C          7.9490   -0.5260    0.7170 C.2     1  UNL1        0.0080
      8  C          6.7200    1.2500   -0.3010 C.2     1  UNL1        0.0540
      9  C          6.9600   -0.6160    1.6790 C.2     1  UNL1        0.0510
     10  C          5.7230    1.1560    0.6750 C.2     1  UNL1        0.1660
     11  C          5.8440    0.2150    1.6730 C.2     1  UNL1        0.1650
     12  O          4.5480    1.8450    0.8860 O.2     1  UNL1       -0.4540
     13  O          4.7290    0.3480    2.4860 O.2     1  UNL1       -0.4540
     14  C          3.9270    1.4290    2.0760 C.3     1  UNL1        0.4680
@<TRIPOS>BOND
     1     3     2    1
     2     2     1    1
     3     2     4    2
     4     1     5    1
     5     5     6    1
     6     8     6    2
     7     8    10    1
     8     6     7    1
     9    10    12    1
    10    10    11    2
    11     7     9    2
    12    12    14    1
    13    11     9    1
    14    11    13    1
    15    14    13    1
