MODEL 1
REMARK VINA RESULT:      -7.7      0.000      0.000
REMARK SMILES CC(=O)CCc1ccc2c(c1)OCO2
REMARK SMILES IDX 4 1 2 2 1 3 3 4 5 5 6 6 7 7 11 8 8 9 10 10 9 11 12 12 14 13
REMARK SMILES IDX 13 14
REMARK H PARENT
REMARK Flexibility Score: inf
ROOT
ATOM      1  C   UNL     1       5.532   1.917   1.269  1.00  0.00     0.080 C 
ENDROOT
BRANCH   1   2
ATOM      2  C   UNL     1       5.080   0.703   2.003  1.00  0.00     0.130 C 
ATOM      3  C   UNL     1       5.962  -0.484   2.166  1.00  0.00     0.087 C 
ATOM      4  O   UNL     1       3.964   0.646   2.494  1.00  0.00    -0.300 OA
ENDBRANCH   1   2
BRANCH   1   5
ATOM      5  C   UNL     1       5.405   1.734  -0.230  1.00  0.00     0.043 C 
BRANCH   5   6
ATOM      6  C   UNL     1       6.572   1.032  -0.795  1.00  0.00    -0.044 A 
ATOM      7  C   UNL     1       7.879   1.468  -0.550  1.00  0.00     0.008 A 
ATOM      8  C   UNL     1       6.383  -0.081  -1.582  1.00  0.00     0.054 A 
ATOM      9  C   UNL     1       8.935   0.769  -1.107  1.00  0.00     0.051 A 
ATOM     10  C   UNL     1       7.454  -0.785  -2.142  1.00  0.00     0.166 A 
ATOM     11  C   UNL     1       8.740  -0.356  -1.902  1.00  0.00     0.165 A 
ATOM     12  O   UNL     1       7.526  -1.902  -2.946  1.00  0.00    -0.454 OA
ATOM     13  O   UNL     1       9.585  -1.228  -2.571  1.00  0.00    -0.454 OA
ATOM     14  C   UNL     1       8.861  -2.276  -3.170  1.00  0.00     0.468 C 
ENDBRANCH   5   6
ENDBRANCH   1   5
TORSDOF 3
ENDMDL
MODEL 2
REMARK VINA RESULT:      -7.4      1.860      2.310
REMARK SMILES CC(=O)CCc1ccc2c(c1)OCO2
REMARK SMILES IDX 4 1 2 2 1 3 3 4 5 5 6 6 7 7 11 8 8 9 10 10 9 11 12 12 14 13
REMARK SMILES IDX 13 14
REMARK H PARENT
REMARK Flexibility Score: inf
ROOT
ATOM      1  C   UNL     1       5.700   1.300  -0.309  1.00  0.00     0.080 C 
ENDROOT
BRANCH   1   2
ATOM      2  C   UNL     1       5.126   1.228   1.063  1.00  0.00     0.130 C 
ATOM      3  C   UNL     1       5.370   0.060   1.952  1.00  0.00     0.087 C 
ATOM      4  O   UNL     1       4.432   2.132   1.501  1.00  0.00    -0.300 OA
ENDBRANCH   1   2
BRANCH   1   5
ATOM      5  C   UNL     1       7.206   1.130  -0.285  1.00  0.00     0.043 C 
BRANCH   5   6
ATOM      6  C   UNL     1       7.623  -0.133  -0.920  1.00  0.00    -0.044 A 
ATOM      7  C   UNL     1       7.748  -0.249  -2.310  1.00  0.00     0.008 A 
ATOM      8  C   UNL     1       7.902  -1.230  -0.138  1.00  0.00     0.054 A 
ATOM      9  C   UNL     1       8.144  -1.459  -2.849  1.00  0.00     0.051 A 
ATOM     10  C   UNL     1       8.303  -2.452  -0.688  1.00  0.00     0.166 A 
ATOM     11  C   UNL     1       8.424  -2.567  -2.055  1.00  0.00     0.165 A 
ATOM     12  O   UNL     1       8.631  -3.670  -0.133  1.00  0.00    -0.454 OA
ATOM     13  O   UNL     1       8.831  -3.867  -2.313  1.00  0.00    -0.454 OA
ATOM     14  C   UNL     1       9.061  -4.574  -1.118  1.00  0.00     0.468 C 
ENDBRANCH   5   6
ENDBRANCH   1   5
TORSDOF 3
ENDMDL
MODEL 3
REMARK VINA RESULT:      -7.2      2.093      2.625
REMARK SMILES CC(=O)CCc1ccc2c(c1)OCO2
REMARK SMILES IDX 4 1 2 2 1 3 3 4 5 5 6 6 7 7 11 8 8 9 10 10 9 11 12 12 14 13
REMARK SMILES IDX 13 14
REMARK H PARENT
REMARK Flexibility Score: inf
ROOT
ATOM      1  C   UNL     1       5.620   0.003   1.970  1.00  0.00     0.080 C 
ENDROOT
BRANCH   1   2
ATOM      2  C   UNL     1       4.695   1.126   1.652  1.00  0.00     0.130 C 
ATOM      3  C   UNL     1       4.950   2.050   0.515  1.00  0.00     0.087 C 
ATOM      4  O   UNL     1       3.693   1.322   2.322  1.00  0.00    -0.300 OA
ENDBRANCH   1   2
BRANCH   1   5
ATOM      5  C   UNL     1       7.016   0.275   1.447  1.00  0.00     0.043 C 
BRANCH   5   6
ATOM      6  C   UNL     1       7.411  -0.698   0.413  1.00  0.00    -0.044 A 
ATOM      7  C   UNL     1       7.294  -0.406  -0.951  1.00  0.00     0.008 A 
ATOM      8  C   UNL     1       7.912  -1.925   0.786  1.00  0.00     0.054 A 
ATOM      9  C   UNL     1       7.681  -1.358  -1.877  1.00  0.00     0.051 A 
ATOM     10  C   UNL     1       8.303  -2.883  -0.154  1.00  0.00     0.166 A 
ATOM     11  C   UNL     1       8.186  -2.598  -1.496  1.00  0.00     0.165 A 
ATOM     12  O   UNL     1       8.821  -4.156  -0.039  1.00  0.00    -0.454 OA
ATOM     13  O   UNL     1       8.641  -3.712  -2.184  1.00  0.00    -0.454 OA
ATOM     14  C   UNL     1       9.137  -4.688  -1.299  1.00  0.00     0.468 C 
ENDBRANCH   5   6
ENDBRANCH   1   5
TORSDOF 3
ENDMDL
MODEL 4
REMARK VINA RESULT:      -7.1      1.236      1.426
REMARK SMILES CC(=O)CCc1ccc2c(c1)OCO2
REMARK SMILES IDX 4 1 2 2 1 3 3 4 5 5 6 6 7 7 11 8 8 9 10 10 9 11 12 12 14 13
REMARK SMILES IDX 13 14
REMARK H PARENT
REMARK Flexibility Score: inf
ROOT
ATOM      1  C   UNL     1       6.323   1.291   0.840  1.00  0.00     0.080 C 
ENDROOT
BRANCH   1   2
ATOM      2  C   UNL     1       5.672   0.444   1.878  1.00  0.00     0.130 C 
ATOM      3  C   UNL     1       6.351  -0.748   2.452  1.00  0.00     0.087 C 
ATOM      4  O   UNL     1       4.553   0.707   2.290  1.00  0.00    -0.300 OA
ENDBRANCH   1   2
BRANCH   1   5
ATOM      5  C   UNL     1       5.820   0.945  -0.548  1.00  0.00     0.043 C 
BRANCH   5   6
ATOM      6  C   UNL     1       6.795   0.130  -1.295  1.00  0.00    -0.044 A 
ATOM      7  C   UNL     1       7.534   0.663  -2.357  1.00  0.00     0.008 A 
ATOM      8  C   UNL     1       6.992  -1.187  -0.947  1.00  0.00     0.054 A 
ATOM      9  C   UNL     1       8.435  -0.149  -3.021  1.00  0.00     0.051 A 
ATOM     10  C   UNL     1       7.905  -2.004  -1.621  1.00  0.00     0.166 A 
ATOM     11  C   UNL     1       8.632  -1.481  -2.667  1.00  0.00     0.165 A 
ATOM     12  O   UNL     1       8.276  -3.323  -1.469  1.00  0.00    -0.454 OA
ATOM     13  O   UNL     1       9.444  -2.500  -3.140  1.00  0.00    -0.454 OA
ATOM     14  C   UNL     1       9.316  -3.659  -2.351  1.00  0.00     0.468 C 
ENDBRANCH   5   6
ENDBRANCH   1   5
TORSDOF 3
ENDMDL
MODEL 5
REMARK VINA RESULT:      -6.8      1.188      5.168
REMARK SMILES CC(=O)CCc1ccc2c(c1)OCO2
REMARK SMILES IDX 4 1 2 2 1 3 3 4 5 5 6 6 7 7 11 8 8 9 10 10 9 11 12 12 14 13
REMARK SMILES IDX 13 14
REMARK H PARENT
REMARK Flexibility Score: inf
ROOT
ATOM      1  C   UNL     1       8.309   0.174  -2.712  1.00  0.00     0.080 C 
ENDROOT
BRANCH   1   2
ATOM      2  C   UNL     1       8.055  -1.292  -2.784  1.00  0.00     0.130 C 
ATOM      3  C   UNL     1       9.153  -2.263  -3.038  1.00  0.00     0.087 C 
ATOM      4  O   UNL     1       6.931  -1.741  -2.635  1.00  0.00    -0.300 OA
ENDBRANCH   1   2
BRANCH   1   5
ATOM      5  C   UNL     1       8.845   0.574  -1.351  1.00  0.00     0.043 C 
BRANCH   5   6
ATOM      6  C   UNL     1       7.825   0.429  -0.298  1.00  0.00    -0.044 A 
ATOM      7  C   UNL     1       7.949  -0.526   0.717  1.00  0.00     0.008 A 
ATOM      8  C   UNL     1       6.720   1.250  -0.301  1.00  0.00     0.054 A 
ATOM      9  C   UNL     1       6.960  -0.616   1.679  1.00  0.00     0.051 A 
ATOM     10  C   UNL     1       5.723   1.156   0.675  1.00  0.00     0.166 A 
ATOM     11  C   UNL     1       5.844   0.215   1.673  1.00  0.00     0.165 A 
ATOM     12  O   UNL     1       4.548   1.845   0.886  1.00  0.00    -0.454 OA
ATOM     13  O   UNL     1       4.729   0.348   2.486  1.00  0.00    -0.454 OA
ATOM     14  C   UNL     1       3.927   1.429   2.076  1.00  0.00     0.468 C 
ENDBRANCH   5   6
ENDBRANCH   1   5
TORSDOF 3
ENDMDL
