@<TRIPOS>MOLECULE
/home/cewinharhar/GITHUB/reincatalyze/data/processed/docking_pred/2023-May-24-1506_sub9_nm5_bs15_s42_ex16_mel10_mts10000_k50_ec02_g099_lra3e-4_lrc3e-3/6dc168e099aae66a1c19408847f7f9495b2b5216_ligand_9.pdbqt
 14 15 0 0 0
SMALL
GASTEIGER

@<TRIPOS>ATOM
      1  C          6.8600    1.0770    1.3230 C.3     1  UNL1        0.0800
      2  C          5.3870    1.2960    1.3280 C.2     1  UNL1        0.1300
      3  C          4.7210    2.1500    0.3080 C.3     1  UNL1        0.0870
      4  O          4.6790    0.7760    2.1750 O.2     1  UNL1       -0.3000
      5  C          7.4360    1.2340   -0.0700 C.3     1  UNL1        0.0430
      6  C          7.7260   -0.0710   -0.6910 C.2     1  UNL1       -0.0440
      7  C          7.7150   -0.2400   -2.0810 C.2     1  UNL1        0.0080
      8  C          8.0190   -1.1550    0.1040 C.2     1  UNL1        0.0540
      9  C          7.9960   -1.4880   -2.6070 C.2     1  UNL1        0.0510
     10  C          8.3030   -2.4140   -0.4320 C.2     1  UNL1        0.1660
     11  C          8.2910   -2.5820   -1.7990 C.2     1  UNL1        0.1650
     12  O          8.6180   -3.6300    0.1380 O.2     1  UNL1       -0.4540
     13  O          8.6030   -3.9110   -2.0430 O.2     1  UNL1       -0.4540
     14  C          8.9070   -4.5890   -0.8470 C.3     1  UNL1        0.4680
@<TRIPOS>BOND
     1     9     7    1
     2     9    11    2
     3     7     6    2
     4    13    11    1
     5    13    14    1
     6    11    10    1
     7    14    12    1
     8     6     5    1
     9     6     8    1
    10    10     8    2
    11    10    12    1
    12     5     1    1
    13     3     2    1
    14     1     2    1
    15     2     4    2
