@<TRIPOS>MOLECULE
/home/cewinharhar/GITHUB/reincatalyze/data/processed/docking_pred/2023-May-24-1506_sub9_nm5_bs15_s42_ex16_mel10_mts10000_k50_ec02_g099_lra3e-4_lrc3e-3/6dc168e099aae66a1c19408847f7f9495b2b5216_ligand_9.pdbqt
 14 15 0 0 0
SMALL
GASTEIGER

@<TRIPOS>ATOM
      1  C          5.7680    1.3690   -0.2660 C.3     1  UNL1        0.0800
      2  C          5.1170    1.2710    1.0700 C.2     1  UNL1        0.1300
      3  C          5.3450    0.1060    1.9660 C.3     1  UNL1        0.0870
      4  O          4.3710    2.1500    1.4690 O.2     1  UNL1       -0.3000
      5  C          7.2560    1.0900   -0.1760 C.3     1  UNL1        0.0430
      6  C          7.6100   -0.1950   -0.8040 C.2     1  UNL1       -0.0440
      7  C          7.6260   -0.3510   -2.1950 C.2     1  UNL1        0.0080
      8  C          7.9370   -1.2740   -0.0140 C.2     1  UNL1        0.0540
      9  C          7.9680   -1.5800   -2.7290 C.2     1  UNL1        0.0510
     10  C          8.2820   -2.5150   -0.5590 C.2     1  UNL1        0.1660
     11  C          8.2970   -2.6690   -1.9270 C.2     1  UNL1        0.1650
     12  O          8.6390   -3.7210    0.0040 O.2     1  UNL1       -0.4540
     13  O          8.6680   -3.9800   -2.1780 O.2     1  UNL1       -0.4540
     14  C          8.9830   -4.6570   -0.9850 C.3     1  UNL1        0.4680
@<TRIPOS>BOND
     1     9     7    1
     2     9    11    2
     3     7     6    2
     4    13    11    1
     5    13    14    1
     6    11    10    1
     7    14    12    1
     8     6     5    1
     9     6     8    1
    10    10     8    2
    11    10    12    1
    12     1     5    1
    13     1     2    1
    14     2     4    2
    15     2     3    1
