@<TRIPOS>MOLECULE
/home/cewinharhar/GITHUB/reincatalyze/data/processed/docking_pred/2023-May-24-1506_sub9_nm5_bs15_s42_ex16_mel10_mts10000_k50_ec02_g099_lra3e-4_lrc3e-3/6e01533e6265e20f53eb8495178921d7241890ed_ligand_9.pdbqt
 14 15 0 0 0
SMALL
GASTEIGER

@<TRIPOS>ATOM
      1  C          5.5530    1.8950    1.2980 C.3     1  UNL1        0.0800
      2  C          5.1060    0.6710    2.0200 C.2     1  UNL1        0.1300
      3  C          5.9980   -0.5080    2.1850 C.3     1  UNL1        0.0870
      4  O          3.9860    0.6000    2.5000 O.2     1  UNL1       -0.3000
      5  C          5.4200    1.7280   -0.2030 C.3     1  UNL1        0.0430
      6  C          6.5810    1.0270   -0.7790 C.2     1  UNL1       -0.0440
      7  C          7.8910    1.4570   -0.5390 C.2     1  UNL1        0.0080
      8  C          6.3840   -0.0810   -1.5720 C.2     1  UNL1        0.0540
      9  C          8.9420    0.7580   -1.1060 C.2     1  UNL1        0.0510
     10  C          7.4500   -0.7850   -2.1420 C.2     1  UNL1        0.1660
     11  C          8.7390   -0.3610   -1.9070 C.2     1  UNL1        0.1650
     12  O          7.5140   -1.8970   -2.9540 O.2     1  UNL1       -0.4540
     13  O          9.5770   -1.2320   -2.5860 O.2     1  UNL1       -0.4540
     14  C          8.8470   -2.2740   -3.1880 C.3     1  UNL1        0.4680
@<TRIPOS>BOND
     1    14    12    1
     2    14    13    1
     3    12    10    1
     4    13    11    1
     5    10    11    2
     6    10     8    1
     7    11     9    1
     8     8     6    2
     9     9     7    2
    10     6     7    1
    11     6     5    1
    12     5     1    1
    13     1     2    1
    14     2     3    1
    15     2     4    2
