@<TRIPOS>MOLECULE
/home/cewinharhar/GITHUB/reincatalyze/data/processed/docking_pred/2023-May-24-1506_sub9_nm5_bs15_s42_ex16_mel10_mts10000_k50_ec02_g099_lra3e-4_lrc3e-3/6e01533e6265e20f53eb8495178921d7241890ed_ligand_9.pdbqt
 14 15 0 0 0
SMALL
GASTEIGER

@<TRIPOS>ATOM
      1  C          5.4390   -0.0380    2.0040 C.3     1  UNL1        0.0800
      2  C          4.5920    1.1580    1.7370 C.2     1  UNL1        0.1300
      3  C          4.9240    2.1240    0.6560 C.3     1  UNL1        0.0870
      4  O          3.5950    1.3810    2.4040 O.2     1  UNL1       -0.3000
      5  C          6.8760    0.2000    1.5840 C.3     1  UNL1        0.0430
      6  C          7.2990   -0.7360    0.5270 C.2     1  UNL1       -0.0440
      7  C          7.1610   -0.4200   -0.8300 C.2     1  UNL1        0.0080
      8  C          7.8460   -1.9510    0.8710 C.2     1  UNL1        0.0540
      9  C          7.5760   -1.3380   -1.7770 C.2     1  UNL1        0.0510
     10  C          8.2650   -2.8750   -0.0910 C.2     1  UNL1        0.1660
     11  C          8.1280   -2.5660   -1.4260 C.2     1  UNL1        0.1650
     12  O          8.8300   -4.1300   -0.0060 O.2     1  UNL1       -0.4540
     13  O          8.6180   -3.6480   -2.1400 O.2     1  UNL1       -0.4540
     14  C          9.1560   -4.6230   -1.2800 C.3     1  UNL1        0.4680
@<TRIPOS>BOND
     1    13    11    1
     2    13    14    1
     3     9    11    2
     4     9     7    1
     5    11    10    1
     6    14    12    1
     7     7     6    2
     8    10    12    1
     9    10     8    2
    10     6     8    1
    11     6     5    1
    12     3     2    1
    13     5     1    1
    14     2     1    1
    15     2     4    2
