@<TRIPOS>MOLECULE
/home/cewinharhar/GITHUB/reincatalyze/data/processed/docking_pred/2023-May-24-1506_sub9_nm5_bs15_s42_ex16_mel10_mts10000_k50_ec02_g099_lra3e-4_lrc3e-3/6e01533e6265e20f53eb8495178921d7241890ed_ligand_9.pdbqt
 14 15 0 0 0
SMALL
GASTEIGER

@<TRIPOS>ATOM
      1  C          6.3660    1.2350    0.9210 C.3     1  UNL1        0.0800
      2  C          5.6560    0.4070    1.9360 C.2     1  UNL1        0.1300
      3  C          6.2800   -0.8060    2.5290 C.3     1  UNL1        0.0870
      4  O          4.5340    0.7030    2.3120 O.2     1  UNL1       -0.3000
      5  C          5.8580    0.9450   -0.4780 C.3     1  UNL1        0.0430
      6  C          6.8090    0.1200   -1.2440 C.2     1  UNL1       -0.0440
      7  C          7.4980    0.6310   -2.3490 C.2     1  UNL1        0.0080
      8  C          7.0340   -1.1860   -0.8700 C.2     1  UNL1        0.0540
      9  C          8.3790   -0.1900   -3.0290 C.2     1  UNL1        0.0510
     10  C          7.9260   -2.0120   -1.5610 C.2     1  UNL1        0.1660
     11  C          8.6040   -1.5100   -2.6500 C.2     1  UNL1        0.1650
     12  O          8.3160   -3.3230   -1.3910 O.2     1  UNL1       -0.4540
     13  O          9.4050   -2.5340   -3.1300 O.2     1  UNL1       -0.4540
     14  C          9.3220   -3.6730   -2.3060 C.3     1  UNL1        0.4680
@<TRIPOS>BOND
     1    13    11    1
     2    13    14    1
     3     9    11    2
     4     9     7    1
     5    11    10    1
     6     7     6    2
     7    14    12    1
     8    10    12    1
     9    10     8    2
    10     6     8    1
    11     6     5    1
    12     5     1    1
    13     1     2    1
    14     2     4    2
    15     2     3    1
