MODEL 1
REMARK VINA RESULT:      -7.6      0.000      0.000
REMARK SMILES CC(=O)CCc1ccc2c(c1)OCO2
REMARK SMILES IDX 4 1 2 2 1 3 3 4 5 5 6 6 7 7 11 8 8 9 10 10 9 11 12 12 14 13
REMARK SMILES IDX 13 14
REMARK H PARENT
REMARK Flexibility Score: inf
ROOT
ATOM      1  C   UNL     1       5.553   1.895   1.298  1.00  0.00     0.080 C 
ENDROOT
BRANCH   1   2
ATOM      2  C   UNL     1       5.106   0.671   2.020  1.00  0.00     0.130 C 
ATOM      3  C   UNL     1       5.998  -0.508   2.185  1.00  0.00     0.087 C 
ATOM      4  O   UNL     1       3.986   0.600   2.500  1.00  0.00    -0.300 OA
ENDBRANCH   1   2
BRANCH   1   5
ATOM      5  C   UNL     1       5.420   1.728  -0.203  1.00  0.00     0.043 C 
BRANCH   5   6
ATOM      6  C   UNL     1       6.581   1.027  -0.779  1.00  0.00    -0.044 A 
ATOM      7  C   UNL     1       7.891   1.457  -0.539  1.00  0.00     0.008 A 
ATOM      8  C   UNL     1       6.384  -0.081  -1.572  1.00  0.00     0.054 A 
ATOM      9  C   UNL     1       8.942   0.758  -1.106  1.00  0.00     0.051 A 
ATOM     10  C   UNL     1       7.450  -0.785  -2.142  1.00  0.00     0.166 A 
ATOM     11  C   UNL     1       8.739  -0.361  -1.907  1.00  0.00     0.165 A 
ATOM     12  O   UNL     1       7.514  -1.897  -2.954  1.00  0.00    -0.454 OA
ATOM     13  O   UNL     1       9.577  -1.232  -2.586  1.00  0.00    -0.454 OA
ATOM     14  C   UNL     1       8.847  -2.274  -3.188  1.00  0.00     0.468 C 
ENDBRANCH   5   6
ENDBRANCH   1   5
TORSDOF 3
ENDMDL
MODEL 2
REMARK VINA RESULT:      -7.4      1.938      2.420
REMARK SMILES CC(=O)CCc1ccc2c(c1)OCO2
REMARK SMILES IDX 4 1 2 2 1 3 3 4 5 5 6 6 7 7 11 8 8 9 10 10 9 11 12 12 14 13
REMARK SMILES IDX 13 14
REMARK H PARENT
REMARK Flexibility Score: inf
ROOT
ATOM      1  C   UNL     1       5.773   1.304  -0.278  1.00  0.00     0.080 C 
ENDROOT
BRANCH   1   2
ATOM      2  C   UNL     1       5.174   1.241   1.084  1.00  0.00     0.130 C 
ATOM      3  C   UNL     1       5.398   0.078   1.983  1.00  0.00     0.087 C 
ATOM      4  O   UNL     1       4.475   2.150   1.504  1.00  0.00    -0.300 OA
ENDBRANCH   1   2
BRANCH   1   5
ATOM      5  C   UNL     1       7.266   1.045  -0.235  1.00  0.00     0.043 C 
BRANCH   5   6
ATOM      6  C   UNL     1       7.616  -0.244  -0.858  1.00  0.00    -0.044 A 
ATOM      7  C   UNL     1       7.643  -0.402  -2.248  1.00  0.00     0.008 A 
ATOM      8  C   UNL     1       7.928  -1.323  -0.063  1.00  0.00     0.054 A 
ATOM      9  C   UNL     1       7.979  -1.636  -2.776  1.00  0.00     0.051 A 
ATOM     10  C   UNL     1       8.268  -2.568  -0.602  1.00  0.00     0.166 A 
ATOM     11  C   UNL     1       8.293  -2.725  -1.969  1.00  0.00     0.165 A 
ATOM     12  O   UNL     1       8.611  -3.776  -0.033  1.00  0.00    -0.454 OA
ATOM     13  O   UNL     1       8.657  -4.040  -2.215  1.00  0.00    -0.454 OA
ATOM     14  C   UNL     1       8.956  -4.716  -1.017  1.00  0.00     0.468 C 
ENDBRANCH   5   6
ENDBRANCH   1   5
TORSDOF 3
ENDMDL
MODEL 3
REMARK VINA RESULT:      -7.2      2.077      2.643
REMARK SMILES CC(=O)CCc1ccc2c(c1)OCO2
REMARK SMILES IDX 4 1 2 2 1 3 3 4 5 5 6 6 7 7 11 8 8 9 10 10 9 11 12 12 14 13
REMARK SMILES IDX 13 14
REMARK H PARENT
REMARK Flexibility Score: inf
ROOT
ATOM      1  C   UNL     1       5.439  -0.038   2.004  1.00  0.00     0.080 C 
ENDROOT
BRANCH   1   2
ATOM      2  C   UNL     1       4.592   1.158   1.737  1.00  0.00     0.130 C 
ATOM      3  C   UNL     1       4.924   2.124   0.656  1.00  0.00     0.087 C 
ATOM      4  O   UNL     1       3.595   1.381   2.404  1.00  0.00    -0.300 OA
ENDBRANCH   1   2
BRANCH   1   5
ATOM      5  C   UNL     1       6.876   0.200   1.584  1.00  0.00     0.043 C 
BRANCH   5   6
ATOM      6  C   UNL     1       7.299  -0.736   0.527  1.00  0.00    -0.044 A 
ATOM      7  C   UNL     1       7.161  -0.420  -0.830  1.00  0.00     0.008 A 
ATOM      8  C   UNL     1       7.846  -1.951   0.871  1.00  0.00     0.054 A 
ATOM      9  C   UNL     1       7.576  -1.338  -1.777  1.00  0.00     0.051 A 
ATOM     10  C   UNL     1       8.265  -2.875  -0.091  1.00  0.00     0.166 A 
ATOM     11  C   UNL     1       8.128  -2.566  -1.426  1.00  0.00     0.165 A 
ATOM     12  O   UNL     1       8.830  -4.130  -0.006  1.00  0.00    -0.454 OA
ATOM     13  O   UNL     1       8.618  -3.648  -2.140  1.00  0.00    -0.454 OA
ATOM     14  C   UNL     1       9.156  -4.623  -1.280  1.00  0.00     0.468 C 
ENDBRANCH   5   6
ENDBRANCH   1   5
TORSDOF 3
ENDMDL
MODEL 4
REMARK VINA RESULT:      -7.1      1.246      1.450
REMARK SMILES CC(=O)CCc1ccc2c(c1)OCO2
REMARK SMILES IDX 4 1 2 2 1 3 3 4 5 5 6 6 7 7 11 8 8 9 10 10 9 11 12 12 14 13
REMARK SMILES IDX 13 14
REMARK H PARENT
REMARK Flexibility Score: inf
ROOT
ATOM      1  C   UNL     1       6.366   1.235   0.921  1.00  0.00     0.080 C 
ENDROOT
BRANCH   1   2
ATOM      2  C   UNL     1       5.656   0.407   1.936  1.00  0.00     0.130 C 
ATOM      3  C   UNL     1       6.280  -0.806   2.529  1.00  0.00     0.087 C 
ATOM      4  O   UNL     1       4.534   0.703   2.312  1.00  0.00    -0.300 OA
ENDBRANCH   1   2
BRANCH   1   5
ATOM      5  C   UNL     1       5.858   0.945  -0.478  1.00  0.00     0.043 C 
BRANCH   5   6
ATOM      6  C   UNL     1       6.809   0.120  -1.244  1.00  0.00    -0.044 A 
ATOM      7  C   UNL     1       7.498   0.631  -2.349  1.00  0.00     0.008 A 
ATOM      8  C   UNL     1       7.034  -1.186  -0.870  1.00  0.00     0.054 A 
ATOM      9  C   UNL     1       8.379  -0.190  -3.029  1.00  0.00     0.051 A 
ATOM     10  C   UNL     1       7.926  -2.012  -1.561  1.00  0.00     0.166 A 
ATOM     11  C   UNL     1       8.604  -1.510  -2.650  1.00  0.00     0.165 A 
ATOM     12  O   UNL     1       8.316  -3.323  -1.391  1.00  0.00    -0.454 OA
ATOM     13  O   UNL     1       9.405  -2.534  -3.130  1.00  0.00    -0.454 OA
ATOM     14  C   UNL     1       9.322  -3.673  -2.306  1.00  0.00     0.468 C 
ENDBRANCH   5   6
ENDBRANCH   1   5
TORSDOF 3
ENDMDL
MODEL 5
REMARK VINA RESULT:      -6.8      1.273      1.762
REMARK SMILES CC(=O)CCc1ccc2c(c1)OCO2
REMARK SMILES IDX 4 1 2 2 1 3 3 4 5 5 6 6 7 7 11 8 8 9 10 10 9 11 12 12 14 13
REMARK SMILES IDX 13 14
REMARK H PARENT
REMARK Flexibility Score: inf
ROOT
ATOM      1  C   UNL     1       5.317  -0.080   1.990  1.00  0.00     0.080 C 
ENDROOT
BRANCH   1   2
ATOM      2  C   UNL     1       4.455   1.121   1.808  1.00  0.00     0.130 C 
ATOM      3  C   UNL     1       4.756   2.150   0.777  1.00  0.00     0.087 C 
ATOM      4  O   UNL     1       3.469   1.296   2.507  1.00  0.00    -0.300 OA
ENDBRANCH   1   2
BRANCH   1   5
ATOM      5  C   UNL     1       6.787   0.284   1.934  1.00  0.00     0.043 C 
BRANCH   5   6
ATOM      6  C   UNL     1       7.387  -0.062   0.633  1.00  0.00    -0.044 A 
ATOM      7  C   UNL     1       7.868   0.923  -0.237  1.00  0.00     0.008 A 
ATOM      8  C   UNL     1       7.485  -1.382   0.256  1.00  0.00     0.054 A 
ATOM      9  C   UNL     1       8.422   0.539  -1.445  1.00  0.00     0.051 A 
ATOM     10  C   UNL     1       8.046  -1.765  -0.965  1.00  0.00     0.166 A 
ATOM     11  C   UNL     1       8.518  -0.797  -1.823  1.00  0.00     0.165 A 
ATOM     12  O   UNL     1       8.253  -2.991  -1.561  1.00  0.00    -0.454 OA
ATOM     13  O   UNL     1       9.012  -1.455  -2.939  1.00  0.00    -0.454 OA
ATOM     14  C   UNL     1       8.946  -2.852  -2.775  1.00  0.00     0.468 C 
ENDBRANCH   5   6
ENDBRANCH   1   5
TORSDOF 3
ENDMDL
