@<TRIPOS>MOLECULE
/home/cewinharhar/GITHUB/reincatalyze/data/processed/docking_pred/2023-May-24-1506_sub9_nm5_bs15_s42_ex16_mel10_mts10000_k50_ec02_g099_lra3e-4_lrc3e-3/7076afde4386affa59e586c5ec9b2181426a643f_ligand_9.pdbqt
 14 15 0 0 0
SMALL
GASTEIGER

@<TRIPOS>ATOM
      1  C          5.5530    1.9160    1.2630 C.3     1  UNL1        0.0800
      2  C          5.1150    0.7030    2.0090 C.2     1  UNL1        0.1300
      3  C          6.0140   -0.4670    2.1940 C.3     1  UNL1        0.0870
      4  O          3.9960    0.6350    2.4920 O.2     1  UNL1       -0.3000
      5  C          5.4190    1.7200   -0.2340 C.3     1  UNL1        0.0430
      6  C          6.5840    1.0150   -0.7990 C.2     1  UNL1       -0.0440
      7  C          7.8930    1.4440   -0.5490 C.2     1  UNL1        0.0080
      8  C          6.3920   -0.0950   -1.5900 C.2     1  UNL1        0.0540
      9  C          8.9470    0.7430   -1.1050 C.2     1  UNL1        0.0510
     10  C          7.4610   -0.8010   -2.1500 C.2     1  UNL1        0.1660
     11  C          8.7490   -0.3780   -1.9060 C.2     1  UNL1        0.1650
     12  O          7.5310   -1.9150   -2.9580 O.2     1  UNL1       -0.4540
     13  O          9.5910   -1.2520   -2.5750 O.2     1  UNL1       -0.4540
     14  C          8.8650   -2.2950   -3.1810 C.3     1  UNL1        0.4680
@<TRIPOS>BOND
     1    14    12    1
     2    14    13    1
     3    12    10    1
     4    13    11    1
     5    10    11    2
     6    10     8    1
     7    11     9    1
     8     8     6    2
     9     9     7    2
    10     6     7    1
    11     6     5    1
    12     5     1    1
    13     1     2    1
    14     2     3    1
    15     2     4    2
