@<TRIPOS>MOLECULE
/home/cewinharhar/GITHUB/reincatalyze/data/processed/docking_pred/2023-May-24-1506_sub9_nm5_bs15_s42_ex16_mel10_mts10000_k50_ec02_g099_lra3e-4_lrc3e-3/7076afde4386affa59e586c5ec9b2181426a643f_ligand_9.pdbqt
 14 15 0 0 0
SMALL
GASTEIGER

@<TRIPOS>ATOM
      1  C          6.3940    1.1580    0.9100 C.3     1  UNL1        0.0800
      2  C          5.6740    0.3490    1.9320 C.2     1  UNL1        0.1300
      3  C          6.2670   -0.8860    2.5100 C.3     1  UNL1        0.0870
      4  O          4.5670    0.6800    2.3270 O.2     1  UNL1       -0.3000
      5  C          5.8790    0.8670   -0.4860 C.3     1  UNL1        0.0430
      6  C          6.8290    0.0470   -1.2590 C.2     1  UNL1       -0.0440
      7  C          7.5060    0.5610   -2.3710 C.2     1  UNL1        0.0080
      8  C          7.0650   -1.2570   -0.8860 C.2     1  UNL1        0.0540
      9  C          8.3870   -0.2550   -3.0570 C.2     1  UNL1        0.0510
     10  C          7.9570   -2.0780   -1.5830 C.2     1  UNL1        0.1660
     11  C          8.6220   -1.5730   -2.6770 C.2     1  UNL1        0.1650
     12  O          8.3570   -3.3870   -1.4140 O.2     1  UNL1       -0.4540
     13  O          9.4270   -2.5930   -3.1630 O.2     1  UNL1       -0.4540
     14  C          9.3570   -3.7310   -2.3370 C.3     1  UNL1        0.4680
@<TRIPOS>BOND
     1    13    11    1
     2    13    14    1
     3     9    11    2
     4     9     7    1
     5    11    10    1
     6     7     6    2
     7    14    12    1
     8    10    12    1
     9    10     8    2
    10     6     8    1
    11     6     5    1
    12     5     1    1
    13     1     2    1
    14     2     4    2
    15     2     3    1
