MODEL 1
REMARK VINA RESULT:      -7.6      0.000      0.000
REMARK SMILES CC(=O)CCc1ccc2c(c1)OCO2
REMARK SMILES IDX 4 1 2 2 1 3 3 4 5 5 6 6 7 7 11 8 8 9 10 10 9 11 12 12 14 13
REMARK SMILES IDX 13 14
REMARK H PARENT
REMARK Flexibility Score: inf
ROOT
ATOM      1  C   UNL     1       5.553   1.916   1.263  1.00  0.00     0.080 C 
ENDROOT
BRANCH   1   2
ATOM      2  C   UNL     1       5.115   0.703   2.009  1.00  0.00     0.130 C 
ATOM      3  C   UNL     1       6.014  -0.467   2.194  1.00  0.00     0.087 C 
ATOM      4  O   UNL     1       3.996   0.635   2.492  1.00  0.00    -0.300 OA
ENDBRANCH   1   2
BRANCH   1   5
ATOM      5  C   UNL     1       5.419   1.720  -0.234  1.00  0.00     0.043 C 
BRANCH   5   6
ATOM      6  C   UNL     1       6.584   1.015  -0.799  1.00  0.00    -0.044 A 
ATOM      7  C   UNL     1       7.893   1.444  -0.549  1.00  0.00     0.008 A 
ATOM      8  C   UNL     1       6.392  -0.095  -1.590  1.00  0.00     0.054 A 
ATOM      9  C   UNL     1       8.947   0.743  -1.105  1.00  0.00     0.051 A 
ATOM     10  C   UNL     1       7.461  -0.801  -2.150  1.00  0.00     0.166 A 
ATOM     11  C   UNL     1       8.749  -0.378  -1.906  1.00  0.00     0.165 A 
ATOM     12  O   UNL     1       7.531  -1.915  -2.958  1.00  0.00    -0.454 OA
ATOM     13  O   UNL     1       9.591  -1.252  -2.575  1.00  0.00    -0.454 OA
ATOM     14  C   UNL     1       8.865  -2.295  -3.181  1.00  0.00     0.468 C 
ENDBRANCH   5   6
ENDBRANCH   1   5
TORSDOF 3
ENDMDL
MODEL 2
REMARK VINA RESULT:      -7.4      1.888      2.341
REMARK SMILES CC(=O)CCc1ccc2c(c1)OCO2
REMARK SMILES IDX 4 1 2 2 1 3 3 4 5 5 6 6 7 7 11 8 8 9 10 10 9 11 12 12 14 13
REMARK SMILES IDX 13 14
REMARK H PARENT
REMARK Flexibility Score: inf
ROOT
ATOM      1  C   UNL     1       5.795   1.460  -0.321  1.00  0.00     0.080 C 
ENDROOT
BRANCH   1   2
ATOM      2  C   UNL     1       5.104   1.336   0.993  1.00  0.00     0.130 C 
ATOM      3  C   UNL     1       5.411   0.226   1.935  1.00  0.00     0.087 C 
ATOM      4  O   UNL     1       4.260   2.148   1.336  1.00  0.00    -0.300 OA
ENDBRANCH   1   2
BRANCH   1   5
ATOM      5  C   UNL     1       7.275   1.159  -0.195  1.00  0.00     0.043 C 
BRANCH   5   6
ATOM      6  C   UNL     1       7.629  -0.122  -0.831  1.00  0.00    -0.044 A 
ATOM      7  C   UNL     1       7.688  -0.258  -2.223  1.00  0.00     0.008 A 
ATOM      8  C   UNL     1       7.911  -1.218  -0.048  1.00  0.00     0.054 A 
ATOM      9  C   UNL     1       8.027  -1.485  -2.764  1.00  0.00     0.051 A 
ATOM     10  C   UNL     1       8.254  -2.456  -0.599  1.00  0.00     0.166 A 
ATOM     11  C   UNL     1       8.311  -2.591  -1.969  1.00  0.00     0.165 A 
ATOM     12  O   UNL     1       8.573  -3.677  -0.043  1.00  0.00    -0.454 OA
ATOM     13  O   UNL     1       8.670  -3.905  -2.228  1.00  0.00    -0.454 OA
ATOM     14  C   UNL     1       8.933  -4.604  -1.035  1.00  0.00     0.468 C 
ENDBRANCH   5   6
ENDBRANCH   1   5
TORSDOF 3
ENDMDL
MODEL 3
REMARK VINA RESULT:      -7.1      2.061      2.623
REMARK SMILES CC(=O)CCc1ccc2c(c1)OCO2
REMARK SMILES IDX 4 1 2 2 1 3 3 4 5 5 6 6 7 7 11 8 8 9 10 10 9 11 12 12 14 13
REMARK SMILES IDX 13 14
REMARK H PARENT
REMARK Flexibility Score: inf
ROOT
ATOM      1  C   UNL     1       5.450  -0.028   2.005  1.00  0.00     0.080 C 
ENDROOT
BRANCH   1   2
ATOM      2  C   UNL     1       4.580   1.156   1.762  1.00  0.00     0.130 C 
ATOM      3  C   UNL     1       4.887   2.145   0.695  1.00  0.00     0.087 C 
ATOM      4  O   UNL     1       3.582   1.350   2.438  1.00  0.00    -0.300 OA
ENDBRANCH   1   2
BRANCH   1   5
ATOM      5  C   UNL     1       6.873   0.233   1.553  1.00  0.00     0.043 C 
BRANCH   5   6
ATOM      6  C   UNL     1       7.294  -0.711   0.502  1.00  0.00    -0.044 A 
ATOM      7  C   UNL     1       7.163  -0.402  -0.856  1.00  0.00     0.008 A 
ATOM      8  C   UNL     1       7.833  -1.928   0.855  1.00  0.00     0.054 A 
ATOM      9  C   UNL     1       7.576  -1.327  -1.798  1.00  0.00     0.051 A 
ATOM     10  C   UNL     1       8.250  -2.859  -0.101  1.00  0.00     0.166 A 
ATOM     11  C   UNL     1       8.119  -2.557  -1.438  1.00  0.00     0.165 A 
ATOM     12  O   UNL     1       8.807  -4.117  -0.007  1.00  0.00    -0.454 OA
ATOM     13  O   UNL     1       8.605  -3.646  -2.145  1.00  0.00    -0.454 OA
ATOM     14  C   UNL     1       9.135  -4.619  -1.277  1.00  0.00     0.468 C 
ENDBRANCH   5   6
ENDBRANCH   1   5
TORSDOF 3
ENDMDL
MODEL 4
REMARK VINA RESULT:      -7.0      1.261      1.490
REMARK SMILES CC(=O)CCc1ccc2c(c1)OCO2
REMARK SMILES IDX 4 1 2 2 1 3 3 4 5 5 6 6 7 7 11 8 8 9 10 10 9 11 12 12 14 13
REMARK SMILES IDX 13 14
REMARK H PARENT
REMARK Flexibility Score: inf
ROOT
ATOM      1  C   UNL     1       6.394   1.158   0.910  1.00  0.00     0.080 C 
ENDROOT
BRANCH   1   2
ATOM      2  C   UNL     1       5.674   0.349   1.932  1.00  0.00     0.130 C 
ATOM      3  C   UNL     1       6.267  -0.886   2.510  1.00  0.00     0.087 C 
ATOM      4  O   UNL     1       4.567   0.680   2.327  1.00  0.00    -0.300 OA
ENDBRANCH   1   2
BRANCH   1   5
ATOM      5  C   UNL     1       5.879   0.867  -0.486  1.00  0.00     0.043 C 
BRANCH   5   6
ATOM      6  C   UNL     1       6.829   0.047  -1.259  1.00  0.00    -0.044 A 
ATOM      7  C   UNL     1       7.506   0.561  -2.371  1.00  0.00     0.008 A 
ATOM      8  C   UNL     1       7.065  -1.257  -0.886  1.00  0.00     0.054 A 
ATOM      9  C   UNL     1       8.387  -0.255  -3.057  1.00  0.00     0.051 A 
ATOM     10  C   UNL     1       7.957  -2.078  -1.583  1.00  0.00     0.166 A 
ATOM     11  C   UNL     1       8.622  -1.573  -2.677  1.00  0.00     0.165 A 
ATOM     12  O   UNL     1       8.357  -3.387  -1.414  1.00  0.00    -0.454 OA
ATOM     13  O   UNL     1       9.427  -2.593  -3.163  1.00  0.00    -0.454 OA
ATOM     14  C   UNL     1       9.357  -3.731  -2.337  1.00  0.00     0.468 C 
ENDBRANCH   5   6
ENDBRANCH   1   5
TORSDOF 3
ENDMDL
MODEL 5
REMARK VINA RESULT:      -7.0      1.958      2.521
REMARK SMILES CC(=O)CCc1ccc2c(c1)OCO2
REMARK SMILES IDX 4 1 2 2 1 3 3 4 5 5 6 6 7 7 11 8 8 9 10 10 9 11 12 12 14 13
REMARK SMILES IDX 13 14
REMARK H PARENT
REMARK Flexibility Score: inf
ROOT
ATOM      1  C   UNL     1       6.809   0.766   1.243  1.00  0.00     0.080 C 
ENDROOT
BRANCH   1   2
ATOM      2  C   UNL     1       5.374   1.118   1.426  1.00  0.00     0.130 C 
ATOM      3  C   UNL     1       4.710   2.149   0.585  1.00  0.00     0.087 C 
ATOM      4  O   UNL     1       4.697   0.566   2.278  1.00  0.00    -0.300 OA
ENDBRANCH   1   2
BRANCH   1   5
ATOM      5  C   UNL     1       7.247   0.966  -0.194  1.00  0.00     0.043 C 
BRANCH   5   6
ATOM      6  C   UNL     1       7.636  -0.305  -0.829  1.00  0.00    -0.044 A 
ATOM      7  C   UNL     1       7.729  -0.432  -2.220  1.00  0.00     0.008 A 
ATOM      8  C   UNL     1       7.920  -1.401  -0.046  1.00  0.00     0.054 A 
ATOM      9  C   UNL     1       8.100  -1.650  -2.760  1.00  0.00     0.051 A 
ATOM     10  C   UNL     1       8.295  -2.630  -0.596  1.00  0.00     0.166 A 
ATOM     11  C   UNL     1       8.386  -2.755  -1.965  1.00  0.00     0.165 A 
ATOM     12  O   UNL     1       8.622  -3.848  -0.040  1.00  0.00    -0.454 OA
ATOM     13  O   UNL     1       8.772  -4.061  -2.223  1.00  0.00    -0.454 OA
ATOM     14  C   UNL     1       9.021  -4.763  -1.028  1.00  0.00     0.468 C 
ENDBRANCH   5   6
ENDBRANCH   1   5
TORSDOF 3
ENDMDL
