@<TRIPOS>MOLECULE
/home/cewinharhar/GITHUB/reincatalyze/data/processed/docking_pred/2023-May-24-1506_sub9_nm5_bs15_s42_ex16_mel10_mts10000_k50_ec02_g099_lra3e-4_lrc3e-3/7076afde4386affa59e586c5ec9b2181426a643f_ligand_9.pdbqt
 14 15 0 0 0
SMALL
GASTEIGER

@<TRIPOS>ATOM
      1  C          6.8090    0.7660    1.2430 C.3     1  UNL1        0.0800
      2  C          5.3740    1.1180    1.4260 C.2     1  UNL1        0.1300
      3  C          4.7100    2.1490    0.5850 C.3     1  UNL1        0.0870
      4  O          4.6970    0.5660    2.2780 O.2     1  UNL1       -0.3000
      5  C          7.2470    0.9660   -0.1940 C.3     1  UNL1        0.0430
      6  C          7.6360   -0.3050   -0.8290 C.2     1  UNL1       -0.0440
      7  C          7.7290   -0.4320   -2.2200 C.2     1  UNL1        0.0080
      8  C          7.9200   -1.4010   -0.0460 C.2     1  UNL1        0.0540
      9  C          8.1000   -1.6500   -2.7600 C.2     1  UNL1        0.0510
     10  C          8.2950   -2.6300   -0.5960 C.2     1  UNL1        0.1660
     11  C          8.3860   -2.7550   -1.9650 C.2     1  UNL1        0.1650
     12  O          8.6220   -3.8480   -0.0400 O.2     1  UNL1       -0.4540
     13  O          8.7720   -4.0610   -2.2230 O.2     1  UNL1       -0.4540
     14  C          9.0210   -4.7630   -1.0280 C.3     1  UNL1        0.4680
@<TRIPOS>BOND
     1     9     7    1
     2     9    11    2
     3    13    11    1
     4    13    14    1
     5     7     6    2
     6    11    10    1
     7    14    12    1
     8     6     5    1
     9     6     8    1
    10    10     8    2
    11    10    12    1
    12     5     1    1
    13     3     2    1
    14     1     2    1
    15     2     4    2
