@<TRIPOS>MOLECULE
/home/cewinharhar/GITHUB/reincatalyze/data/processed/docking_pred/2023-May-24-1506_sub9_nm5_bs15_s42_ex16_mel10_mts10000_k50_ec02_g099_lra3e-4_lrc3e-3/72c4800fcc396c08a923544a0defa9269110c5e0_ligand_9.pdbqt
 14 15 0 0 0
SMALL
GASTEIGER

@<TRIPOS>ATOM
      1  C          5.5590    1.9170    1.2750 C.3     1  UNL1        0.0800
      2  C          5.1280    0.7000    2.0160 C.2     1  UNL1        0.1300
      3  C          6.0330   -0.4660    2.1980 C.3     1  UNL1        0.0870
      4  O          4.0100    0.6240    2.5000 O.2     1  UNL1       -0.3000
      5  C          5.4240    1.7260   -0.2230 C.3     1  UNL1        0.0430
      6  C          6.5870    1.0230   -0.7920 C.2     1  UNL1       -0.0440
      7  C          7.8960    1.4520   -0.5440 C.2     1  UNL1        0.0080
      8  C          6.3940   -0.0850   -1.5850 C.2     1  UNL1        0.0540
      9  C          8.9490    0.7520   -1.1030 C.2     1  UNL1        0.0510
     10  C          7.4620   -0.7890   -2.1480 C.2     1  UNL1        0.1660
     11  C          8.7500   -0.3670   -1.9060 C.2     1  UNL1        0.1650
     12  O          7.5300   -1.9020   -2.9600 O.2     1  UNL1       -0.4540
     13  O          9.5910   -1.2390   -2.5790 O.2     1  UNL1       -0.4540
     14  C          8.8640   -2.2810   -3.1850 C.3     1  UNL1        0.4680
@<TRIPOS>BOND
     1    14    12    1
     2    14    13    1
     3    12    10    1
     4    13    11    1
     5    10    11    2
     6    10     8    1
     7    11     9    1
     8     8     6    2
     9     9     7    2
    10     6     7    1
    11     6     5    1
    12     5     1    1
    13     1     2    1
    14     2     3    1
    15     2     4    2
