MODEL 1
REMARK VINA RESULT:      -7.6      0.000      0.000
REMARK SMILES CC(=O)CCc1ccc2c(c1)OCO2
REMARK SMILES IDX 4 1 2 2 1 3 3 4 5 5 6 6 7 7 11 8 8 9 10 10 9 11 12 12 14 13
REMARK SMILES IDX 13 14
REMARK H PARENT
REMARK Flexibility Score: inf
ROOT
ATOM      1  C   UNL     1       5.559   1.917   1.275  1.00  0.00     0.080 C 
ENDROOT
BRANCH   1   2
ATOM      2  C   UNL     1       5.128   0.700   2.016  1.00  0.00     0.130 C 
ATOM      3  C   UNL     1       6.033  -0.466   2.198  1.00  0.00     0.087 C 
ATOM      4  O   UNL     1       4.010   0.624   2.500  1.00  0.00    -0.300 OA
ENDBRANCH   1   2
BRANCH   1   5
ATOM      5  C   UNL     1       5.424   1.726  -0.223  1.00  0.00     0.043 C 
BRANCH   5   6
ATOM      6  C   UNL     1       6.587   1.023  -0.792  1.00  0.00    -0.044 A 
ATOM      7  C   UNL     1       7.896   1.452  -0.544  1.00  0.00     0.008 A 
ATOM      8  C   UNL     1       6.394  -0.085  -1.585  1.00  0.00     0.054 A 
ATOM      9  C   UNL     1       8.949   0.752  -1.103  1.00  0.00     0.051 A 
ATOM     10  C   UNL     1       7.462  -0.789  -2.148  1.00  0.00     0.166 A 
ATOM     11  C   UNL     1       8.750  -0.367  -1.906  1.00  0.00     0.165 A 
ATOM     12  O   UNL     1       7.530  -1.902  -2.960  1.00  0.00    -0.454 OA
ATOM     13  O   UNL     1       9.591  -1.239  -2.579  1.00  0.00    -0.454 OA
ATOM     14  C   UNL     1       8.864  -2.281  -3.185  1.00  0.00     0.468 C 
ENDBRANCH   5   6
ENDBRANCH   1   5
TORSDOF 3
ENDMDL
MODEL 2
REMARK VINA RESULT:      -7.4      1.959      2.457
REMARK SMILES CC(=O)CCc1ccc2c(c1)OCO2
REMARK SMILES IDX 4 1 2 2 1 3 3 4 5 5 6 6 7 7 11 8 8 9 10 10 9 11 12 12 14 13
REMARK SMILES IDX 13 14
REMARK H PARENT
REMARK Flexibility Score: inf
ROOT
ATOM      1  C   UNL     1       5.762   1.113  -0.314  1.00  0.00     0.080 C 
ENDROOT
BRANCH   1   2
ATOM      2  C   UNL     1       5.284   1.160   1.096  1.00  0.00     0.130 C 
ATOM      3  C   UNL     1       5.471   0.012   2.022  1.00  0.00     0.087 C 
ATOM      4  O   UNL     1       4.720   2.150   1.533  1.00  0.00    -0.300 OA
ENDBRANCH   1   2
BRANCH   1   5
ATOM      5  C   UNL     1       7.270   0.976  -0.380  1.00  0.00     0.043 C 
BRANCH   5   6
ATOM      6  C   UNL     1       7.677  -0.315  -0.962  1.00  0.00    -0.044 A 
ATOM      7  C   UNL     1       7.810  -0.486  -2.345  1.00  0.00     0.008 A 
ATOM      8  C   UNL     1       7.938  -1.384  -0.136  1.00  0.00     0.054 A 
ATOM      9  C   UNL     1       8.195  -1.720  -2.835  1.00  0.00     0.051 A 
ATOM     10  C   UNL     1       8.328  -2.630  -0.636  1.00  0.00     0.166 A 
ATOM     11  C   UNL     1       8.457  -2.800  -1.997  1.00  0.00     0.165 A 
ATOM     12  O   UNL     1       8.638  -3.830  -0.032  1.00  0.00    -0.454 OA
ATOM     13  O   UNL     1       8.850  -4.113  -2.201  1.00  0.00    -0.454 OA
ATOM     14  C   UNL     1       9.064  -4.776  -0.978  1.00  0.00     0.468 C 
ENDBRANCH   5   6
ENDBRANCH   1   5
TORSDOF 3
ENDMDL
MODEL 3
REMARK VINA RESULT:      -7.2      2.092      2.622
REMARK SMILES CC(=O)CCc1ccc2c(c1)OCO2
REMARK SMILES IDX 4 1 2 2 1 3 3 4 5 5 6 6 7 7 11 8 8 9 10 10 9 11 12 12 14 13
REMARK SMILES IDX 13 14
REMARK H PARENT
REMARK Flexibility Score: inf
ROOT
ATOM      1  C   UNL     1       5.623   0.043   1.952  1.00  0.00     0.080 C 
ENDROOT
BRANCH   1   2
ATOM      2  C   UNL     1       4.698   1.160   1.615  1.00  0.00     0.130 C 
ATOM      3  C   UNL     1       4.968   2.082   0.479  1.00  0.00     0.087 C 
ATOM      4  O   UNL     1       3.685   1.354   2.267  1.00  0.00    -0.300 OA
ENDBRANCH   1   2
BRANCH   1   5
ATOM      5  C   UNL     1       7.020   0.306   1.425  1.00  0.00     0.043 C 
BRANCH   5   6
ATOM      6  C   UNL     1       7.411  -0.676   0.398  1.00  0.00    -0.044 A 
ATOM      7  C   UNL     1       7.301  -0.392  -0.968  1.00  0.00     0.008 A 
ATOM      8  C   UNL     1       7.900  -1.905   0.780  1.00  0.00     0.054 A 
ATOM      9  C   UNL     1       7.684  -1.353  -1.886  1.00  0.00     0.051 A 
ATOM     10  C   UNL     1       8.286  -2.872  -0.152  1.00  0.00     0.166 A 
ATOM     11  C   UNL     1       8.177  -2.594  -1.496  1.00  0.00     0.165 A 
ATOM     12  O   UNL     1       8.793  -4.148  -0.026  1.00  0.00    -0.454 OA
ATOM     13  O   UNL     1       8.625  -3.716  -2.175  1.00  0.00    -0.454 OA
ATOM     14  C   UNL     1       9.110  -4.691  -1.282  1.00  0.00     0.468 C 
ENDBRANCH   5   6
ENDBRANCH   1   5
TORSDOF 3
ENDMDL
MODEL 4
REMARK VINA RESULT:      -7.1      1.243      1.446
REMARK SMILES CC(=O)CCc1ccc2c(c1)OCO2
REMARK SMILES IDX 4 1 2 2 1 3 3 4 5 5 6 6 7 7 11 8 8 9 10 10 9 11 12 12 14 13
REMARK SMILES IDX 13 14
REMARK H PARENT
REMARK Flexibility Score: inf
ROOT
ATOM      1  C   UNL     1       6.377   1.228   0.925  1.00  0.00     0.080 C 
ENDROOT
BRANCH   1   2
ATOM      2  C   UNL     1       5.664   0.388   1.928  1.00  0.00     0.130 C 
ATOM      3  C   UNL     1       6.284  -0.836   2.503  1.00  0.00     0.087 C 
ATOM      4  O   UNL     1       4.543   0.683   2.309  1.00  0.00    -0.300 OA
ENDBRANCH   1   2
BRANCH   1   5
ATOM      5  C   UNL     1       5.871   0.957  -0.478  1.00  0.00     0.043 C 
BRANCH   5   6
ATOM      6  C   UNL     1       6.814   0.126  -1.248  1.00  0.00    -0.044 A 
ATOM      7  C   UNL     1       7.508   0.635  -2.352  1.00  0.00     0.008 A 
ATOM      8  C   UNL     1       7.028  -1.183  -0.879  1.00  0.00     0.054 A 
ATOM      9  C   UNL     1       8.381  -0.191  -3.035  1.00  0.00     0.051 A 
ATOM     10  C   UNL     1       7.912  -2.014  -1.573  1.00  0.00     0.166 A 
ATOM     11  C   UNL     1       8.593  -1.514  -2.660  1.00  0.00     0.165 A 
ATOM     12  O   UNL     1       8.290  -3.330  -1.408  1.00  0.00    -0.454 OA
ATOM     13  O   UNL     1       9.386  -2.544  -3.145  1.00  0.00    -0.454 OA
ATOM     14  C   UNL     1       9.292  -3.685  -2.326  1.00  0.00     0.468 C 
ENDBRANCH   5   6
ENDBRANCH   1   5
TORSDOF 3
ENDMDL
MODEL 5
REMARK VINA RESULT:      -6.8      1.182      5.171
REMARK SMILES CC(=O)CCc1ccc2c(c1)OCO2
REMARK SMILES IDX 4 1 2 2 1 3 3 4 5 5 6 6 7 7 11 8 8 9 10 10 9 11 12 12 14 13
REMARK SMILES IDX 13 14
REMARK H PARENT
REMARK Flexibility Score: inf
ROOT
ATOM      1  C   UNL     1       8.364   0.206  -2.612  1.00  0.00     0.080 C 
ENDROOT
BRANCH   1   2
ATOM      2  C   UNL     1       8.052  -1.247  -2.717  1.00  0.00     0.130 C 
ATOM      3  C   UNL     1       9.108  -2.254  -3.007  1.00  0.00     0.087 C 
ATOM      4  O   UNL     1       6.912  -1.655  -2.569  1.00  0.00    -0.300 OA
ENDBRANCH   1   2
BRANCH   1   5
ATOM      5  C   UNL     1       8.880   0.559  -1.231  1.00  0.00     0.043 C 
BRANCH   5   6
ATOM      6  C   UNL     1       7.833   0.416  -0.204  1.00  0.00    -0.044 A 
ATOM      7  C   UNL     1       7.921  -0.552   0.803  1.00  0.00     0.008 A 
ATOM      8  C   UNL     1       6.739   1.251  -0.224  1.00  0.00     0.054 A 
ATOM      9  C   UNL     1       6.909  -0.639   1.741  1.00  0.00     0.051 A 
ATOM     10  C   UNL     1       5.718   1.159   0.727  1.00  0.00     0.166 A 
ATOM     11  C   UNL     1       5.804   0.206   1.718  1.00  0.00     0.165 A 
ATOM     12  O   UNL     1       4.547   1.861   0.919  1.00  0.00    -0.454 OA
ATOM     13  O   UNL     1       4.672   0.344   2.506  1.00  0.00    -0.454 OA
ATOM     14  C   UNL     1       3.893   1.440   2.089  1.00  0.00     0.468 C 
ENDBRANCH   5   6
ENDBRANCH   1   5
TORSDOF 3
ENDMDL
