@<TRIPOS>MOLECULE
/home/cewinharhar/GITHUB/reincatalyze/data/processed/docking_pred/2023-May-24-1506_sub9_nm5_bs15_s42_ex16_mel10_mts10000_k50_ec02_g099_lra3e-4_lrc3e-3/72c4800fcc396c08a923544a0defa9269110c5e0_ligand_9.pdbqt
 14 15 0 0 0
SMALL
GASTEIGER

@<TRIPOS>ATOM
      1  C          5.6230    0.0430    1.9520 C.3     1  UNL1        0.0800
      2  C          4.6980    1.1600    1.6150 C.2     1  UNL1        0.1300
      3  C          4.9680    2.0820    0.4790 C.3     1  UNL1        0.0870
      4  O          3.6850    1.3540    2.2670 O.2     1  UNL1       -0.3000
      5  C          7.0200    0.3060    1.4250 C.3     1  UNL1        0.0430
      6  C          7.4110   -0.6760    0.3980 C.2     1  UNL1       -0.0440
      7  C          7.3010   -0.3920   -0.9680 C.2     1  UNL1        0.0080
      8  C          7.9000   -1.9050    0.7800 C.2     1  UNL1        0.0540
      9  C          7.6840   -1.3530   -1.8860 C.2     1  UNL1        0.0510
     10  C          8.2860   -2.8720   -0.1520 C.2     1  UNL1        0.1660
     11  C          8.1770   -2.5940   -1.4960 C.2     1  UNL1        0.1650
     12  O          8.7930   -4.1480   -0.0260 O.2     1  UNL1       -0.4540
     13  O          8.6250   -3.7160   -2.1750 O.2     1  UNL1       -0.4540
     14  C          9.1100   -4.6910   -1.2820 C.3     1  UNL1        0.4680
@<TRIPOS>BOND
     1    13    11    1
     2    13    14    1
     3     9    11    2
     4     9     7    1
     5    11    10    1
     6    14    12    1
     7     7     6    2
     8    10    12    1
     9    10     8    2
    10     6     8    1
    11     6     5    1
    12     3     2    1
    13     5     1    1
    14     2     1    1
    15     2     4    2
