@<TRIPOS>MOLECULE
/home/cewinharhar/GITHUB/reincatalyze/data/processed/docking_pred/2023-May-24-1506_sub9_nm5_bs15_s42_ex16_mel10_mts10000_k50_ec02_g099_lra3e-4_lrc3e-3/72c4800fcc396c08a923544a0defa9269110c5e0_ligand_9.pdbqt
 14 15 0 0 0
SMALL
GASTEIGER

@<TRIPOS>ATOM
      1  C          5.7620    1.1130   -0.3140 C.3     1  UNL1        0.0800
      2  C          5.2840    1.1600    1.0960 C.2     1  UNL1        0.1300
      3  C          5.4710    0.0120    2.0220 C.3     1  UNL1        0.0870
      4  O          4.7200    2.1500    1.5330 O.2     1  UNL1       -0.3000
      5  C          7.2700    0.9760   -0.3800 C.3     1  UNL1        0.0430
      6  C          7.6770   -0.3150   -0.9620 C.2     1  UNL1       -0.0440
      7  C          7.8100   -0.4860   -2.3450 C.2     1  UNL1        0.0080
      8  C          7.9380   -1.3840   -0.1360 C.2     1  UNL1        0.0540
      9  C          8.1950   -1.7200   -2.8350 C.2     1  UNL1        0.0510
     10  C          8.3280   -2.6300   -0.6360 C.2     1  UNL1        0.1660
     11  C          8.4570   -2.8000   -1.9970 C.2     1  UNL1        0.1650
     12  O          8.6380   -3.8300   -0.0320 O.2     1  UNL1       -0.4540
     13  O          8.8500   -4.1130   -2.2010 O.2     1  UNL1       -0.4540
     14  C          9.0640   -4.7760   -0.9780 C.3     1  UNL1        0.4680
@<TRIPOS>BOND
     1     9     7    1
     2     9    11    2
     3     7     6    2
     4    13    11    1
     5    13    14    1
     6    11    10    1
     7    14    12    1
     8     6     5    1
     9     6     8    1
    10    10     8    2
    11    10    12    1
    12     5     1    1
    13     1     2    1
    14     2     4    2
    15     2     3    1
