@<TRIPOS>MOLECULE
/home/cewinharhar/GITHUB/reincatalyze/data/processed/docking_pred/2023-May-24-1506_sub9_nm5_bs15_s42_ex16_mel10_mts10000_k50_ec02_g099_lra3e-4_lrc3e-3/72c4800fcc396c08a923544a0defa9269110c5e0_ligand_9.pdbqt
 14 15 0 0 0
SMALL
GASTEIGER

@<TRIPOS>ATOM
      1  C          6.3770    1.2280    0.9250 C.3     1  UNL1        0.0800
      2  C          5.6640    0.3880    1.9280 C.2     1  UNL1        0.1300
      3  C          6.2840   -0.8360    2.5030 C.3     1  UNL1        0.0870
      4  O          4.5430    0.6830    2.3090 O.2     1  UNL1       -0.3000
      5  C          5.8710    0.9570   -0.4780 C.3     1  UNL1        0.0430
      6  C          6.8140    0.1260   -1.2480 C.2     1  UNL1       -0.0440
      7  C          7.5080    0.6350   -2.3520 C.2     1  UNL1        0.0080
      8  C          7.0280   -1.1830   -0.8790 C.2     1  UNL1        0.0540
      9  C          8.3810   -0.1910   -3.0350 C.2     1  UNL1        0.0510
     10  C          7.9120   -2.0140   -1.5730 C.2     1  UNL1        0.1660
     11  C          8.5930   -1.5140   -2.6600 C.2     1  UNL1        0.1650
     12  O          8.2900   -3.3300   -1.4080 O.2     1  UNL1       -0.4540
     13  O          9.3860   -2.5440   -3.1450 O.2     1  UNL1       -0.4540
     14  C          9.2920   -3.6850   -2.3260 C.3     1  UNL1        0.4680
@<TRIPOS>BOND
     1    13    11    1
     2    13    14    1
     3     9    11    2
     4     9     7    1
     5    11    10    1
     6     7     6    2
     7    14    12    1
     8    10    12    1
     9    10     8    2
    10     6     8    1
    11     6     5    1
    12     5     1    1
    13     1     2    1
    14     2     4    2
    15     2     3    1
