@<TRIPOS>MOLECULE
/home/cewinharhar/GITHUB/reincatalyze/data/processed/docking_pred/2023-May-24-1506_sub9_nm5_bs15_s42_ex16_mel10_mts10000_k50_ec02_g099_lra3e-4_lrc3e-3/72c4800fcc396c08a923544a0defa9269110c5e0_ligand_9.pdbqt
 14 15 0 0 0
SMALL
GASTEIGER

@<TRIPOS>ATOM
      1  C          8.3640    0.2060   -2.6120 C.3     1  UNL1        0.0800
      2  C          8.0520   -1.2470   -2.7170 C.2     1  UNL1        0.1300
      3  C          9.1080   -2.2540   -3.0070 C.3     1  UNL1        0.0870
      4  O          6.9120   -1.6550   -2.5690 O.2     1  UNL1       -0.3000
      5  C          8.8800    0.5590   -1.2310 C.3     1  UNL1        0.0430
      6  C          7.8330    0.4160   -0.2040 C.2     1  UNL1       -0.0440
      7  C          7.9210   -0.5520    0.8030 C.2     1  UNL1        0.0080
      8  C          6.7390    1.2510   -0.2240 C.2     1  UNL1        0.0540
      9  C          6.9090   -0.6390    1.7410 C.2     1  UNL1        0.0510
     10  C          5.7180    1.1590    0.7270 C.2     1  UNL1        0.1660
     11  C          5.8040    0.2060    1.7180 C.2     1  UNL1        0.1650
     12  O          4.5470    1.8610    0.9190 O.2     1  UNL1       -0.4540
     13  O          4.6720    0.3440    2.5060 O.2     1  UNL1       -0.4540
     14  C          3.8930    1.4400    2.0890 C.3     1  UNL1        0.4680
@<TRIPOS>BOND
     1     3     2    1
     2     2     1    1
     3     2     4    2
     4     1     5    1
     5     5     6    1
     6     8     6    2
     7     8    10    1
     8     6     7    1
     9    10    12    1
    10    10    11    2
    11     7     9    2
    12    12    14    1
    13    11     9    1
    14    11    13    1
    15    14    13    1
