@<TRIPOS>MOLECULE
/home/cewinharhar/GITHUB/reincatalyze/data/processed/docking_pred/2023-May-24-1506_sub9_nm5_bs15_s42_ex16_mel10_mts10000_k50_ec02_g099_lra3e-4_lrc3e-3/73f03501d88ed0f960f592fe5f6124e73644cb01_ligand_9.pdbqt
 14 15 0 0 0
SMALL
GASTEIGER

@<TRIPOS>ATOM
      1  C          6.5360    0.4720    1.1870 C.3     1  UNL1        0.0800
      2  C          5.1970    1.0830    1.4190 C.2     1  UNL1        0.1300
      3  C          4.6580    2.1450    0.5290 C.3     1  UNL1        0.0870
      4  O          4.4990    0.7260    2.3540 O.2     1  UNL1       -0.3000
      5  C          7.0170    0.7230   -0.2280 C.3     1  UNL1        0.0430
      6  C          7.5320   -0.5070   -0.8560 C.2     1  UNL1       -0.0440
      7  C          7.7570   -0.5870   -2.2350 C.2     1  UNL1        0.0080
      8  C          7.8040   -1.6080   -0.0770 C.2     1  UNL1        0.0540
      9  C          8.2430   -1.7670   -2.7680 C.2     1  UNL1        0.0510
     10  C          8.2950   -2.7990   -0.6210 C.2     1  UNL1        0.1660
     11  C          8.5160   -2.8790   -1.9780 C.2     1  UNL1        0.1650
     12  O          8.6380   -4.0140   -0.0670 O.2     1  UNL1       -0.4540
     13  O          8.9960   -4.1540   -2.2310 O.2     1  UNL1       -0.4540
     14  C          9.1740   -4.8770   -1.0360 C.3     1  UNL1        0.4680
@<TRIPOS>BOND
     1     9     7    1
     2     9    11    2
     3     7     6    2
     4    13    11    1
     5    13    14    1
     6    11    10    1
     7    14    12    1
     8     6     5    1
     9     6     8    1
    10    10     8    2
    11    10    12    1
    12     5     1    1
    13     3     2    1
    14     1     2    1
    15     2     4    2
