@<TRIPOS>MOLECULE
/home/cewinharhar/GITHUB/reincatalyze/data/processed/docking_pred/2023-May-24-1506_sub9_nm5_bs15_s42_ex16_mel10_mts10000_k50_ec02_g099_lra3e-4_lrc3e-3/73f03501d88ed0f960f592fe5f6124e73644cb01_ligand_9.pdbqt
 14 15 0 0 0
SMALL
GASTEIGER

@<TRIPOS>ATOM
      1  C          5.5320    1.9170    1.2690 C.3     1  UNL1        0.0800
      2  C          5.0800    0.7030    2.0030 C.2     1  UNL1        0.1300
      3  C          5.9620   -0.4840    2.1660 C.3     1  UNL1        0.0870
      4  O          3.9640    0.6460    2.4940 O.2     1  UNL1       -0.3000
      5  C          5.4050    1.7340   -0.2300 C.3     1  UNL1        0.0430
      6  C          6.5720    1.0320   -0.7950 C.2     1  UNL1       -0.0440
      7  C          7.8790    1.4680   -0.5500 C.2     1  UNL1        0.0080
      8  C          6.3830   -0.0810   -1.5820 C.2     1  UNL1        0.0540
      9  C          8.9350    0.7690   -1.1070 C.2     1  UNL1        0.0510
     10  C          7.4540   -0.7850   -2.1420 C.2     1  UNL1        0.1660
     11  C          8.7400   -0.3560   -1.9020 C.2     1  UNL1        0.1650
     12  O          7.5260   -1.9020   -2.9460 O.2     1  UNL1       -0.4540
     13  O          9.5850   -1.2280   -2.5710 O.2     1  UNL1       -0.4540
     14  C          8.8610   -2.2760   -3.1700 C.3     1  UNL1        0.4680
@<TRIPOS>BOND
     1    14    12    1
     2    14    13    1
     3    12    10    1
     4    13    11    1
     5    10    11    2
     6    10     8    1
     7    11     9    1
     8     8     6    2
     9     9     7    2
    10     6     7    1
    11     6     5    1
    12     5     1    1
    13     1     2    1
    14     2     3    1
    15     2     4    2
