MODEL 1
REMARK VINA RESULT:      -7.7      0.000      0.000
REMARK SMILES CC(=O)CCc1ccc2c(c1)OCO2
REMARK SMILES IDX 4 1 2 2 1 3 3 4 5 5 6 6 7 7 11 8 8 9 10 10 9 11 12 12 14 13
REMARK SMILES IDX 13 14
REMARK H PARENT
REMARK Flexibility Score: inf
ROOT
ATOM      1  C   UNL     1       5.532   1.917   1.269  1.00  0.00     0.080 C 
ENDROOT
BRANCH   1   2
ATOM      2  C   UNL     1       5.080   0.703   2.003  1.00  0.00     0.130 C 
ATOM      3  C   UNL     1       5.962  -0.484   2.166  1.00  0.00     0.087 C 
ATOM      4  O   UNL     1       3.964   0.646   2.494  1.00  0.00    -0.300 OA
ENDBRANCH   1   2
BRANCH   1   5
ATOM      5  C   UNL     1       5.405   1.734  -0.230  1.00  0.00     0.043 C 
BRANCH   5   6
ATOM      6  C   UNL     1       6.572   1.032  -0.795  1.00  0.00    -0.044 A 
ATOM      7  C   UNL     1       7.879   1.468  -0.550  1.00  0.00     0.008 A 
ATOM      8  C   UNL     1       6.383  -0.081  -1.582  1.00  0.00     0.054 A 
ATOM      9  C   UNL     1       8.935   0.769  -1.107  1.00  0.00     0.051 A 
ATOM     10  C   UNL     1       7.454  -0.785  -2.142  1.00  0.00     0.166 A 
ATOM     11  C   UNL     1       8.740  -0.356  -1.902  1.00  0.00     0.165 A 
ATOM     12  O   UNL     1       7.526  -1.902  -2.946  1.00  0.00    -0.454 OA
ATOM     13  O   UNL     1       9.585  -1.228  -2.571  1.00  0.00    -0.454 OA
ATOM     14  C   UNL     1       8.861  -2.276  -3.170  1.00  0.00     0.468 C 
ENDBRANCH   5   6
ENDBRANCH   1   5
TORSDOF 3
ENDMDL
MODEL 2
REMARK VINA RESULT:      -7.4      1.971      2.386
REMARK SMILES CC(=O)CCc1ccc2c(c1)OCO2
REMARK SMILES IDX 4 1 2 2 1 3 3 4 5 5 6 6 7 7 11 8 8 9 10 10 9 11 12 12 14 13
REMARK SMILES IDX 13 14
REMARK H PARENT
REMARK Flexibility Score: inf
ROOT
ATOM      1  C   UNL     1       5.726   1.429  -0.203  1.00  0.00     0.080 C 
ENDROOT
BRANCH   1   2
ATOM      2  C   UNL     1       5.037   1.257   1.106  1.00  0.00     0.130 C 
ATOM      3  C   UNL     1       5.282   0.070   1.968  1.00  0.00     0.087 C 
ATOM      4  O   UNL     1       4.245   2.093   1.511  1.00  0.00    -0.300 OA
ENDBRANCH   1   2
BRANCH   1   5
ATOM      5  C   UNL     1       7.211   1.150  -0.084  1.00  0.00     0.043 C 
BRANCH   5   6
ATOM      6  C   UNL     1       7.575  -0.143  -0.692  1.00  0.00    -0.044 A 
ATOM      7  C   UNL     1       7.575  -0.326  -2.079  1.00  0.00     0.008 A 
ATOM      8  C   UNL     1       7.928  -1.201   0.115  1.00  0.00     0.054 A 
ATOM      9  C   UNL     1       7.926  -1.561  -2.593  1.00  0.00     0.051 A 
ATOM     10  C   UNL     1       8.283  -2.447  -0.409  1.00  0.00     0.166 A 
ATOM     11  C   UNL     1       8.282  -2.629  -1.775  1.00  0.00     0.165 A 
ATOM     12  O   UNL     1       8.665  -3.637   0.173  1.00  0.00    -0.454 OA
ATOM     13  O   UNL     1       8.668  -3.940  -2.005  1.00  0.00    -0.454 OA
ATOM     14  C   UNL     1       9.009  -4.588  -0.802  1.00  0.00     0.468 C 
ENDBRANCH   5   6
ENDBRANCH   1   5
TORSDOF 3
ENDMDL
MODEL 3
REMARK VINA RESULT:      -7.2      2.071      2.660
REMARK SMILES CC(=O)CCc1ccc2c(c1)OCO2
REMARK SMILES IDX 4 1 2 2 1 3 3 4 5 5 6 6 7 7 11 8 8 9 10 10 9 11 12 12 14 13
REMARK SMILES IDX 13 14
REMARK H PARENT
REMARK Flexibility Score: inf
ROOT
ATOM      1  C   UNL     1       5.379  -0.091   1.996  1.00  0.00     0.080 C 
ENDROOT
BRANCH   1   2
ATOM      2  C   UNL     1       4.584   1.146   1.758  1.00  0.00     0.130 C 
ATOM      3  C   UNL     1       4.954   2.119   0.695  1.00  0.00     0.087 C 
ATOM      4  O   UNL     1       3.599   1.399   2.433  1.00  0.00    -0.300 OA
ENDBRANCH   1   2
BRANCH   1   5
ATOM      5  C   UNL     1       6.838   0.115   1.642  1.00  0.00     0.043 C 
BRANCH   5   6
ATOM      6  C   UNL     1       7.274  -0.796   0.569  1.00  0.00    -0.044 A 
ATOM      7  C   UNL     1       7.137  -0.457  -0.782  1.00  0.00     0.008 A 
ATOM      8  C   UNL     1       7.832  -2.012   0.892  1.00  0.00     0.054 A 
ATOM      9  C   UNL     1       7.565  -1.352  -1.745  1.00  0.00     0.051 A 
ATOM     10  C   UNL     1       8.264  -2.913  -0.086  1.00  0.00     0.166 A 
ATOM     11  C   UNL     1       8.128  -2.581  -1.415  1.00  0.00     0.165 A 
ATOM     12  O   UNL     1       8.841  -4.164  -0.022  1.00  0.00    -0.454 OA
ATOM     13  O   UNL     1       8.632  -3.644  -2.148  1.00  0.00    -0.454 OA
ATOM     14  C   UNL     1       9.177  -4.630  -1.304  1.00  0.00     0.468 C 
ENDBRANCH   5   6
ENDBRANCH   1   5
TORSDOF 3
ENDMDL
MODEL 4
REMARK VINA RESULT:      -7.1      1.243      1.444
REMARK SMILES CC(=O)CCc1ccc2c(c1)OCO2
REMARK SMILES IDX 4 1 2 2 1 3 3 4 5 5 6 6 7 7 11 8 8 9 10 10 9 11 12 12 14 13
REMARK SMILES IDX 13 14
REMARK H PARENT
REMARK Flexibility Score: inf
ROOT
ATOM      1  C   UNL     1       6.364   1.217   0.936  1.00  0.00     0.080 C 
ENDROOT
BRANCH   1   2
ATOM      2  C   UNL     1       5.660   0.369   1.938  1.00  0.00     0.130 C 
ATOM      3  C   UNL     1       6.288  -0.855   2.503  1.00  0.00     0.087 C 
ATOM      4  O   UNL     1       4.540   0.657   2.327  1.00  0.00    -0.300 OA
ENDBRANCH   1   2
BRANCH   1   5
ATOM      5  C   UNL     1       5.856   0.947  -0.467  1.00  0.00     0.043 C 
BRANCH   5   6
ATOM      6  C   UNL     1       6.804   0.126  -1.242  1.00  0.00    -0.044 A 
ATOM      7  C   UNL     1       7.493   0.646  -2.343  1.00  0.00     0.008 A 
ATOM      8  C   UNL     1       7.025  -1.184  -0.881  1.00  0.00     0.054 A 
ATOM      9  C   UNL     1       8.370  -0.172  -3.032  1.00  0.00     0.051 A 
ATOM     10  C   UNL     1       7.914  -2.006  -1.580  1.00  0.00     0.166 A 
ATOM     11  C   UNL     1       8.592  -1.496  -2.665  1.00  0.00     0.165 A 
ATOM     12  O   UNL     1       8.300  -3.320  -1.423  1.00  0.00    -0.454 OA
ATOM     13  O   UNL     1       9.390  -2.517  -3.156  1.00  0.00    -0.454 OA
ATOM     14  C   UNL     1       9.304  -3.664  -2.343  1.00  0.00     0.468 C 
ENDBRANCH   5   6
ENDBRANCH   1   5
TORSDOF 3
ENDMDL
MODEL 5
REMARK VINA RESULT:      -7.0      1.979      2.583
REMARK SMILES CC(=O)CCc1ccc2c(c1)OCO2
REMARK SMILES IDX 4 1 2 2 1 3 3 4 5 5 6 6 7 7 11 8 8 9 10 10 9 11 12 12 14 13
REMARK SMILES IDX 13 14
REMARK H PARENT
REMARK Flexibility Score: inf
ROOT
ATOM      1  C   UNL     1       6.536   0.472   1.187  1.00  0.00     0.080 C 
ENDROOT
BRANCH   1   2
ATOM      2  C   UNL     1       5.197   1.083   1.419  1.00  0.00     0.130 C 
ATOM      3  C   UNL     1       4.658   2.145   0.529  1.00  0.00     0.087 C 
ATOM      4  O   UNL     1       4.499   0.726   2.354  1.00  0.00    -0.300 OA
ENDBRANCH   1   2
BRANCH   1   5
ATOM      5  C   UNL     1       7.017   0.723  -0.228  1.00  0.00     0.043 C 
BRANCH   5   6
ATOM      6  C   UNL     1       7.532  -0.507  -0.856  1.00  0.00    -0.044 A 
ATOM      7  C   UNL     1       7.757  -0.587  -2.235  1.00  0.00     0.008 A 
ATOM      8  C   UNL     1       7.804  -1.608  -0.077  1.00  0.00     0.054 A 
ATOM      9  C   UNL     1       8.243  -1.767  -2.768  1.00  0.00     0.051 A 
ATOM     10  C   UNL     1       8.295  -2.799  -0.621  1.00  0.00     0.166 A 
ATOM     11  C   UNL     1       8.516  -2.879  -1.978  1.00  0.00     0.165 A 
ATOM     12  O   UNL     1       8.638  -4.014  -0.067  1.00  0.00    -0.454 OA
ATOM     13  O   UNL     1       8.996  -4.154  -2.231  1.00  0.00    -0.454 OA
ATOM     14  C   UNL     1       9.174  -4.877  -1.036  1.00  0.00     0.468 C 
ENDBRANCH   5   6
ENDBRANCH   1   5
TORSDOF 3
ENDMDL
