@<TRIPOS>MOLECULE
/home/cewinharhar/GITHUB/reincatalyze/data/processed/docking_pred/2023-May-24-1506_sub9_nm5_bs15_s42_ex16_mel10_mts10000_k50_ec02_g099_lra3e-4_lrc3e-3/7473f82790d6809f011fa27bf7bcba9a4b9bdb46_ligand_9.pdbqt
 14 15 0 0 0
SMALL
GASTEIGER

@<TRIPOS>ATOM
      1  C          6.3320    1.2650    0.8570 C.3     1  UNL1        0.0800
      2  C          5.6550    0.4530    1.9060 C.2     1  UNL1        0.1300
      3  C          6.2810   -0.7720    2.4700 C.3     1  UNL1        0.0870
      4  O          4.5590    0.7730    2.3360 O.2     1  UNL1       -0.3000
      5  C          5.8240    0.9100   -0.5270 C.3     1  UNL1        0.0430
      6  C          6.8020    0.1030   -1.2780 C.2     1  UNL1       -0.0440
      7  C          7.5390    0.6440   -2.3370 C.2     1  UNL1        0.0080
      8  C          7.0050   -1.2150   -0.9360 C.2     1  UNL1        0.0540
      9  C          8.4440   -0.1610   -3.0050 C.2     1  UNL1        0.0510
     10  C          7.9210   -2.0240   -1.6140 C.2     1  UNL1        0.1660
     11  C          8.6460   -1.4930   -2.6580 C.2     1  UNL1        0.1650
     12  O          8.2980   -3.3420   -1.4690 O.2     1  UNL1       -0.4540
     13  O          9.4630   -2.5060   -3.1350 O.2     1  UNL1       -0.4540
     14  C          9.3400   -3.6700   -2.3520 C.3     1  UNL1        0.4680
@<TRIPOS>BOND
     1    13    11    1
     2    13    14    1
     3     9    11    2
     4     9     7    1
     5    11    10    1
     6    14    12    1
     7     7     6    2
     8    10    12    1
     9    10     8    2
    10     6     8    1
    11     6     5    1
    12     5     1    1
    13     1     2    1
    14     2     4    2
    15     2     3    1
