@<TRIPOS>MOLECULE
/home/cewinharhar/GITHUB/reincatalyze/data/processed/docking_pred/2023-May-24-1506_sub9_nm5_bs15_s42_ex16_mel10_mts10000_k50_ec02_g099_lra3e-4_lrc3e-3/7659662cf64336a97d630ef957de326462b2b038_ligand_9.pdbqt
 14 15 0 0 0
SMALL
GASTEIGER

@<TRIPOS>ATOM
      1  C          5.4280   -0.0410    2.0250 C.3     1  UNL1        0.0800
      2  C          4.5620    1.1430    1.7700 C.2     1  UNL1        0.1300
      3  C          4.8850    2.1320    0.7060 C.3     1  UNL1        0.0870
      4  O          3.5560    1.3390    2.4320 O.2     1  UNL1       -0.3000
      5  C          6.8580    0.2180    1.5920 C.3     1  UNL1        0.0430
      6  C          7.2840   -0.7120    0.5310 C.2     1  UNL1       -0.0440
      7  C          7.1650   -0.3830   -0.8240 C.2     1  UNL1        0.0080
      8  C          7.8170   -1.9350    0.8700 C.2     1  UNL1        0.0540
      9  C          7.5830   -1.2960   -1.7760 C.2     1  UNL1        0.0510
     10  C          8.2390   -2.8540   -0.0960 C.2     1  UNL1        0.1660
     11  C          8.1200   -2.5320   -1.4290 C.2     1  UNL1        0.1650
     12  O          8.7920   -4.1140   -0.0160 O.2     1  UNL1       -0.4540
     13  O          8.6090   -3.6120   -2.1480 O.2     1  UNL1       -0.4540
     14  C          9.1290   -4.6000   -1.2900 C.3     1  UNL1        0.4680
@<TRIPOS>BOND
     1    13    11    1
     2    13    14    1
     3     9    11    2
     4     9     7    1
     5    11    10    1
     6    14    12    1
     7     7     6    2
     8    10    12    1
     9    10     8    2
    10     6     8    1
    11     6     5    1
    12     3     2    1
    13     5     1    1
    14     2     1    1
    15     2     4    2
