MODEL 1
REMARK VINA RESULT:      -7.6      0.000      0.000
REMARK SMILES CC(=O)CCc1ccc2c(c1)OCO2
REMARK SMILES IDX 4 1 2 2 1 3 3 4 5 5 6 6 7 7 11 8 8 9 10 10 9 11 12 12 14 13
REMARK SMILES IDX 13 14
REMARK H PARENT
REMARK Flexibility Score: inf
ROOT
ATOM      1  C   UNL     1       5.543   1.903   1.279  1.00  0.00     0.080 C 
ENDROOT
BRANCH   1   2
ATOM      2  C   UNL     1       5.101   0.688   2.019  1.00  0.00     0.130 C 
ATOM      3  C   UNL     1       5.997  -0.485   2.200  1.00  0.00     0.087 C 
ATOM      4  O   UNL     1       3.981   0.620   2.501  1.00  0.00    -0.300 OA
ENDBRANCH   1   2
BRANCH   1   5
ATOM      5  C   UNL     1       5.407   1.715  -0.219  1.00  0.00     0.043 C 
BRANCH   5   6
ATOM      6  C   UNL     1       6.573   1.017  -0.790  1.00  0.00    -0.044 A 
ATOM      7  C   UNL     1       7.881   1.454  -0.546  1.00  0.00     0.008 A 
ATOM      8  C   UNL     1       6.384  -0.093  -1.581  1.00  0.00     0.054 A 
ATOM      9  C   UNL     1       8.936   0.759  -1.108  1.00  0.00     0.051 A 
ATOM     10  C   UNL     1       7.454  -0.793  -2.146  1.00  0.00     0.166 A 
ATOM     11  C   UNL     1       8.741  -0.363  -1.908  1.00  0.00     0.165 A 
ATOM     12  O   UNL     1       7.526  -1.906  -2.955  1.00  0.00    -0.454 OA
ATOM     13  O   UNL     1       9.585  -1.231  -2.582  1.00  0.00    -0.454 OA
ATOM     14  C   UNL     1       8.861  -2.278  -3.184  1.00  0.00     0.468 C 
ENDBRANCH   5   6
ENDBRANCH   1   5
TORSDOF 3
ENDMDL
MODEL 2
REMARK VINA RESULT:      -7.4      1.961      2.441
REMARK SMILES CC(=O)CCc1ccc2c(c1)OCO2
REMARK SMILES IDX 4 1 2 2 1 3 3 4 5 5 6 6 7 7 11 8 8 9 10 10 9 11 12 12 14 13
REMARK SMILES IDX 13 14
REMARK H PARENT
REMARK Flexibility Score: inf
ROOT
ATOM      1  C   UNL     1       5.742   1.261  -0.331  1.00  0.00     0.080 C 
ENDROOT
BRANCH   1   2
ATOM      2  C   UNL     1       5.124   1.223   1.024  1.00  0.00     0.130 C 
ATOM      3  C   UNL     1       5.314   0.064   1.936  1.00  0.00     0.087 C 
ATOM      4  O   UNL     1       4.440   2.150   1.427  1.00  0.00    -0.300 OA
ENDBRANCH   1   2
BRANCH   1   5
ATOM      5  C   UNL     1       7.238   1.026  -0.261  1.00  0.00     0.043 C 
BRANCH   5   6
ATOM      6  C   UNL     1       7.617  -0.264  -0.864  1.00  0.00    -0.044 A 
ATOM      7  C   UNL     1       7.656  -0.442  -2.252  1.00  0.00     0.008 A 
ATOM      8  C   UNL     1       7.946  -1.325  -0.052  1.00  0.00     0.054 A 
ATOM      9  C   UNL     1       8.020  -1.675  -2.760  1.00  0.00     0.051 A 
ATOM     10  C   UNL     1       8.315  -2.570  -0.571  1.00  0.00     0.166 A 
ATOM     11  C   UNL     1       8.352  -2.746  -1.937  1.00  0.00     0.165 A 
ATOM     12  O   UNL     1       8.680  -3.763   0.016  1.00  0.00    -0.454 OA
ATOM     13  O   UNL     1       8.744  -4.057  -2.161  1.00  0.00    -0.454 OA
ATOM     14  C   UNL     1       9.050  -4.710  -0.953  1.00  0.00     0.468 C 
ENDBRANCH   5   6
ENDBRANCH   1   5
TORSDOF 3
ENDMDL
MODEL 3
REMARK VINA RESULT:      -7.2      2.057      2.620
REMARK SMILES CC(=O)CCc1ccc2c(c1)OCO2
REMARK SMILES IDX 4 1 2 2 1 3 3 4 5 5 6 6 7 7 11 8 8 9 10 10 9 11 12 12 14 13
REMARK SMILES IDX 13 14
REMARK H PARENT
REMARK Flexibility Score: inf
ROOT
ATOM      1  C   UNL     1       5.428  -0.041   2.025  1.00  0.00     0.080 C 
ENDROOT
BRANCH   1   2
ATOM      2  C   UNL     1       4.562   1.143   1.770  1.00  0.00     0.130 C 
ATOM      3  C   UNL     1       4.885   2.132   0.706  1.00  0.00     0.087 C 
ATOM      4  O   UNL     1       3.556   1.339   2.432  1.00  0.00    -0.300 OA
ENDBRANCH   1   2
BRANCH   1   5
ATOM      5  C   UNL     1       6.858   0.218   1.592  1.00  0.00     0.043 C 
BRANCH   5   6
ATOM      6  C   UNL     1       7.284  -0.712   0.531  1.00  0.00    -0.044 A 
ATOM      7  C   UNL     1       7.165  -0.383  -0.824  1.00  0.00     0.008 A 
ATOM      8  C   UNL     1       7.817  -1.935   0.870  1.00  0.00     0.054 A 
ATOM      9  C   UNL     1       7.583  -1.296  -1.776  1.00  0.00     0.051 A 
ATOM     10  C   UNL     1       8.239  -2.854  -0.096  1.00  0.00     0.166 A 
ATOM     11  C   UNL     1       8.120  -2.532  -1.429  1.00  0.00     0.165 A 
ATOM     12  O   UNL     1       8.792  -4.114  -0.016  1.00  0.00    -0.454 OA
ATOM     13  O   UNL     1       8.609  -3.612  -2.148  1.00  0.00    -0.454 OA
ATOM     14  C   UNL     1       9.129  -4.600  -1.290  1.00  0.00     0.468 C 
ENDBRANCH   5   6
ENDBRANCH   1   5
TORSDOF 3
ENDMDL
MODEL 4
REMARK VINA RESULT:      -7.1      1.226      1.417
REMARK SMILES CC(=O)CCc1ccc2c(c1)OCO2
REMARK SMILES IDX 4 1 2 2 1 3 3 4 5 5 6 6 7 7 11 8 8 9 10 10 9 11 12 12 14 13
REMARK SMILES IDX 13 14
REMARK H PARENT
REMARK Flexibility Score: inf
ROOT
ATOM      1  C   UNL     1       6.327   1.289   0.870  1.00  0.00     0.080 C 
ENDROOT
BRANCH   1   2
ATOM      2  C   UNL     1       5.645   0.451   1.895  1.00  0.00     0.130 C 
ATOM      3  C   UNL     1       6.290  -0.762   2.466  1.00  0.00     0.087 C 
ATOM      4  O   UNL     1       4.529   0.737   2.297  1.00  0.00    -0.300 OA
ENDBRANCH   1   2
BRANCH   1   5
ATOM      5  C   UNL     1       5.829   0.966  -0.525  1.00  0.00     0.043 C 
BRANCH   5   6
ATOM      6  C   UNL     1       6.796   0.144  -1.274  1.00  0.00    -0.044 A 
ATOM      7  C   UNL     1       7.527   0.666  -2.347  1.00  0.00     0.008 A 
ATOM      8  C   UNL     1       6.996  -1.170  -0.916  1.00  0.00     0.054 A 
ATOM      9  C   UNL     1       8.422  -0.153  -3.012  1.00  0.00     0.051 A 
ATOM     10  C   UNL     1       7.902  -1.994  -1.591  1.00  0.00     0.166 A 
ATOM     11  C   UNL     1       8.620  -1.481  -2.648  1.00  0.00     0.165 A 
ATOM     12  O   UNL     1       8.273  -3.312  -1.430  1.00  0.00    -0.454 OA
ATOM     13  O   UNL     1       9.427  -2.505  -3.118  1.00  0.00    -0.454 OA
ATOM     14  C   UNL     1       9.305  -3.657  -2.318  1.00  0.00     0.468 C 
ENDBRANCH   5   6
ENDBRANCH   1   5
TORSDOF 3
ENDMDL
MODEL 5
REMARK VINA RESULT:      -6.8      1.197      5.201
REMARK SMILES CC(=O)CCc1ccc2c(c1)OCO2
REMARK SMILES IDX 4 1 2 2 1 3 3 4 5 5 6 6 7 7 11 8 8 9 10 10 9 11 12 12 14 13
REMARK SMILES IDX 13 14
REMARK H PARENT
REMARK Flexibility Score: inf
ROOT
ATOM      1  C   UNL     1       8.310   0.262  -2.554  1.00  0.00     0.080 C 
ENDROOT
BRANCH   1   2
ATOM      2  C   UNL     1       7.998  -1.187  -2.703  1.00  0.00     0.130 C 
ATOM      3  C   UNL     1       9.059  -2.189  -2.988  1.00  0.00     0.087 C 
ATOM      4  O   UNL     1       6.853  -1.596  -2.595  1.00  0.00    -0.300 OA
ENDBRANCH   1   2
BRANCH   1   5
ATOM      5  C   UNL     1       8.805   0.578  -1.157  1.00  0.00     0.043 C 
BRANCH   5   6
ATOM      6  C   UNL     1       7.740   0.415  -0.150  1.00  0.00    -0.044 A 
ATOM      7  C   UNL     1       7.777  -0.615   0.796  1.00  0.00     0.008 A 
ATOM      8  C   UNL     1       6.681   1.294  -0.130  1.00  0.00     0.054 A 
ATOM      9  C   UNL     1       6.751  -0.718   1.717  1.00  0.00     0.051 A 
ATOM     10  C   UNL     1       5.646   1.186   0.804  1.00  0.00     0.166 A 
ATOM     11  C   UNL     1       5.681   0.172   1.734  1.00  0.00     0.165 A 
ATOM     12  O   UNL     1       4.501   1.922   1.027  1.00  0.00    -0.454 OA
ATOM     13  O   UNL     1       4.546   0.308   2.518  1.00  0.00    -0.454 OA
ATOM     14  C   UNL     1       3.817   1.458   2.162  1.00  0.00     0.468 C 
ENDBRANCH   5   6
ENDBRANCH   1   5
TORSDOF 3
ENDMDL
