@<TRIPOS>MOLECULE
/home/cewinharhar/GITHUB/reincatalyze/data/processed/docking_pred/2023-May-24-1506_sub9_nm5_bs15_s42_ex16_mel10_mts10000_k50_ec02_g099_lra3e-4_lrc3e-3/7659662cf64336a97d630ef957de326462b2b038_ligand_9.pdbqt
 14 15 0 0 0
SMALL
GASTEIGER

@<TRIPOS>ATOM
      1  C          8.3100    0.2620   -2.5540 C.3     1  UNL1        0.0800
      2  C          7.9980   -1.1870   -2.7030 C.2     1  UNL1        0.1300
      3  C          9.0590   -2.1890   -2.9880 C.3     1  UNL1        0.0870
      4  O          6.8530   -1.5960   -2.5950 O.2     1  UNL1       -0.3000
      5  C          8.8050    0.5780   -1.1570 C.3     1  UNL1        0.0430
      6  C          7.7400    0.4150   -0.1500 C.2     1  UNL1       -0.0440
      7  C          7.7770   -0.6150    0.7960 C.2     1  UNL1        0.0080
      8  C          6.6810    1.2940   -0.1300 C.2     1  UNL1        0.0540
      9  C          6.7510   -0.7180    1.7170 C.2     1  UNL1        0.0510
     10  C          5.6460    1.1860    0.8040 C.2     1  UNL1        0.1660
     11  C          5.6810    0.1720    1.7340 C.2     1  UNL1        0.1650
     12  O          4.5010    1.9220    1.0270 O.2     1  UNL1       -0.4540
     13  O          4.5460    0.3080    2.5180 O.2     1  UNL1       -0.4540
     14  C          3.8170    1.4580    2.1620 C.3     1  UNL1        0.4680
@<TRIPOS>BOND
     1     3     2    1
     2     2     4    2
     3     2     1    1
     4     1     5    1
     5     5     6    1
     6     6     8    2
     7     6     7    1
     8     8    10    1
     9     7     9    2
    10    10    12    1
    11    10    11    2
    12    12    14    1
    13     9    11    1
    14    11    13    1
    15    14    13    1
