@<TRIPOS>MOLECULE
/home/cewinharhar/GITHUB/reincatalyze/data/processed/docking_pred/2023-May-24-1506_sub9_nm5_bs15_s42_ex16_mel10_mts10000_k50_ec02_g099_lra3e-4_lrc3e-3/7659662cf64336a97d630ef957de326462b2b038_ligand_9.pdbqt
 14 15 0 0 0
SMALL
GASTEIGER

@<TRIPOS>ATOM
      1  C          5.7420    1.2610   -0.3310 C.3     1  UNL1        0.0800
      2  C          5.1240    1.2230    1.0240 C.2     1  UNL1        0.1300
      3  C          5.3140    0.0640    1.9360 C.3     1  UNL1        0.0870
      4  O          4.4400    2.1500    1.4270 O.2     1  UNL1       -0.3000
      5  C          7.2380    1.0260   -0.2610 C.3     1  UNL1        0.0430
      6  C          7.6170   -0.2640   -0.8640 C.2     1  UNL1       -0.0440
      7  C          7.6560   -0.4420   -2.2520 C.2     1  UNL1        0.0080
      8  C          7.9460   -1.3250   -0.0520 C.2     1  UNL1        0.0540
      9  C          8.0200   -1.6750   -2.7600 C.2     1  UNL1        0.0510
     10  C          8.3150   -2.5700   -0.5710 C.2     1  UNL1        0.1660
     11  C          8.3520   -2.7460   -1.9370 C.2     1  UNL1        0.1650
     12  O          8.6800   -3.7630    0.0160 O.2     1  UNL1       -0.4540
     13  O          8.7440   -4.0570   -2.1610 O.2     1  UNL1       -0.4540
     14  C          9.0500   -4.7100   -0.9530 C.3     1  UNL1        0.4680
@<TRIPOS>BOND
     1     9     7    1
     2     9    11    2
     3     7     6    2
     4    13    11    1
     5    13    14    1
     6    11    10    1
     7    14    12    1
     8     6     5    1
     9     6     8    1
    10    10     8    2
    11    10    12    1
    12     1     5    1
    13     1     2    1
    14     2     4    2
    15     2     3    1
