@<TRIPOS>MOLECULE
/home/cewinharhar/GITHUB/reincatalyze/data/processed/docking_pred/2023-May-24-1506_sub9_nm5_bs15_s42_ex16_mel10_mts10000_k50_ec02_g099_lra3e-4_lrc3e-3/7659662cf64336a97d630ef957de326462b2b038_ligand_9.pdbqt
 14 15 0 0 0
SMALL
GASTEIGER

@<TRIPOS>ATOM
      1  C          5.5430    1.9030    1.2790 C.3     1  UNL1        0.0800
      2  C          5.1010    0.6880    2.0190 C.2     1  UNL1        0.1300
      3  C          5.9970   -0.4850    2.2000 C.3     1  UNL1        0.0870
      4  O          3.9810    0.6200    2.5010 O.2     1  UNL1       -0.3000
      5  C          5.4070    1.7150   -0.2190 C.3     1  UNL1        0.0430
      6  C          6.5730    1.0170   -0.7900 C.2     1  UNL1       -0.0440
      7  C          7.8810    1.4540   -0.5460 C.2     1  UNL1        0.0080
      8  C          6.3840   -0.0930   -1.5810 C.2     1  UNL1        0.0540
      9  C          8.9360    0.7590   -1.1080 C.2     1  UNL1        0.0510
     10  C          7.4540   -0.7930   -2.1460 C.2     1  UNL1        0.1660
     11  C          8.7410   -0.3630   -1.9080 C.2     1  UNL1        0.1650
     12  O          7.5260   -1.9060   -2.9550 O.2     1  UNL1       -0.4540
     13  O          9.5850   -1.2310   -2.5820 O.2     1  UNL1       -0.4540
     14  C          8.8610   -2.2780   -3.1840 C.3     1  UNL1        0.4680
@<TRIPOS>BOND
     1    14    12    1
     2    14    13    1
     3    12    10    1
     4    13    11    1
     5    10    11    2
     6    10     8    1
     7    11     9    1
     8     8     6    2
     9     9     7    2
    10     6     7    1
    11     6     5    1
    12     5     1    1
    13     1     2    1
    14     2     3    1
    15     2     4    2
