@<TRIPOS>MOLECULE
/home/cewinharhar/GITHUB/reincatalyze/data/processed/docking_pred/2023-May-24-1506_sub9_nm5_bs15_s42_ex16_mel10_mts10000_k50_ec02_g099_lra3e-4_lrc3e-3/76d14433275938f70f74ce69856b36729c59e426_ligand_9.pdbqt
 14 15 0 0 0
SMALL
GASTEIGER

@<TRIPOS>ATOM
      1  C          5.7180    1.2710   -0.3130 C.3     1  UNL1        0.0800
      2  C          5.1780    1.2090    1.0740 C.2     1  UNL1        0.1300
      3  C          5.3630    0.0070    1.9310 C.3     1  UNL1        0.0870
      4  O          4.5640    2.1500    1.5500 O.2     1  UNL1       -0.3000
      5  C          7.2220    1.0800   -0.3280 C.3     1  UNL1        0.0430
      6  C          7.6010   -0.2220   -0.9050 C.2     1  UNL1       -0.0440
      7  C          7.6680   -0.4180   -2.2890 C.2     1  UNL1        0.0080
      8  C          7.9020   -1.2760   -0.0720 C.2     1  UNL1        0.0540
      9  C          8.0310   -1.6620   -2.7730 C.2     1  UNL1        0.0510
     10  C          8.2690   -2.5310   -0.5670 C.2     1  UNL1        0.1660
     11  C          8.3330   -2.7250   -1.9290 C.2     1  UNL1        0.1650
     12  O          8.6090   -3.7190    0.0440 O.2     1  UNL1       -0.4540
     13  O          8.7170   -4.0420   -2.1280 O.2     1  UNL1       -0.4540
     14  C          8.9900   -4.6830   -0.9040 C.3     1  UNL1        0.4680
@<TRIPOS>BOND
     1     9     7    1
     2     9    11    2
     3     7     6    2
     4    13    11    1
     5    13    14    1
     6    11    10    1
     7     6     5    1
     8     6     8    1
     9    14    12    1
    10    10     8    2
    11    10    12    1
    12     5     1    1
    13     1     2    1
    14     2     4    2
    15     2     3    1
