@<TRIPOS>MOLECULE
/home/cewinharhar/GITHUB/reincatalyze/data/processed/docking_pred/2023-May-24-1506_sub9_nm5_bs15_s42_ex16_mel10_mts10000_k50_ec02_g099_lra3e-4_lrc3e-3/76d14433275938f70f74ce69856b36729c59e426_ligand_9.pdbqt
 14 15 0 0 0
SMALL
GASTEIGER

@<TRIPOS>ATOM
      1  C          5.5740   -0.0080    1.8850 C.3     1  UNL1        0.0800
      2  C          4.7060    1.1710    1.6120 C.2     1  UNL1        0.1300
      3  C          4.9900    2.1060    0.4900 C.3     1  UNL1        0.0870
      4  O          3.7300    1.4050    2.3060 O.2     1  UNL1       -0.3000
      5  C          6.9960    0.2350    1.4190 C.3     1  UNL1        0.0430
      6  C          7.4050   -0.7310    0.3850 C.2     1  UNL1       -0.0440
      7  C          7.3270   -0.4230   -0.9780 C.2     1  UNL1        0.0080
      8  C          7.8790   -1.9680    0.7560 C.2     1  UNL1        0.0540
      9  C          7.7250   -1.3690   -1.9050 C.2     1  UNL1        0.0510
     10  C          8.2820   -2.9220   -0.1840 C.2     1  UNL1        0.1660
     11  C          8.2040   -2.6200   -1.5250 C.2     1  UNL1        0.1650
     12  O          8.7800   -4.2020   -0.0700 O.2     1  UNL1       -0.4540
     13  O          8.6610   -3.7320   -2.2140 O.2     1  UNL1       -0.4540
     14  C          9.1220   -4.7240   -1.3280 C.3     1  UNL1        0.4680
@<TRIPOS>BOND
     1    13    11    1
     2    13    14    1
     3     9    11    2
     4     9     7    1
     5    11    10    1
     6    14    12    1
     7     7     6    2
     8    10    12    1
     9    10     8    2
    10     6     8    1
    11     6     5    1
    12     3     2    1
    13     5     1    1
    14     2     1    1
    15     2     4    2
