@<TRIPOS>MOLECULE
/home/cewinharhar/GITHUB/reincatalyze/data/processed/docking_pred/2023-May-24-1506_sub9_nm5_bs15_s42_ex16_mel10_mts10000_k50_ec02_g099_lra3e-4_lrc3e-3/76d14433275938f70f74ce69856b36729c59e426_ligand_9.pdbqt
 14 15 0 0 0
SMALL
GASTEIGER

@<TRIPOS>ATOM
      1  C          5.3170   -0.0800    1.9900 C.3     1  UNL1        0.0800
      2  C          4.4550    1.1210    1.8080 C.2     1  UNL1        0.1300
      3  C          4.7560    2.1500    0.7770 C.3     1  UNL1        0.0870
      4  O          3.4690    1.2960    2.5070 O.2     1  UNL1       -0.3000
      5  C          6.7870    0.2840    1.9340 C.3     1  UNL1        0.0430
      6  C          7.3870   -0.0620    0.6330 C.2     1  UNL1       -0.0440
      7  C          7.8680    0.9230   -0.2370 C.2     1  UNL1        0.0080
      8  C          7.4850   -1.3820    0.2560 C.2     1  UNL1        0.0540
      9  C          8.4220    0.5390   -1.4450 C.2     1  UNL1        0.0510
     10  C          8.0460   -1.7650   -0.9650 C.2     1  UNL1        0.1660
     11  C          8.5180   -0.7970   -1.8230 C.2     1  UNL1        0.1650
     12  O          8.2530   -2.9910   -1.5610 O.2     1  UNL1       -0.4540
     13  O          9.0120   -1.4550   -2.9390 O.2     1  UNL1       -0.4540
     14  C          8.9460   -2.8520   -2.7750 C.3     1  UNL1        0.4680
@<TRIPOS>BOND
     1    13    14    1
     2    13    11    1
     3    14    12    1
     4    11     9    2
     5    11    10    1
     6    12    10    1
     7     9     7    1
     8    10     8    2
     9     7     6    2
    10     8     6    1
    11     6     5    1
    12     3     2    1
    13     2     1    1
    14     2     4    2
    15     5     1    1
