@<TRIPOS>MOLECULE
/home/cewinharhar/GITHUB/reincatalyze/data/processed/docking_pred/2023-May-24-1506_sub9_nm5_bs15_s42_ex16_mel10_mts10000_k50_ec02_g099_lra3e-4_lrc3e-3/76d14433275938f70f74ce69856b36729c59e426_ligand_9.pdbqt
 14 15 0 0 0
SMALL
GASTEIGER

@<TRIPOS>ATOM
      1  C          6.3570    1.2280    0.8900 C.3     1  UNL1        0.0800
      2  C          5.6660    0.4080    1.9240 C.2     1  UNL1        0.1300
      3  C          6.2870   -0.8200    2.4890 C.3     1  UNL1        0.0870
      4  O          4.5630    0.7230    2.3400 O.2     1  UNL1       -0.3000
      5  C          5.8460    0.9050   -0.5000 C.3     1  UNL1        0.0430
      6  C          6.8120    0.0940   -1.2620 C.2     1  UNL1       -0.0440
      7  C          7.5270    0.6270   -2.3400 C.2     1  UNL1        0.0080
      8  C          7.0250   -1.2200   -0.9130 C.2     1  UNL1        0.0540
      9  C          8.4210   -0.1820   -3.0180 C.2     1  UNL1        0.0510
     10  C          7.9300   -2.0330   -1.6010 C.2     1  UNL1        0.1660
     11  C          8.6340   -1.5100   -2.6620 C.2     1  UNL1        0.1650
     12  O          8.3130   -3.3490   -1.4500 O.2     1  UNL1       -0.4540
     13  O          9.4440   -2.5250   -3.1460 O.2     1  UNL1       -0.4540
     14  C          9.3390   -3.6820   -2.3500 C.3     1  UNL1        0.4680
@<TRIPOS>BOND
     1    13    11    1
     2    13    14    1
     3     9    11    2
     4     9     7    1
     5    11    10    1
     6    14    12    1
     7     7     6    2
     8    10    12    1
     9    10     8    2
    10     6     8    1
    11     6     5    1
    12     5     1    1
    13     1     2    1
    14     2     4    2
    15     2     3    1
