MODEL 1
REMARK VINA RESULT:      -7.7      0.000      0.000
REMARK SMILES CC(=O)CCc1ccc2c(c1)OCO2
REMARK SMILES IDX 4 1 2 2 1 3 3 4 5 5 6 6 7 7 11 8 8 9 10 10 9 11 12 12 14 13
REMARK SMILES IDX 13 14
REMARK H PARENT
REMARK Flexibility Score: inf
ROOT
ATOM      1  C   UNL     1       5.503   1.935   1.262  1.00  0.00     0.080 C 
ENDROOT
BRANCH   1   2
ATOM      2  C   UNL     1       5.066   0.717   1.999  1.00  0.00     0.130 C 
ATOM      3  C   UNL     1       5.956  -0.464   2.153  1.00  0.00     0.087 C 
ATOM      4  O   UNL     1       3.956   0.654   2.502  1.00  0.00    -0.300 OA
ENDBRANCH   1   2
BRANCH   1   5
ATOM      5  C   UNL     1       5.382   1.745  -0.237  1.00  0.00     0.043 C 
BRANCH   5   6
ATOM      6  C   UNL     1       6.552   1.043  -0.795  1.00  0.00    -0.044 A 
ATOM      7  C   UNL     1       7.858   1.476  -0.539  1.00  0.00     0.008 A 
ATOM      8  C   UNL     1       6.367  -0.069  -1.585  1.00  0.00     0.054 A 
ATOM      9  C   UNL     1       8.917   0.777  -1.088  1.00  0.00     0.051 A 
ATOM     10  C   UNL     1       7.442  -0.772  -2.138  1.00  0.00     0.166 A 
ATOM     11  C   UNL     1       8.727  -0.346  -1.888  1.00  0.00     0.165 A 
ATOM     12  O   UNL     1       7.519  -1.888  -2.945  1.00  0.00    -0.454 OA
ATOM     13  O   UNL     1       9.575  -1.218  -2.552  1.00  0.00    -0.454 OA
ATOM     14  C   UNL     1       8.855  -2.263  -3.160  1.00  0.00     0.468 C 
ENDBRANCH   5   6
ENDBRANCH   1   5
TORSDOF 3
ENDMDL
MODEL 2
REMARK VINA RESULT:      -7.4      1.948      2.428
REMARK SMILES CC(=O)CCc1ccc2c(c1)OCO2
REMARK SMILES IDX 4 1 2 2 1 3 3 4 5 5 6 6 7 7 11 8 8 9 10 10 9 11 12 12 14 13
REMARK SMILES IDX 13 14
REMARK H PARENT
REMARK Flexibility Score: inf
ROOT
ATOM      1  C   UNL     1       5.718   1.271  -0.313  1.00  0.00     0.080 C 
ENDROOT
BRANCH   1   2
ATOM      2  C   UNL     1       5.178   1.209   1.074  1.00  0.00     0.130 C 
ATOM      3  C   UNL     1       5.363   0.007   1.931  1.00  0.00     0.087 C 
ATOM      4  O   UNL     1       4.564   2.150   1.550  1.00  0.00    -0.300 OA
ENDBRANCH   1   2
BRANCH   1   5
ATOM      5  C   UNL     1       7.222   1.080  -0.328  1.00  0.00     0.043 C 
BRANCH   5   6
ATOM      6  C   UNL     1       7.601  -0.222  -0.905  1.00  0.00    -0.044 A 
ATOM      7  C   UNL     1       7.668  -0.418  -2.289  1.00  0.00     0.008 A 
ATOM      8  C   UNL     1       7.902  -1.276  -0.072  1.00  0.00     0.054 A 
ATOM      9  C   UNL     1       8.031  -1.662  -2.773  1.00  0.00     0.051 A 
ATOM     10  C   UNL     1       8.269  -2.531  -0.567  1.00  0.00     0.166 A 
ATOM     11  C   UNL     1       8.333  -2.725  -1.929  1.00  0.00     0.165 A 
ATOM     12  O   UNL     1       8.609  -3.719   0.044  1.00  0.00    -0.454 OA
ATOM     13  O   UNL     1       8.717  -4.042  -2.128  1.00  0.00    -0.454 OA
ATOM     14  C   UNL     1       8.990  -4.683  -0.904  1.00  0.00     0.468 C 
ENDBRANCH   5   6
ENDBRANCH   1   5
TORSDOF 3
ENDMDL
MODEL 3
REMARK VINA RESULT:      -7.2      2.102      2.637
REMARK SMILES CC(=O)CCc1ccc2c(c1)OCO2
REMARK SMILES IDX 4 1 2 2 1 3 3 4 5 5 6 6 7 7 11 8 8 9 10 10 9 11 12 12 14 13
REMARK SMILES IDX 13 14
REMARK H PARENT
REMARK Flexibility Score: inf
ROOT
ATOM      1  C   UNL     1       5.574  -0.008   1.885  1.00  0.00     0.080 C 
ENDROOT
BRANCH   1   2
ATOM      2  C   UNL     1       4.706   1.171   1.612  1.00  0.00     0.130 C 
ATOM      3  C   UNL     1       4.990   2.106   0.490  1.00  0.00     0.087 C 
ATOM      4  O   UNL     1       3.730   1.405   2.306  1.00  0.00    -0.300 OA
ENDBRANCH   1   2
BRANCH   1   5
ATOM      5  C   UNL     1       6.996   0.235   1.419  1.00  0.00     0.043 C 
BRANCH   5   6
ATOM      6  C   UNL     1       7.405  -0.731   0.385  1.00  0.00    -0.044 A 
ATOM      7  C   UNL     1       7.327  -0.423  -0.978  1.00  0.00     0.008 A 
ATOM      8  C   UNL     1       7.879  -1.968   0.756  1.00  0.00     0.054 A 
ATOM      9  C   UNL     1       7.725  -1.369  -1.905  1.00  0.00     0.051 A 
ATOM     10  C   UNL     1       8.282  -2.922  -0.184  1.00  0.00     0.166 A 
ATOM     11  C   UNL     1       8.204  -2.620  -1.525  1.00  0.00     0.165 A 
ATOM     12  O   UNL     1       8.780  -4.202  -0.070  1.00  0.00    -0.454 OA
ATOM     13  O   UNL     1       8.661  -3.732  -2.214  1.00  0.00    -0.454 OA
ATOM     14  C   UNL     1       9.122  -4.724  -1.328  1.00  0.00     0.468 C 
ENDBRANCH   5   6
ENDBRANCH   1   5
TORSDOF 3
ENDMDL
MODEL 4
REMARK VINA RESULT:      -7.1      1.251      1.464
REMARK SMILES CC(=O)CCc1ccc2c(c1)OCO2
REMARK SMILES IDX 4 1 2 2 1 3 3 4 5 5 6 6 7 7 11 8 8 9 10 10 9 11 12 12 14 13
REMARK SMILES IDX 13 14
REMARK H PARENT
REMARK Flexibility Score: inf
ROOT
ATOM      1  C   UNL     1       6.357   1.228   0.890  1.00  0.00     0.080 C 
ENDROOT
BRANCH   1   2
ATOM      2  C   UNL     1       5.666   0.408   1.924  1.00  0.00     0.130 C 
ATOM      3  C   UNL     1       6.287  -0.820   2.489  1.00  0.00     0.087 C 
ATOM      4  O   UNL     1       4.563   0.723   2.340  1.00  0.00    -0.300 OA
ENDBRANCH   1   2
BRANCH   1   5
ATOM      5  C   UNL     1       5.846   0.905  -0.500  1.00  0.00     0.043 C 
BRANCH   5   6
ATOM      6  C   UNL     1       6.812   0.094  -1.262  1.00  0.00    -0.044 A 
ATOM      7  C   UNL     1       7.527   0.627  -2.340  1.00  0.00     0.008 A 
ATOM      8  C   UNL     1       7.025  -1.220  -0.913  1.00  0.00     0.054 A 
ATOM      9  C   UNL     1       8.421  -0.182  -3.018  1.00  0.00     0.051 A 
ATOM     10  C   UNL     1       7.930  -2.033  -1.601  1.00  0.00     0.166 A 
ATOM     11  C   UNL     1       8.634  -1.510  -2.662  1.00  0.00     0.165 A 
ATOM     12  O   UNL     1       8.313  -3.349  -1.450  1.00  0.00    -0.454 OA
ATOM     13  O   UNL     1       9.444  -2.525  -3.146  1.00  0.00    -0.454 OA
ATOM     14  C   UNL     1       9.339  -3.682  -2.350  1.00  0.00     0.468 C 
ENDBRANCH   5   6
ENDBRANCH   1   5
TORSDOF 3
ENDMDL
MODEL 5
REMARK VINA RESULT:      -6.8      1.268      1.766
REMARK SMILES CC(=O)CCc1ccc2c(c1)OCO2
REMARK SMILES IDX 4 1 2 2 1 3 3 4 5 5 6 6 7 7 11 8 8 9 10 10 9 11 12 12 14 13
REMARK SMILES IDX 13 14
REMARK H PARENT
REMARK Flexibility Score: inf
ROOT
ATOM      1  C   UNL     1       5.317  -0.080   1.990  1.00  0.00     0.080 C 
ENDROOT
BRANCH   1   2
ATOM      2  C   UNL     1       4.455   1.121   1.808  1.00  0.00     0.130 C 
ATOM      3  C   UNL     1       4.756   2.150   0.777  1.00  0.00     0.087 C 
ATOM      4  O   UNL     1       3.469   1.296   2.507  1.00  0.00    -0.300 OA
ENDBRANCH   1   2
BRANCH   1   5
ATOM      5  C   UNL     1       6.787   0.284   1.934  1.00  0.00     0.043 C 
BRANCH   5   6
ATOM      6  C   UNL     1       7.387  -0.062   0.633  1.00  0.00    -0.044 A 
ATOM      7  C   UNL     1       7.868   0.923  -0.237  1.00  0.00     0.008 A 
ATOM      8  C   UNL     1       7.485  -1.382   0.256  1.00  0.00     0.054 A 
ATOM      9  C   UNL     1       8.422   0.539  -1.445  1.00  0.00     0.051 A 
ATOM     10  C   UNL     1       8.046  -1.765  -0.965  1.00  0.00     0.166 A 
ATOM     11  C   UNL     1       8.518  -0.797  -1.823  1.00  0.00     0.165 A 
ATOM     12  O   UNL     1       8.253  -2.991  -1.561  1.00  0.00    -0.454 OA
ATOM     13  O   UNL     1       9.012  -1.455  -2.939  1.00  0.00    -0.454 OA
ATOM     14  C   UNL     1       8.946  -2.852  -2.775  1.00  0.00     0.468 C 
ENDBRANCH   5   6
ENDBRANCH   1   5
TORSDOF 3
ENDMDL
