MODEL 1
REMARK VINA RESULT:      -7.7      0.000      0.000
REMARK SMILES CC(=O)CCc1ccc2c(c1)OCO2
REMARK SMILES IDX 4 1 2 2 1 3 3 4 5 5 6 6 7 7 11 8 8 9 10 10 9 11 12 12 14 13
REMARK SMILES IDX 13 14
REMARK H PARENT
REMARK Flexibility Score: inf
ROOT
ATOM      1  C   UNL     1       5.507   1.909   1.249  1.00  0.00     0.080 C 
ENDROOT
BRANCH   1   2
ATOM      2  C   UNL     1       5.051   0.704   1.996  1.00  0.00     0.130 C 
ATOM      3  C   UNL     1       5.910  -0.503   2.131  1.00  0.00     0.087 C 
ATOM      4  O   UNL     1       3.950   0.672   2.522  1.00  0.00    -0.300 OA
ENDBRANCH   1   2
BRANCH   1   5
ATOM      5  C   UNL     1       5.382   1.709  -0.249  1.00  0.00     0.043 C 
BRANCH   5   6
ATOM      6  C   UNL     1       6.557   1.017  -0.807  1.00  0.00    -0.044 A 
ATOM      7  C   UNL     1       7.859   1.468  -0.561  1.00  0.00     0.008 A 
ATOM      8  C   UNL     1       6.382  -0.102  -1.589  1.00  0.00     0.054 A 
ATOM      9  C   UNL     1       8.924   0.777  -1.111  1.00  0.00     0.051 A 
ATOM     10  C   UNL     1       7.462  -0.797  -2.143  1.00  0.00     0.166 A 
ATOM     11  C   UNL     1       8.743  -0.353  -1.902  1.00  0.00     0.165 A 
ATOM     12  O   UNL     1       7.549  -1.917  -2.942  1.00  0.00    -0.454 OA
ATOM     13  O   UNL     1       9.599  -1.220  -2.564  1.00  0.00    -0.454 OA
ATOM     14  C   UNL     1       8.888  -2.278  -3.161  1.00  0.00     0.468 C 
ENDBRANCH   5   6
ENDBRANCH   1   5
TORSDOF 3
ENDMDL
MODEL 2
REMARK VINA RESULT:      -7.5      1.924      2.386
REMARK SMILES CC(=O)CCc1ccc2c(c1)OCO2
REMARK SMILES IDX 4 1 2 2 1 3 3 4 5 5 6 6 7 7 11 8 8 9 10 10 9 11 12 12 14 13
REMARK SMILES IDX 13 14
REMARK H PARENT
REMARK Flexibility Score: inf
ROOT
ATOM      1  C   UNL     1       5.734   1.327  -0.286  1.00  0.00     0.080 C 
ENDROOT
BRANCH   1   2
ATOM      2  C   UNL     1       5.113   1.253   1.066  1.00  0.00     0.130 C 
ATOM      3  C   UNL     1       5.343   0.093   1.968  1.00  0.00     0.087 C 
ATOM      4  O   UNL     1       4.392   2.149   1.475  1.00  0.00    -0.300 OA
ENDBRANCH   1   2
BRANCH   1   5
ATOM      5  C   UNL     1       7.228   1.086  -0.220  1.00  0.00     0.043 C 
BRANCH   5   6
ATOM      6  C   UNL     1       7.602  -0.200  -0.836  1.00  0.00    -0.044 A 
ATOM      7  C   UNL     1       7.661  -0.357  -2.225  1.00  0.00     0.008 A 
ATOM      8  C   UNL     1       7.904  -1.278  -0.035  1.00  0.00     0.054 A 
ATOM      9  C   UNL     1       8.019  -1.587  -2.747  1.00  0.00     0.051 A 
ATOM     10  C   UNL     1       8.266  -2.519  -0.567  1.00  0.00     0.166 A 
ATOM     11  C   UNL     1       8.323  -2.675  -1.934  1.00  0.00     0.165 A 
ATOM     12  O   UNL     1       8.606  -3.725   0.008  1.00  0.00    -0.454 OA
ATOM     13  O   UNL     1       8.702  -3.987  -2.172  1.00  0.00    -0.454 OA
ATOM     14  C   UNL     1       8.980  -4.662  -0.969  1.00  0.00     0.468 C 
ENDBRANCH   5   6
ENDBRANCH   1   5
TORSDOF 3
ENDMDL
MODEL 3
REMARK VINA RESULT:      -7.2      2.058      2.621
REMARK SMILES CC(=O)CCc1ccc2c(c1)OCO2
REMARK SMILES IDX 4 1 2 2 1 3 3 4 5 5 6 6 7 7 11 8 8 9 10 10 9 11 12 12 14 13
REMARK SMILES IDX 13 14
REMARK H PARENT
REMARK Flexibility Score: inf
ROOT
ATOM      1  C   UNL     1       5.439  -0.043   1.976  1.00  0.00     0.080 C 
ENDROOT
BRANCH   1   2
ATOM      2  C   UNL     1       4.580   1.148   1.727  1.00  0.00     0.130 C 
ATOM      3  C   UNL     1       4.884   2.117   0.640  1.00  0.00     0.087 C 
ATOM      4  O   UNL     1       3.595   1.365   2.414  1.00  0.00    -0.300 OA
ENDBRANCH   1   2
BRANCH   1   5
ATOM      5  C   UNL     1       6.870   0.211   1.545  1.00  0.00     0.043 C 
BRANCH   5   6
ATOM      6  C   UNL     1       7.298  -0.727   0.492  1.00  0.00    -0.044 A 
ATOM      7  C   UNL     1       7.181  -0.408  -0.865  1.00  0.00     0.008 A 
ATOM      8  C   UNL     1       7.831  -1.947   0.841  1.00  0.00     0.054 A 
ATOM      9  C   UNL     1       7.600  -1.327  -1.810  1.00  0.00     0.051 A 
ATOM     10  C   UNL     1       8.254  -2.873  -0.118  1.00  0.00     0.166 A 
ATOM     11  C   UNL     1       8.138  -2.561  -1.454  1.00  0.00     0.165 A 
ATOM     12  O   UNL     1       8.807  -4.133  -0.027  1.00  0.00    -0.454 OA
ATOM     13  O   UNL     1       8.627  -3.646  -2.163  1.00  0.00    -0.454 OA
ATOM     14  C   UNL     1       9.146  -4.627  -1.298  1.00  0.00     0.468 C 
ENDBRANCH   5   6
ENDBRANCH   1   5
TORSDOF 3
ENDMDL
MODEL 4
REMARK VINA RESULT:      -7.1      1.251      1.460
REMARK SMILES CC(=O)CCc1ccc2c(c1)OCO2
REMARK SMILES IDX 4 1 2 2 1 3 3 4 5 5 6 6 7 7 11 8 8 9 10 10 9 11 12 12 14 13
REMARK SMILES IDX 13 14
REMARK H PARENT
REMARK Flexibility Score: inf
ROOT
ATOM      1  C   UNL     1       6.377   1.191   0.932  1.00  0.00     0.080 C 
ENDROOT
BRANCH   1   2
ATOM      2  C   UNL     1       5.658   0.370   1.946  1.00  0.00     0.130 C 
ATOM      3  C   UNL     1       6.262  -0.858   2.527  1.00  0.00     0.087 C 
ATOM      4  O   UNL     1       4.543   0.685   2.330  1.00  0.00    -0.300 OA
ENDBRANCH   1   2
BRANCH   1   5
ATOM      5  C   UNL     1       5.864   0.913  -0.467  1.00  0.00     0.043 C 
BRANCH   5   6
ATOM      6  C   UNL     1       6.812   0.096  -1.244  1.00  0.00    -0.044 A 
ATOM      7  C   UNL     1       7.491   0.616  -2.352  1.00  0.00     0.008 A 
ATOM      8  C   UNL     1       7.046  -1.211  -0.880  1.00  0.00     0.054 A 
ATOM      9  C   UNL     1       8.370  -0.198  -3.043  1.00  0.00     0.051 A 
ATOM     10  C   UNL     1       7.936  -2.029  -1.582  1.00  0.00     0.166 A 
ATOM     11  C   UNL     1       8.603  -1.518  -2.673  1.00  0.00     0.165 A 
ATOM     12  O   UNL     1       8.333  -3.340  -1.421  1.00  0.00    -0.454 OA
ATOM     13  O   UNL     1       9.406  -2.536  -3.164  1.00  0.00    -0.454 OA
ATOM     14  C   UNL     1       9.334  -3.680  -2.347  1.00  0.00     0.468 C 
ENDBRANCH   5   6
ENDBRANCH   1   5
TORSDOF 3
ENDMDL
MODEL 5
REMARK VINA RESULT:      -6.8      1.964      2.738
REMARK SMILES CC(=O)CCc1ccc2c(c1)OCO2
REMARK SMILES IDX 4 1 2 2 1 3 3 4 5 5 6 6 7 7 11 8 8 9 10 10 9 11 12 12 14 13
REMARK SMILES IDX 13 14
REMARK H PARENT
REMARK Flexibility Score: inf
ROOT
ATOM      1  C   UNL     1       6.746   0.827   0.697  1.00  0.00     0.080 C 
ENDROOT
BRANCH   1   2
ATOM      2  C   UNL     1       5.436   1.536   0.676  1.00  0.00     0.130 C 
ATOM      3  C   UNL     1       4.901   2.150  -0.569  1.00  0.00     0.087 C 
ATOM      4  O   UNL     1       4.760   1.635   1.687  1.00  0.00    -0.300 OA
ENDBRANCH   1   2
BRANCH   1   5
ATOM      5  C   UNL     1       7.452   0.934  -0.640  1.00  0.00     0.043 C 
BRANCH   5   6
ATOM      6  C   UNL     1       7.856  -0.387  -1.152  1.00  0.00    -0.044 A 
ATOM      7  C   UNL     1       8.111  -0.599  -2.512  1.00  0.00     0.008 A 
ATOM      8  C   UNL     1       7.993  -1.444  -0.281  1.00  0.00     0.054 A 
ATOM      9  C   UNL     1       8.488  -1.861  -2.935  1.00  0.00     0.051 A 
ATOM     10  C   UNL     1       8.375  -2.717  -0.713  1.00  0.00     0.166 A 
ATOM     11  C   UNL     1       8.624  -2.928  -2.051  1.00  0.00     0.165 A 
ATOM     12  O   UNL     1       8.576  -3.912  -0.055  1.00  0.00    -0.454 OA
ATOM     13  O   UNL     1       8.978  -4.261  -2.188  1.00  0.00    -0.454 OA
ATOM     14  C   UNL     1       9.048  -4.899  -0.936  1.00  0.00     0.468 C 
ENDBRANCH   5   6
ENDBRANCH   1   5
TORSDOF 3
ENDMDL
