@<TRIPOS>MOLECULE
/home/cewinharhar/GITHUB/reincatalyze/data/processed/docking_pred/2023-May-24-1506_sub9_nm5_bs15_s42_ex16_mel10_mts10000_k50_ec02_g099_lra3e-4_lrc3e-3/777751631f294be45381376aa4be6161cfc72981_ligand_9.pdbqt
 14 15 0 0 0
SMALL
GASTEIGER

@<TRIPOS>ATOM
      1  C          5.4390   -0.0430    1.9760 C.3     1  UNL1        0.0800
      2  C          4.5800    1.1480    1.7270 C.2     1  UNL1        0.1300
      3  C          4.8840    2.1170    0.6400 C.3     1  UNL1        0.0870
      4  O          3.5950    1.3650    2.4140 O.2     1  UNL1       -0.3000
      5  C          6.8700    0.2110    1.5450 C.3     1  UNL1        0.0430
      6  C          7.2980   -0.7270    0.4920 C.2     1  UNL1       -0.0440
      7  C          7.1810   -0.4080   -0.8650 C.2     1  UNL1        0.0080
      8  C          7.8310   -1.9470    0.8410 C.2     1  UNL1        0.0540
      9  C          7.6000   -1.3270   -1.8100 C.2     1  UNL1        0.0510
     10  C          8.2540   -2.8730   -0.1180 C.2     1  UNL1        0.1660
     11  C          8.1380   -2.5610   -1.4540 C.2     1  UNL1        0.1650
     12  O          8.8070   -4.1330   -0.0270 O.2     1  UNL1       -0.4540
     13  O          8.6270   -3.6460   -2.1630 O.2     1  UNL1       -0.4540
     14  C          9.1460   -4.6270   -1.2980 C.3     1  UNL1        0.4680
@<TRIPOS>BOND
     1    13    11    1
     2    13    14    1
     3     9    11    2
     4     9     7    1
     5    11    10    1
     6    14    12    1
     7     7     6    2
     8    10    12    1
     9    10     8    2
    10     6     8    1
    11     6     5    1
    12     3     2    1
    13     5     1    1
    14     2     1    1
    15     2     4    2
