@<TRIPOS>MOLECULE
/home/cewinharhar/GITHUB/reincatalyze/data/processed/docking_pred/2023-May-24-1506_sub9_nm5_bs15_s42_ex16_mel10_mts10000_k50_ec02_g099_lra3e-4_lrc3e-3/79094ef31ed65e340e791eab6f4e997ef8bc8970_ligand_9.pdbqt
 14 15 0 0 0
SMALL
GASTEIGER

@<TRIPOS>ATOM
      1  C          5.5630   -0.0050    1.9440 C.3     1  UNL1        0.0800
      2  C          4.6740    1.1490    1.6300 C.2     1  UNL1        0.1300
      3  C          4.9870    2.0990    0.5290 C.3     1  UNL1        0.0870
      4  O          3.6560    1.3490    2.2730 O.2     1  UNL1       -0.3000
      5  C          6.9770    0.2430    1.4590 C.3     1  UNL1        0.0430
      6  C          7.3780   -0.7280    0.4250 C.2     1  UNL1       -0.0440
      7  C          7.2570   -0.4380   -0.9390 C.2     1  UNL1        0.0080
      8  C          7.8870   -1.9510    0.7980 C.2     1  UNL1        0.0540
      9  C          7.6500   -1.3870   -1.8650 C.2     1  UNL1        0.0510
     10  C          8.2840   -2.9070   -0.1420 C.2     1  UNL1        0.1660
     11  C          8.1640   -2.6230   -1.4840 C.2     1  UNL1        0.1650
     12  O          8.8110   -4.1760   -0.0270 O.2     1  UNL1       -0.4540
     13  O          8.6250   -3.7340   -2.1720 O.2     1  UNL1       -0.4540
     14  C          9.1290   -4.7070   -1.2880 C.3     1  UNL1        0.4680
@<TRIPOS>BOND
     1    13    11    1
     2    13    14    1
     3     9    11    2
     4     9     7    1
     5    11    10    1
     6    14    12    1
     7     7     6    2
     8    10    12    1
     9    10     8    2
    10     6     8    1
    11     6     5    1
    12     3     2    1
    13     5     1    1
    14     2     1    1
    15     2     4    2
