MODEL 1
REMARK VINA RESULT:      -7.7      0.000      0.000
REMARK SMILES CC(=O)CCc1ccc2c(c1)OCO2
REMARK SMILES IDX 4 1 2 2 1 3 3 4 5 5 6 6 7 7 11 8 8 9 10 10 9 11 12 12 14 13
REMARK SMILES IDX 13 14
REMARK H PARENT
REMARK Flexibility Score: inf
ROOT
ATOM      1  C   UNL     1       5.525   1.895   1.278  1.00  0.00     0.080 C 
ENDROOT
BRANCH   1   2
ATOM      2  C   UNL     1       5.074   0.676   2.006  1.00  0.00     0.130 C 
ATOM      3  C   UNL     1       5.951  -0.517   2.151  1.00  0.00     0.087 C 
ATOM      4  O   UNL     1       3.962   0.621   2.507  1.00  0.00    -0.300 OA
ENDBRANCH   1   2
BRANCH   1   5
ATOM      5  C   UNL     1       5.398   1.719  -0.222  1.00  0.00     0.043 C 
BRANCH   5   6
ATOM      6  C   UNL     1       6.564   1.020  -0.791  1.00  0.00    -0.044 A 
ATOM      7  C   UNL     1       7.871   1.462  -0.553  1.00  0.00     0.008 A 
ATOM      8  C   UNL     1       6.376  -0.095  -1.575  1.00  0.00     0.054 A 
ATOM      9  C   UNL     1       8.927   0.765  -1.113  1.00  0.00     0.051 A 
ATOM     10  C   UNL     1       7.447  -0.796  -2.138  1.00  0.00     0.166 A 
ATOM     11  C   UNL     1       8.733  -0.362  -1.905  1.00  0.00     0.165 A 
ATOM     12  O   UNL     1       7.519  -1.914  -2.941  1.00  0.00    -0.454 OA
ATOM     13  O   UNL     1       9.577  -1.232  -2.576  1.00  0.00    -0.454 OA
ATOM     14  C   UNL     1       8.855  -2.284  -3.171  1.00  0.00     0.468 C 
ENDBRANCH   5   6
ENDBRANCH   1   5
TORSDOF 3
ENDMDL
MODEL 2
REMARK VINA RESULT:      -7.5      1.896      2.354
REMARK SMILES CC(=O)CCc1ccc2c(c1)OCO2
REMARK SMILES IDX 4 1 2 2 1 3 3 4 5 5 6 6 7 7 11 8 8 9 10 10 9 11 12 12 14 13
REMARK SMILES IDX 13 14
REMARK H PARENT
REMARK Flexibility Score: inf
ROOT
ATOM      1  C   UNL     1       5.716   1.388  -0.310  1.00  0.00     0.080 C 
ENDROOT
BRANCH   1   2
ATOM      2  C   UNL     1       5.136   1.291   1.058  1.00  0.00     0.130 C 
ATOM      3  C   UNL     1       5.456   0.156   1.964  1.00  0.00     0.087 C 
ATOM      4  O   UNL     1       4.374   2.148   1.478  1.00  0.00    -0.300 OA
ENDBRANCH   1   2
BRANCH   1   5
ATOM      5  C   UNL     1       7.216   1.167  -0.289  1.00  0.00     0.043 C 
BRANCH   5   6
ATOM      6  C   UNL     1       7.586  -0.128  -0.885  1.00  0.00    -0.044 A 
ATOM      7  C   UNL     1       7.670  -0.300  -2.272  1.00  0.00     0.008 A 
ATOM      8  C   UNL     1       7.862  -1.202  -0.069  1.00  0.00     0.054 A 
ATOM      9  C   UNL     1       8.023  -1.539  -2.775  1.00  0.00     0.051 A 
ATOM     10  C   UNL     1       8.219  -2.452  -0.582  1.00  0.00     0.166 A 
ATOM     11  C   UNL     1       8.300  -2.622  -1.946  1.00  0.00     0.165 A 
ATOM     12  O   UNL     1       8.535  -3.656   0.011  1.00  0.00    -0.454 OA
ATOM     13  O   UNL     1       8.669  -3.940  -2.165  1.00  0.00    -0.454 OA
ATOM     14  C   UNL     1       8.917  -4.606  -0.950  1.00  0.00     0.468 C 
ENDBRANCH   5   6
ENDBRANCH   1   5
TORSDOF 3
ENDMDL
MODEL 3
REMARK VINA RESULT:      -7.2      2.097      2.639
REMARK SMILES CC(=O)CCc1ccc2c(c1)OCO2
REMARK SMILES IDX 4 1 2 2 1 3 3 4 5 5 6 6 7 7 11 8 8 9 10 10 9 11 12 12 14 13
REMARK SMILES IDX 13 14
REMARK H PARENT
REMARK Flexibility Score: inf
ROOT
ATOM      1  C   UNL     1       5.563  -0.005   1.944  1.00  0.00     0.080 C 
ENDROOT
BRANCH   1   2
ATOM      2  C   UNL     1       4.674   1.149   1.630  1.00  0.00     0.130 C 
ATOM      3  C   UNL     1       4.987   2.099   0.529  1.00  0.00     0.087 C 
ATOM      4  O   UNL     1       3.656   1.349   2.273  1.00  0.00    -0.300 OA
ENDBRANCH   1   2
BRANCH   1   5
ATOM      5  C   UNL     1       6.977   0.243   1.459  1.00  0.00     0.043 C 
BRANCH   5   6
ATOM      6  C   UNL     1       7.378  -0.728   0.425  1.00  0.00    -0.044 A 
ATOM      7  C   UNL     1       7.257  -0.438  -0.939  1.00  0.00     0.008 A 
ATOM      8  C   UNL     1       7.887  -1.951   0.798  1.00  0.00     0.054 A 
ATOM      9  C   UNL     1       7.650  -1.387  -1.865  1.00  0.00     0.051 A 
ATOM     10  C   UNL     1       8.284  -2.907  -0.142  1.00  0.00     0.166 A 
ATOM     11  C   UNL     1       8.164  -2.623  -1.484  1.00  0.00     0.165 A 
ATOM     12  O   UNL     1       8.811  -4.176  -0.027  1.00  0.00    -0.454 OA
ATOM     13  O   UNL     1       8.625  -3.734  -2.172  1.00  0.00    -0.454 OA
ATOM     14  C   UNL     1       9.129  -4.707  -1.288  1.00  0.00     0.468 C 
ENDBRANCH   5   6
ENDBRANCH   1   5
TORSDOF 3
ENDMDL
MODEL 4
REMARK VINA RESULT:      -7.1      1.263      1.477
REMARK SMILES CC(=O)CCc1ccc2c(c1)OCO2
REMARK SMILES IDX 4 1 2 2 1 3 3 4 5 5 6 6 7 7 11 8 8 9 10 10 9 11 12 12 14 13
REMARK SMILES IDX 13 14
REMARK H PARENT
REMARK Flexibility Score: inf
ROOT
ATOM      1  C   UNL     1       6.392   1.169   0.963  1.00  0.00     0.080 C 
ENDROOT
BRANCH   1   2
ATOM      2  C   UNL     1       5.645   0.343   1.952  1.00  0.00     0.130 C 
ATOM      3  C   UNL     1       6.234  -0.886   2.547  1.00  0.00     0.087 C 
ATOM      4  O   UNL     1       4.518   0.654   2.304  1.00  0.00    -0.300 OA
ENDBRANCH   1   2
BRANCH   1   5
ATOM      5  C   UNL     1       5.893   0.926  -0.447  1.00  0.00     0.043 C 
BRANCH   5   6
ATOM      6  C   UNL     1       6.830   0.093  -1.223  1.00  0.00    -0.044 A 
ATOM      7  C   UNL     1       7.494   0.592  -2.349  1.00  0.00     0.008 A 
ATOM      8  C   UNL     1       7.066  -1.207  -0.838  1.00  0.00     0.054 A 
ATOM      9  C   UNL     1       8.363  -0.235  -3.037  1.00  0.00     0.051 A 
ATOM     10  C   UNL     1       7.946  -2.039  -1.536  1.00  0.00     0.166 A 
ATOM     11  C   UNL     1       8.599  -1.549  -2.645  1.00  0.00     0.165 A 
ATOM     12  O   UNL     1       8.344  -3.347  -1.358  1.00  0.00    -0.454 OA
ATOM     13  O   UNL     1       9.394  -2.577  -3.129  1.00  0.00    -0.454 OA
ATOM     14  C   UNL     1       9.331  -3.706  -2.290  1.00  0.00     0.468 C 
ENDBRANCH   5   6
ENDBRANCH   1   5
TORSDOF 3
ENDMDL
MODEL 5
REMARK VINA RESULT:      -7.0      1.970      2.552
REMARK SMILES CC(=O)CCc1ccc2c(c1)OCO2
REMARK SMILES IDX 4 1 2 2 1 3 3 4 5 5 6 6 7 7 11 8 8 9 10 10 9 11 12 12 14 13
REMARK SMILES IDX 13 14
REMARK H PARENT
REMARK Flexibility Score: inf
ROOT
ATOM      1  C   UNL     1       6.863   0.721   1.155  1.00  0.00     0.080 C 
ENDROOT
BRANCH   1   2
ATOM      2  C   UNL     1       5.454   1.131   1.416  1.00  0.00     0.130 C 
ATOM      3  C   UNL     1       4.769   2.148   0.575  1.00  0.00     0.087 C 
ATOM      4  O   UNL     1       4.819   0.640   2.335  1.00  0.00    -0.300 OA
ENDBRANCH   1   2
BRANCH   1   5
ATOM      5  C   UNL     1       7.225   0.896  -0.306  1.00  0.00     0.043 C 
BRANCH   5   6
ATOM      6  C   UNL     1       7.680  -0.369  -0.911  1.00  0.00    -0.044 A 
ATOM      7  C   UNL     1       7.919  -0.480  -2.286  1.00  0.00     0.008 A 
ATOM      8  C   UNL     1       7.879  -1.473  -0.114  1.00  0.00     0.054 A 
ATOM      9  C   UNL     1       8.345  -1.692  -2.797  1.00  0.00     0.051 A 
ATOM     10  C   UNL     1       8.311  -2.697  -0.636  1.00  0.00     0.166 A 
ATOM     11  C   UNL     1       8.546  -2.807  -1.989  1.00  0.00     0.165 A 
ATOM     12  O   UNL     1       8.578  -3.921  -0.062  1.00  0.00    -0.454 OA
ATOM     13  O   UNL     1       8.957  -4.110  -2.219  1.00  0.00    -0.454 OA
ATOM     14  C   UNL     1       9.079  -4.825  -1.013  1.00  0.00     0.468 C 
ENDBRANCH   5   6
ENDBRANCH   1   5
TORSDOF 3
ENDMDL
