@<TRIPOS>MOLECULE
/home/cewinharhar/GITHUB/reincatalyze/data/processed/docking_pred/2023-May-24-1506_sub9_nm5_bs15_s42_ex16_mel10_mts10000_k50_ec02_g099_lra3e-4_lrc3e-3/79495f175fd15f32955b26bb978cae7af324a937_ligand_9.pdbqt
 14 15 0 0 0
SMALL
GASTEIGER

@<TRIPOS>ATOM
      1  C          5.3850   -0.0910    2.0130 C.3     1  UNL1        0.0800
      2  C          4.5530    1.1200    1.7670 C.2     1  UNL1        0.1300
      3  C          4.9130    2.1170    0.7240 C.3     1  UNL1        0.0870
      4  O          3.5430    1.3290    2.4200 O.2     1  UNL1       -0.3000
      5  C          6.8310    0.1470    1.6230 C.3     1  UNL1        0.0430
      6  C          7.2650   -0.7640    0.5490 C.2     1  UNL1       -0.0440
      7  C          7.1330   -0.4210   -0.8010 C.2     1  UNL1        0.0080
      8  C          7.8160   -1.9830    0.8710 C.2     1  UNL1        0.0540
      9  C          7.5580   -1.3160   -1.7660 C.2     1  UNL1        0.0510
     10  C          8.2460   -2.8850   -0.1080 C.2     1  UNL1        0.1660
     11  C          8.1150   -2.5480   -1.4370 C.2     1  UNL1        0.1650
     12  O          8.8170   -4.1380   -0.0460 O.2     1  UNL1       -0.4540
     13  O          8.6150   -3.6130   -2.1710 O.2     1  UNL1       -0.4540
     14  C          9.1530   -4.6030   -1.3270 C.3     1  UNL1        0.4680
@<TRIPOS>BOND
     1    13    11    1
     2    13    14    1
     3     9    11    2
     4     9     7    1
     5    11    10    1
     6    14    12    1
     7     7     6    2
     8    10    12    1
     9    10     8    2
    10     6     8    1
    11     6     5    1
    12     3     2    1
    13     5     1    1
    14     2     1    1
    15     2     4    2
