@<TRIPOS>MOLECULE
/home/cewinharhar/GITHUB/reincatalyze/data/processed/docking_pred/2023-May-24-1506_sub9_nm5_bs15_s42_ex16_mel10_mts10000_k50_ec02_g099_lra3e-4_lrc3e-3/7ac8f9624e71b352d93dccd4dc48cb56e96c53c0_ligand_9.pdbqt
 14 15 0 0 0
SMALL
GASTEIGER

@<TRIPOS>ATOM
      1  C          5.4270   -0.0200    2.0150 C.3     1  UNL1        0.0800
      2  C          4.4580    1.1020    1.8750 C.2     1  UNL1        0.1300
      3  C          4.6210    2.1500    0.8330 C.3     1  UNL1        0.0870
      4  O          3.4940    1.1940    2.6190 O.2     1  UNL1       -0.3000
      5  C          6.7930    0.3620    1.4810 C.3     1  UNL1        0.0430
      6  C          7.1940   -0.4880    0.3460 C.2     1  UNL1       -0.0440
      7  C          7.0210   -0.0720   -0.9790 C.2     1  UNL1        0.0080
      8  C          7.7540   -1.7220    0.5830 C.2     1  UNL1        0.0540
      9  C          7.4170   -0.9120   -2.0030 C.2     1  UNL1        0.0510
     10  C          8.1540   -2.5680   -0.4560 C.2     1  UNL1        0.1660
     11  C          7.9830   -2.1600   -1.7600 C.2     1  UNL1        0.1650
     12  O          8.7260   -3.8220   -0.4800 O.2     1  UNL1       -0.4540
     13  O          8.4600   -3.1820   -2.5660 O.2     1  UNL1       -0.4540
     14  C          9.0230   -4.2160   -1.7950 C.3     1  UNL1        0.4680
@<TRIPOS>BOND
     1    13    14    1
     2    13    11    1
     3     9    11    2
     4     9     7    1
     5    14    12    1
     6    11    10    1
     7     7     6    2
     8    12    10    1
     9    10     8    2
    10     6     8    1
    11     6     5    1
    12     3     2    1
    13     5     1    1
    14     2     1    1
    15     2     4    2
