@<TRIPOS>MOLECULE
/home/cewinharhar/GITHUB/reincatalyze/data/processed/docking_pred/2023-May-24-1506_sub9_nm5_bs15_s42_ex16_mel10_mts10000_k50_ec02_g099_lra3e-4_lrc3e-3/7ac8f9624e71b352d93dccd4dc48cb56e96c53c0_ligand_9.pdbqt
 14 15 0 0 0
SMALL
GASTEIGER

@<TRIPOS>ATOM
      1  C          8.3480    0.2250   -2.5940 C.3     1  UNL1        0.0800
      2  C          8.0200   -1.2230   -2.7190 C.2     1  UNL1        0.1300
      3  C          9.0640   -2.2350   -3.0310 C.3     1  UNL1        0.0870
      4  O          6.8770   -1.6210   -2.5680 O.2     1  UNL1       -0.3000
      5  C          8.8650    0.5550   -1.2070 C.3     1  UNL1        0.0430
      6  C          7.8130    0.4150   -0.1840 C.2     1  UNL1       -0.0440
      7  C          7.8950   -0.5520    0.8250 C.2     1  UNL1        0.0080
      8  C          6.7200    1.2510   -0.2110 C.2     1  UNL1        0.0540
      9  C          6.8780   -0.6350    1.7580 C.2     1  UNL1        0.0510
     10  C          5.6950    1.1630    0.7350 C.2     1  UNL1        0.1660
     11  C          5.7740    0.2110    1.7280 C.2     1  UNL1        0.1650
     12  O          4.5230    1.8660    0.9200 O.2     1  UNL1       -0.4540
     13  O          4.6390    0.3520    2.5100 O.2     1  UNL1       -0.4540
     14  C          3.8640    1.4490    2.0880 C.3     1  UNL1        0.4680
@<TRIPOS>BOND
     1     3     2    1
     2     2     1    1
     3     2     4    2
     4     1     5    1
     5     5     6    1
     6     8     6    2
     7     8    10    1
     8     6     7    1
     9    10    12    1
    10    10    11    2
    11     7     9    2
    12    12    14    1
    13    11     9    1
    14    11    13    1
    15    14    13    1
