MODEL 1
REMARK VINA RESULT:      -7.6      0.000      0.000
REMARK SMILES CC(=O)CCc1ccc2c(c1)OCO2
REMARK SMILES IDX 4 1 2 2 1 3 3 4 5 5 6 6 7 7 11 8 8 9 10 10 9 11 12 12 14 13
REMARK SMILES IDX 13 14
REMARK H PARENT
REMARK Flexibility Score: inf
ROOT
ATOM      1  C   UNL     1       5.566   1.903   1.290  1.00  0.00     0.080 C 
ENDROOT
BRANCH   1   2
ATOM      2  C   UNL     1       5.132   0.685   2.030  1.00  0.00     0.130 C 
ATOM      3  C   UNL     1       6.033  -0.486   2.201  1.00  0.00     0.087 C 
ATOM      4  O   UNL     1       4.017   0.614   2.520  1.00  0.00    -0.300 OA
ENDBRANCH   1   2
BRANCH   1   5
ATOM      5  C   UNL     1       5.427   1.716  -0.208  1.00  0.00     0.043 C 
BRANCH   5   6
ATOM      6  C   UNL     1       6.590   1.015  -0.781  1.00  0.00    -0.044 A 
ATOM      7  C   UNL     1       7.899   1.447  -0.538  1.00  0.00     0.008 A 
ATOM      8  C   UNL     1       6.396  -0.093  -1.574  1.00  0.00     0.054 A 
ATOM      9  C   UNL     1       8.951   0.749  -1.102  1.00  0.00     0.051 A 
ATOM     10  C   UNL     1       7.464  -0.795  -2.141  1.00  0.00     0.166 A 
ATOM     11  C   UNL     1       8.752  -0.370  -1.903  1.00  0.00     0.165 A 
ATOM     12  O   UNL     1       7.531  -1.908  -2.952  1.00  0.00    -0.454 OA
ATOM     13  O   UNL     1       9.592  -1.241  -2.580  1.00  0.00    -0.454 OA
ATOM     14  C   UNL     1       8.865  -2.284  -3.183  1.00  0.00     0.468 C 
ENDBRANCH   5   6
ENDBRANCH   1   5
TORSDOF 3
ENDMDL
MODEL 2
REMARK VINA RESULT:      -7.4      1.971      2.384
REMARK SMILES CC(=O)CCc1ccc2c(c1)OCO2
REMARK SMILES IDX 4 1 2 2 1 3 3 4 5 5 6 6 7 7 11 8 8 9 10 10 9 11 12 12 14 13
REMARK SMILES IDX 13 14
REMARK H PARENT
REMARK Flexibility Score: inf
ROOT
ATOM      1  C   UNL     1       5.726   1.429  -0.203  1.00  0.00     0.080 C 
ENDROOT
BRANCH   1   2
ATOM      2  C   UNL     1       5.037   1.257   1.106  1.00  0.00     0.130 C 
ATOM      3  C   UNL     1       5.282   0.070   1.968  1.00  0.00     0.087 C 
ATOM      4  O   UNL     1       4.245   2.093   1.511  1.00  0.00    -0.300 OA
ENDBRANCH   1   2
BRANCH   1   5
ATOM      5  C   UNL     1       7.211   1.150  -0.084  1.00  0.00     0.043 C 
BRANCH   5   6
ATOM      6  C   UNL     1       7.575  -0.143  -0.692  1.00  0.00    -0.044 A 
ATOM      7  C   UNL     1       7.575  -0.326  -2.079  1.00  0.00     0.008 A 
ATOM      8  C   UNL     1       7.928  -1.201   0.115  1.00  0.00     0.054 A 
ATOM      9  C   UNL     1       7.926  -1.561  -2.593  1.00  0.00     0.051 A 
ATOM     10  C   UNL     1       8.283  -2.447  -0.409  1.00  0.00     0.166 A 
ATOM     11  C   UNL     1       8.282  -2.629  -1.775  1.00  0.00     0.165 A 
ATOM     12  O   UNL     1       8.665  -3.637   0.173  1.00  0.00    -0.454 OA
ATOM     13  O   UNL     1       8.668  -3.940  -2.005  1.00  0.00    -0.454 OA
ATOM     14  C   UNL     1       9.009  -4.588  -0.802  1.00  0.00     0.468 C 
ENDBRANCH   5   6
ENDBRANCH   1   5
TORSDOF 3
ENDMDL
MODEL 3
REMARK VINA RESULT:      -7.2      2.090      2.644
REMARK SMILES CC(=O)CCc1ccc2c(c1)OCO2
REMARK SMILES IDX 4 1 2 2 1 3 3 4 5 5 6 6 7 7 11 8 8 9 10 10 9 11 12 12 14 13
REMARK SMILES IDX 13 14
REMARK H PARENT
REMARK Flexibility Score: inf
ROOT
ATOM      1  C   UNL     1       5.498  -0.034   1.947  1.00  0.00     0.080 C 
ENDROOT
BRANCH   1   2
ATOM      2  C   UNL     1       4.653   1.155   1.645  1.00  0.00     0.130 C 
ATOM      3  C   UNL     1       4.996   2.098   0.547  1.00  0.00     0.087 C 
ATOM      4  O   UNL     1       3.648   1.391   2.295  1.00  0.00    -0.300 OA
ENDBRANCH   1   2
BRANCH   1   5
ATOM      5  C   UNL     1       6.937   0.192   1.524  1.00  0.00     0.043 C 
BRANCH   5   6
ATOM      6  C   UNL     1       7.352  -0.755   0.474  1.00  0.00    -0.044 A 
ATOM      7  C   UNL     1       7.237  -0.440  -0.885  1.00  0.00     0.008 A 
ATOM      8  C   UNL     1       7.869  -1.981   0.827  1.00  0.00     0.054 A 
ATOM      9  C   UNL     1       7.645  -1.368  -1.826  1.00  0.00     0.051 A 
ATOM     10  C   UNL     1       8.280  -2.916  -0.129  1.00  0.00     0.166 A 
ATOM     11  C   UNL     1       8.166  -2.606  -1.466  1.00  0.00     0.165 A 
ATOM     12  O   UNL     1       8.817  -4.182  -0.034  1.00  0.00    -0.454 OA
ATOM     13  O   UNL     1       8.642  -3.700  -2.172  1.00  0.00    -0.454 OA
ATOM     14  C   UNL     1       9.148  -4.685  -1.303  1.00  0.00     0.468 C 
ENDBRANCH   5   6
ENDBRANCH   1   5
TORSDOF 3
ENDMDL
MODEL 4
REMARK VINA RESULT:      -6.8      1.262      1.749
REMARK SMILES CC(=O)CCc1ccc2c(c1)OCO2
REMARK SMILES IDX 4 1 2 2 1 3 3 4 5 5 6 6 7 7 11 8 8 9 10 10 9 11 12 12 14 13
REMARK SMILES IDX 13 14
REMARK H PARENT
REMARK Flexibility Score: inf
ROOT
ATOM      1  C   UNL     1       5.351  -0.064   1.981  1.00  0.00     0.080 C 
ENDROOT
BRANCH   1   2
ATOM      2  C   UNL     1       4.462   1.116   1.792  1.00  0.00     0.130 C 
ATOM      3  C   UNL     1       4.746   2.150   0.761  1.00  0.00     0.087 C 
ATOM      4  O   UNL     1       3.469   1.269   2.483  1.00  0.00    -0.300 OA
ENDBRANCH   1   2
BRANCH   1   5
ATOM      5  C   UNL     1       6.813   0.331   1.909  1.00  0.00     0.043 C 
BRANCH   5   6
ATOM      6  C   UNL     1       7.413  -0.030   0.613  1.00  0.00    -0.044 A 
ATOM      7  C   UNL     1       7.910   0.944  -0.261  1.00  0.00     0.008 A 
ATOM      8  C   UNL     1       7.495  -1.353   0.243  1.00  0.00     0.054 A 
ATOM      9  C   UNL     1       8.463   0.546  -1.465  1.00  0.00     0.051 A 
ATOM     10  C   UNL     1       8.056  -1.750  -0.975  1.00  0.00     0.166 A 
ATOM     11  C   UNL     1       8.543  -0.792  -1.836  1.00  0.00     0.165 A 
ATOM     12  O   UNL     1       8.249  -2.982  -1.563  1.00  0.00    -0.454 OA
ATOM     13  O   UNL     1       9.032  -1.463  -2.946  1.00  0.00    -0.454 OA
ATOM     14  C   UNL     1       8.948  -2.858  -2.775  1.00  0.00     0.468 C 
ENDBRANCH   5   6
ENDBRANCH   1   5
TORSDOF 3
ENDMDL
MODEL 5
REMARK VINA RESULT:      -6.8      1.188      5.166
REMARK SMILES CC(=O)CCc1ccc2c(c1)OCO2
REMARK SMILES IDX 4 1 2 2 1 3 3 4 5 5 6 6 7 7 11 8 8 9 10 10 9 11 12 12 14 13
REMARK SMILES IDX 13 14
REMARK H PARENT
REMARK Flexibility Score: inf
ROOT
ATOM      1  C   UNL     1       8.348   0.189  -2.676  1.00  0.00     0.080 C 
ENDROOT
BRANCH   1   2
ATOM      2  C   UNL     1       8.058  -1.270  -2.766  1.00  0.00     0.130 C 
ATOM      3  C   UNL     1       9.131  -2.264  -3.032  1.00  0.00     0.087 C 
ATOM      4  O   UNL     1       6.922  -1.693  -2.622  1.00  0.00    -0.300 OA
ENDBRANCH   1   2
BRANCH   1   5
ATOM      5  C   UNL     1       8.876   0.561  -1.305  1.00  0.00     0.043 C 
BRANCH   5   6
ATOM      6  C   UNL     1       7.843   0.420  -0.264  1.00  0.00    -0.044 A 
ATOM      7  C   UNL     1       7.951  -0.537   0.752  1.00  0.00     0.008 A 
ATOM      8  C   UNL     1       6.742   1.246  -0.279  1.00  0.00     0.054 A 
ATOM      9  C   UNL     1       6.950  -0.623   1.703  1.00  0.00     0.051 A 
ATOM     10  C   UNL     1       5.733   1.156   0.685  1.00  0.00     0.166 A 
ATOM     11  C   UNL     1       5.838   0.213   1.684  1.00  0.00     0.165 A 
ATOM     12  O   UNL     1       4.558   1.849   0.883  1.00  0.00    -0.454 OA
ATOM     13  O   UNL     1       4.714   0.350   2.484  1.00  0.00    -0.454 OA
ATOM     14  C   UNL     1       3.921   1.435   2.065  1.00  0.00     0.468 C 
ENDBRANCH   5   6
ENDBRANCH   1   5
TORSDOF 3
ENDMDL
