@<TRIPOS>MOLECULE
/home/cewinharhar/GITHUB/reincatalyze/data/processed/docking_pred/2023-May-24-1506_sub9_nm5_bs15_s42_ex16_mel10_mts10000_k50_ec02_g099_lra3e-4_lrc3e-3/7d60c2a66717a3f4b6d307e9593656cfb0aaeeb8_ligand_9.pdbqt
 14 15 0 0 0
SMALL
GASTEIGER

@<TRIPOS>ATOM
      1  C          5.3460   -0.0890    1.9640 C.3     1  UNL1        0.0800
      2  C          4.4660    1.1000    1.7920 C.2     1  UNL1        0.1300
      3  C          4.7540    2.1440    0.7720 C.3     1  UNL1        0.0870
      4  O          3.4770    1.2540    2.4900 O.2     1  UNL1       -0.3000
      5  C          6.8100    0.2970    1.9110 C.3     1  UNL1        0.0430
      6  C          7.4190   -0.0460    0.6130 C.2     1  UNL1       -0.0440
      7  C          7.9360    0.9380   -0.2380 C.2     1  UNL1        0.0080
      8  C          7.4880   -1.3630    0.2180 C.2     1  UNL1        0.0540
      9  C          8.4960    0.5570   -1.4430 C.2     1  UNL1        0.0510
     10  C          8.0560   -1.7430   -1.0010 C.2     1  UNL1        0.1660
     11  C          8.5640   -0.7750   -1.8390 C.2     1  UNL1        0.1650
     12  O          8.2410   -2.9660   -1.6110 O.2     1  UNL1       -0.4540
     13  O          9.0550   -1.4310   -2.9570 O.2     1  UNL1       -0.4540
     14  C          8.9530   -2.8270   -2.8140 C.3     1  UNL1        0.4680
@<TRIPOS>BOND
     1    13    14    1
     2    13    11    1
     3    14    12    1
     4    11     9    2
     5    11    10    1
     6    12    10    1
     7     9     7    1
     8    10     8    2
     9     7     6    2
    10     8     6    1
    11     6     5    1
    12     3     2    1
    13     2     1    1
    14     2     4    2
    15     5     1    1
