MODEL 1
REMARK VINA RESULT:      -7.6      0.000      0.000
REMARK SMILES CC(=O)CCc1ccc2c(c1)OCO2
REMARK SMILES IDX 4 1 2 2 1 3 3 4 5 5 6 6 7 7 11 8 8 9 10 10 9 11 12 12 14 13
REMARK SMILES IDX 13 14
REMARK H PARENT
REMARK Flexibility Score: inf
ROOT
ATOM      1  C   UNL     1       5.545   1.916   1.275  1.00  0.00     0.080 C 
ENDROOT
BRANCH   1   2
ATOM      2  C   UNL     1       5.106   0.697   2.009  1.00  0.00     0.130 C 
ATOM      3  C   UNL     1       6.007  -0.473   2.188  1.00  0.00     0.087 C 
ATOM      4  O   UNL     1       3.986   0.623   2.489  1.00  0.00    -0.300 OA
ENDBRANCH   1   2
BRANCH   1   5
ATOM      5  C   UNL     1       5.415   1.732  -0.224  1.00  0.00     0.043 C 
BRANCH   5   6
ATOM      6  C   UNL     1       6.579   1.028  -0.791  1.00  0.00    -0.044 A 
ATOM      7  C   UNL     1       7.888   1.458  -0.543  1.00  0.00     0.008 A 
ATOM      8  C   UNL     1       6.387  -0.082  -1.582  1.00  0.00     0.054 A 
ATOM      9  C   UNL     1       8.942   0.757  -1.101  1.00  0.00     0.051 A 
ATOM     10  C   UNL     1       7.455  -0.787  -2.143  1.00  0.00     0.166 A 
ATOM     11  C   UNL     1       8.743  -0.364  -1.901  1.00  0.00     0.165 A 
ATOM     12  O   UNL     1       7.524  -1.902  -2.952  1.00  0.00    -0.454 OA
ATOM     13  O   UNL     1       9.585  -1.238  -2.572  1.00  0.00    -0.454 OA
ATOM     14  C   UNL     1       8.858  -2.281  -3.176  1.00  0.00     0.468 C 
ENDBRANCH   5   6
ENDBRANCH   1   5
TORSDOF 3
ENDMDL
MODEL 2
REMARK VINA RESULT:      -7.5      1.917      2.382
REMARK SMILES CC(=O)CCc1ccc2c(c1)OCO2
REMARK SMILES IDX 4 1 2 2 1 3 3 4 5 5 6 6 7 7 11 8 8 9 10 10 9 11 12 12 14 13
REMARK SMILES IDX 13 14
REMARK H PARENT
REMARK Flexibility Score: inf
ROOT
ATOM      1  C   UNL     1       5.695   1.267  -0.307  1.00  0.00     0.080 C 
ENDROOT
BRANCH   1   2
ATOM      2  C   UNL     1       5.131   1.237   1.072  1.00  0.00     0.130 C 
ATOM      3  C   UNL     1       5.391   0.101   1.996  1.00  0.00     0.087 C 
ATOM      4  O   UNL     1       4.435   2.150   1.484  1.00  0.00    -0.300 OA
ENDBRANCH   1   2
BRANCH   1   5
ATOM      5  C   UNL     1       7.199   1.078  -0.291  1.00  0.00     0.043 C 
BRANCH   5   6
ATOM      6  C   UNL     1       7.594  -0.206  -0.896  1.00  0.00    -0.044 A 
ATOM      7  C   UNL     1       7.692  -0.364  -2.283  1.00  0.00     0.008 A 
ATOM      8  C   UNL     1       7.880  -1.282  -0.087  1.00  0.00     0.054 A 
ATOM      9  C   UNL     1       8.069  -1.592  -2.794  1.00  0.00     0.051 A 
ATOM     10  C   UNL     1       8.261  -2.522  -0.608  1.00  0.00     0.166 A 
ATOM     11  C   UNL     1       8.356  -2.679  -1.973  1.00  0.00     0.165 A 
ATOM     12  O   UNL     1       8.591  -3.726  -0.023  1.00  0.00    -0.454 OA
ATOM     13  O   UNL     1       8.747  -3.989  -2.201  1.00  0.00    -0.454 OA
ATOM     14  C   UNL     1       8.995  -4.662  -0.990  1.00  0.00     0.468 C 
ENDBRANCH   5   6
ENDBRANCH   1   5
TORSDOF 3
ENDMDL
MODEL 3
REMARK VINA RESULT:      -7.1      1.257      1.479
REMARK SMILES CC(=O)CCc1ccc2c(c1)OCO2
REMARK SMILES IDX 4 1 2 2 1 3 3 4 5 5 6 6 7 7 11 8 8 9 10 10 9 11 12 12 14 13
REMARK SMILES IDX 13 14
REMARK H PARENT
REMARK Flexibility Score: inf
ROOT
ATOM      1  C   UNL     1       6.381   1.181   0.907  1.00  0.00     0.080 C 
ENDROOT
BRANCH   1   2
ATOM      2  C   UNL     1       5.669   0.365   1.929  1.00  0.00     0.130 C 
ATOM      3  C   UNL     1       6.272  -0.867   2.503  1.00  0.00     0.087 C 
ATOM      4  O   UNL     1       4.561   0.687   2.327  1.00  0.00    -0.300 OA
ENDBRANCH   1   2
BRANCH   1   5
ATOM      5  C   UNL     1       5.869   0.885  -0.489  1.00  0.00     0.043 C 
BRANCH   5   6
ATOM      6  C   UNL     1       6.822   0.067  -1.259  1.00  0.00    -0.044 A 
ATOM      7  C   UNL     1       7.513   0.587  -2.359  1.00  0.00     0.008 A 
ATOM      8  C   UNL     1       7.049  -1.241  -0.894  1.00  0.00     0.054 A 
ATOM      9  C   UNL     1       8.396  -0.227  -3.044  1.00  0.00     0.051 A 
ATOM     10  C   UNL     1       7.943  -2.060  -1.589  1.00  0.00     0.166 A 
ATOM     11  C   UNL     1       8.622  -1.549  -2.673  1.00  0.00     0.165 A 
ATOM     12  O   UNL     1       8.336  -3.372  -1.427  1.00  0.00    -0.454 OA
ATOM     13  O   UNL     1       9.427  -2.568  -3.158  1.00  0.00    -0.454 OA
ATOM     14  C   UNL     1       9.344  -3.713  -2.344  1.00  0.00     0.468 C 
ENDBRANCH   5   6
ENDBRANCH   1   5
TORSDOF 3
ENDMDL
MODEL 4
REMARK VINA RESULT:      -7.0      2.003      2.582
REMARK SMILES CC(=O)CCc1ccc2c(c1)OCO2
REMARK SMILES IDX 4 1 2 2 1 3 3 4 5 5 6 6 7 7 11 8 8 9 10 10 9 11 12 12 14 13
REMARK SMILES IDX 13 14
REMARK H PARENT
REMARK Flexibility Score: inf
ROOT
ATOM      1  C   UNL     1       6.705   0.622   1.322  1.00  0.00     0.080 C 
ENDROOT
BRANCH   1   2
ATOM      2  C   UNL     1       5.306   1.112   1.467  1.00  0.00     0.130 C 
ATOM      3  C   UNL     1       4.745   2.150   0.561  1.00  0.00     0.087 C 
ATOM      4  O   UNL     1       4.576   0.673   2.340  1.00  0.00    -0.300 OA
ENDBRANCH   1   2
BRANCH   1   5
ATOM      5  C   UNL     1       7.228   0.855  -0.082  1.00  0.00     0.043 C 
BRANCH   5   6
ATOM      6  C   UNL     1       7.614  -0.407  -0.738  1.00  0.00    -0.044 A 
ATOM      7  C   UNL     1       7.655  -0.525  -2.132  1.00  0.00     0.008 A 
ATOM      8  C   UNL     1       7.946  -1.500   0.028  1.00  0.00     0.054 A 
ATOM      9  C   UNL     1       8.025  -1.735  -2.692  1.00  0.00     0.051 A 
ATOM     10  C   UNL     1       8.320  -2.721  -0.542  1.00  0.00     0.166 A 
ATOM     11  C   UNL     1       8.360  -2.839  -1.914  1.00  0.00     0.165 A 
ATOM     12  O   UNL     1       8.689  -3.935  -0.005  1.00  0.00    -0.454 OA
ATOM     13  O   UNL     1       8.758  -4.137  -2.193  1.00  0.00    -0.454 OA
ATOM     14  C   UNL     1       9.064  -4.839  -1.013  1.00  0.00     0.468 C 
ENDBRANCH   5   6
ENDBRANCH   1   5
TORSDOF 3
ENDMDL
MODEL 5
REMARK VINA RESULT:      -6.8      1.246      1.744
REMARK SMILES CC(=O)CCc1ccc2c(c1)OCO2
REMARK SMILES IDX 4 1 2 2 1 3 3 4 5 5 6 6 7 7 11 8 8 9 10 10 9 11 12 12 14 13
REMARK SMILES IDX 13 14
REMARK H PARENT
REMARK Flexibility Score: inf
ROOT
ATOM      1  C   UNL     1       5.346  -0.089   1.964  1.00  0.00     0.080 C 
ENDROOT
BRANCH   1   2
ATOM      2  C   UNL     1       4.466   1.100   1.792  1.00  0.00     0.130 C 
ATOM      3  C   UNL     1       4.754   2.144   0.772  1.00  0.00     0.087 C 
ATOM      4  O   UNL     1       3.477   1.254   2.490  1.00  0.00    -0.300 OA
ENDBRANCH   1   2
BRANCH   1   5
ATOM      5  C   UNL     1       6.810   0.297   1.911  1.00  0.00     0.043 C 
BRANCH   5   6
ATOM      6  C   UNL     1       7.419  -0.046   0.613  1.00  0.00    -0.044 A 
ATOM      7  C   UNL     1       7.936   0.938  -0.238  1.00  0.00     0.008 A 
ATOM      8  C   UNL     1       7.488  -1.363   0.218  1.00  0.00     0.054 A 
ATOM      9  C   UNL     1       8.496   0.557  -1.443  1.00  0.00     0.051 A 
ATOM     10  C   UNL     1       8.056  -1.743  -1.001  1.00  0.00     0.166 A 
ATOM     11  C   UNL     1       8.564  -0.775  -1.839  1.00  0.00     0.165 A 
ATOM     12  O   UNL     1       8.241  -2.966  -1.611  1.00  0.00    -0.454 OA
ATOM     13  O   UNL     1       9.055  -1.431  -2.957  1.00  0.00    -0.454 OA
ATOM     14  C   UNL     1       8.953  -2.827  -2.814  1.00  0.00     0.468 C 
ENDBRANCH   5   6
ENDBRANCH   1   5
TORSDOF 3
ENDMDL
