@<TRIPOS>MOLECULE
/home/cewinharhar/GITHUB/reincatalyze/data/processed/docking_pred/2023-May-24-1506_sub9_nm5_bs15_s42_ex16_mel10_mts10000_k50_ec02_g099_lra3e-4_lrc3e-3/7e2b2812a39c1bf8d23d6aab3a18bb39f1acac0e_ligand_9.pdbqt
 14 15 0 0 0
SMALL
GASTEIGER

@<TRIPOS>ATOM
      1  C          5.3510   -0.0640    1.9810 C.3     1  UNL1        0.0800
      2  C          4.4620    1.1160    1.7920 C.2     1  UNL1        0.1300
      3  C          4.7460    2.1500    0.7610 C.3     1  UNL1        0.0870
      4  O          3.4690    1.2690    2.4830 O.2     1  UNL1       -0.3000
      5  C          6.8130    0.3310    1.9090 C.3     1  UNL1        0.0430
      6  C          7.4130   -0.0300    0.6130 C.2     1  UNL1       -0.0440
      7  C          7.9100    0.9440   -0.2610 C.2     1  UNL1        0.0080
      8  C          7.4950   -1.3530    0.2430 C.2     1  UNL1        0.0540
      9  C          8.4630    0.5460   -1.4650 C.2     1  UNL1        0.0510
     10  C          8.0560   -1.7500   -0.9750 C.2     1  UNL1        0.1660
     11  C          8.5430   -0.7920   -1.8360 C.2     1  UNL1        0.1650
     12  O          8.2490   -2.9820   -1.5630 O.2     1  UNL1       -0.4540
     13  O          9.0320   -1.4630   -2.9460 O.2     1  UNL1       -0.4540
     14  C          8.9480   -2.8580   -2.7750 C.3     1  UNL1        0.4680
@<TRIPOS>BOND
     1    13    14    1
     2    13    11    1
     3    14    12    1
     4    11     9    2
     5    11    10    1
     6    12    10    1
     7     9     7    1
     8    10     8    2
     9     7     6    2
    10     8     6    1
    11     6     5    1
    12     3     2    1
    13     2     1    1
    14     2     4    2
    15     5     1    1
