@<TRIPOS>MOLECULE
/home/cewinharhar/GITHUB/reincatalyze/data/processed/docking_pred/2023-May-24-1506_sub9_nm5_bs15_s42_ex16_mel10_mts10000_k50_ec02_g099_lra3e-4_lrc3e-3/7e2b2812a39c1bf8d23d6aab3a18bb39f1acac0e_ligand_9.pdbqt
 14 15 0 0 0
SMALL
GASTEIGER

@<TRIPOS>ATOM
      1  C          5.5660    1.9030    1.2900 C.3     1  UNL1        0.0800
      2  C          5.1320    0.6850    2.0300 C.2     1  UNL1        0.1300
      3  C          6.0330   -0.4860    2.2010 C.3     1  UNL1        0.0870
      4  O          4.0170    0.6140    2.5200 O.2     1  UNL1       -0.3000
      5  C          5.4270    1.7160   -0.2080 C.3     1  UNL1        0.0430
      6  C          6.5900    1.0150   -0.7810 C.2     1  UNL1       -0.0440
      7  C          7.8990    1.4470   -0.5380 C.2     1  UNL1        0.0080
      8  C          6.3960   -0.0930   -1.5740 C.2     1  UNL1        0.0540
      9  C          8.9510    0.7490   -1.1020 C.2     1  UNL1        0.0510
     10  C          7.4640   -0.7950   -2.1410 C.2     1  UNL1        0.1660
     11  C          8.7520   -0.3700   -1.9030 C.2     1  UNL1        0.1650
     12  O          7.5310   -1.9080   -2.9520 O.2     1  UNL1       -0.4540
     13  O          9.5920   -1.2410   -2.5800 O.2     1  UNL1       -0.4540
     14  C          8.8650   -2.2840   -3.1830 C.3     1  UNL1        0.4680
@<TRIPOS>BOND
     1    14    12    1
     2    14    13    1
     3    12    10    1
     4    13    11    1
     5    10    11    2
     6    10     8    1
     7    11     9    1
     8     8     6    2
     9     9     7    2
    10     6     7    1
    11     6     5    1
    12     5     1    1
    13     1     2    1
    14     2     3    1
    15     2     4    2
