@<TRIPOS>MOLECULE
/home/cewinharhar/GITHUB/reincatalyze/data/processed/docking_pred/2023-May-24-1506_sub9_nm5_bs15_s42_ex16_mel10_mts10000_k50_ec02_g099_lra3e-4_lrc3e-3/80c9945afd0f5f9f0270d56cce32b054e5c09707_ligand_9.pdbqt
 14 15 0 0 0
SMALL
GASTEIGER

@<TRIPOS>ATOM
      1  C          6.3290    1.2570    0.9010 C.3     1  UNL1        0.0800
      2  C          5.6390    0.4250    1.9260 C.2     1  UNL1        0.1300
      3  C          6.2790   -0.7840    2.5100 C.3     1  UNL1        0.0870
      4  O          4.5200    0.7140    2.3180 O.2     1  UNL1       -0.3000
      5  C          5.8190    0.9490   -0.4920 C.3     1  UNL1        0.0430
      6  C          6.7770    0.1310   -1.2570 C.2     1  UNL1       -0.0440
      7  C          7.4730    0.6520   -2.3540 C.2     1  UNL1        0.0080
      8  C          7.0030   -1.1760   -0.8910 C.2     1  UNL1        0.0540
      9  C          8.3610   -0.1630   -3.0340 C.2     1  UNL1        0.0510
     10  C          7.9020   -1.9950   -1.5800 C.2     1  UNL1        0.1660
     11  C          8.5870   -1.4840   -2.6610 C.2     1  UNL1        0.1650
     12  O          8.2950   -3.3060   -1.4160 O.2     1  UNL1       -0.4540
     13  O          9.3950   -2.5030   -3.1420 O.2     1  UNL1       -0.4540
     14  C          9.3090   -3.6470   -2.3270 C.3     1  UNL1        0.4680
@<TRIPOS>BOND
     1    13    11    1
     2    13    14    1
     3     9    11    2
     4     9     7    1
     5    11    10    1
     6     7     6    2
     7    14    12    1
     8    10    12    1
     9    10     8    2
    10     6     8    1
    11     6     5    1
    12     5     1    1
    13     1     2    1
    14     2     4    2
    15     2     3    1
