MODEL 1
REMARK VINA RESULT:      -7.7      0.000      0.000
REMARK SMILES CC(=O)CCc1ccc2c(c1)OCO2
REMARK SMILES IDX 4 1 2 2 1 3 3 4 5 5 6 6 7 7 11 8 8 9 10 10 9 11 12 12 14 13
REMARK SMILES IDX 13 14
REMARK H PARENT
REMARK Flexibility Score: inf
ROOT
ATOM      1  C   UNL     1       5.543   1.905   1.285  1.00  0.00     0.080 C 
ENDROOT
BRANCH   1   2
ATOM      2  C   UNL     1       5.124   0.682   2.026  1.00  0.00     0.130 C 
ATOM      3  C   UNL     1       6.034  -0.483   2.187  1.00  0.00     0.087 C 
ATOM      4  O   UNL     1       4.013   0.601   2.524  1.00  0.00    -0.300 OA
ENDBRANCH   1   2
BRANCH   1   5
ATOM      5  C   UNL     1       5.407   1.715  -0.212  1.00  0.00     0.043 C 
BRANCH   5   6
ATOM      6  C   UNL     1       6.573   1.017  -0.783  1.00  0.00    -0.044 A 
ATOM      7  C   UNL     1       7.881   1.454  -0.538  1.00  0.00     0.008 A 
ATOM      8  C   UNL     1       6.384  -0.093  -1.574  1.00  0.00     0.054 A 
ATOM      9  C   UNL     1       8.936   0.759  -1.100  1.00  0.00     0.051 A 
ATOM     10  C   UNL     1       7.455  -0.793  -2.139  1.00  0.00     0.166 A 
ATOM     11  C   UNL     1       8.741  -0.363  -1.900  1.00  0.00     0.165 A 
ATOM     12  O   UNL     1       7.527  -1.906  -2.948  1.00  0.00    -0.454 OA
ATOM     13  O   UNL     1       9.586  -1.231  -2.573  1.00  0.00    -0.454 OA
ATOM     14  C   UNL     1       8.862  -2.278  -3.177  1.00  0.00     0.468 C 
ENDBRANCH   5   6
ENDBRANCH   1   5
TORSDOF 3
ENDMDL
MODEL 2
REMARK VINA RESULT:      -7.2      1.256      1.479
REMARK SMILES CC(=O)CCc1ccc2c(c1)OCO2
REMARK SMILES IDX 4 1 2 2 1 3 3 4 5 5 6 6 7 7 11 8 8 9 10 10 9 11 12 12 14 13
REMARK SMILES IDX 13 14
REMARK H PARENT
REMARK Flexibility Score: inf
ROOT
ATOM      1  C   UNL     1       6.400   1.180   0.919  1.00  0.00     0.080 C 
ENDROOT
BRANCH   1   2
ATOM      2  C   UNL     1       5.677   0.363   1.933  1.00  0.00     0.130 C 
ATOM      3  C   UNL     1       6.279  -0.864   2.519  1.00  0.00     0.087 C 
ATOM      4  O   UNL     1       4.562   0.680   2.314  1.00  0.00    -0.300 OA
ENDBRANCH   1   2
BRANCH   1   5
ATOM      5  C   UNL     1       5.892   0.896  -0.481  1.00  0.00     0.043 C 
BRANCH   5   6
ATOM      6  C   UNL     1       6.841   0.071  -1.250  1.00  0.00    -0.044 A 
ATOM      7  C   UNL     1       7.537   0.586  -2.350  1.00  0.00     0.008 A 
ATOM      8  C   UNL     1       7.058  -1.238  -0.884  1.00  0.00     0.054 A 
ATOM      9  C   UNL     1       8.415  -0.236  -3.032  1.00  0.00     0.051 A 
ATOM     10  C   UNL     1       7.948  -2.064  -1.577  1.00  0.00     0.166 A 
ATOM     11  C   UNL     1       8.632  -1.559  -2.661  1.00  0.00     0.165 A 
ATOM     12  O   UNL     1       8.330  -3.379  -1.415  1.00  0.00    -0.454 OA
ATOM     13  O   UNL     1       9.429  -2.584  -3.145  1.00  0.00    -0.454 OA
ATOM     14  C   UNL     1       9.338  -3.728  -2.330  1.00  0.00     0.468 C 
ENDBRANCH   5   6
ENDBRANCH   1   5
TORSDOF 3
ENDMDL
MODEL 3
REMARK VINA RESULT:      -7.1      1.651      2.018
REMARK SMILES CC(=O)CCc1ccc2c(c1)OCO2
REMARK SMILES IDX 4 1 2 2 1 3 3 4 5 5 6 6 7 7 11 8 8 9 10 10 9 11 12 12 14 13
REMARK SMILES IDX 13 14
REMARK H PARENT
REMARK Flexibility Score: inf
ROOT
ATOM      1  C   UNL     1       5.632   1.566  -0.194  1.00  0.00     0.080 C 
ENDROOT
BRANCH   1   2
ATOM      2  C   UNL     1       5.027   1.287   1.139  1.00  0.00     0.130 C 
ATOM      3  C   UNL     1       5.476   0.142   1.975  1.00  0.00     0.087 C 
ATOM      4  O   UNL     1       4.139   1.995   1.585  1.00  0.00    -0.300 OA
ENDBRANCH   1   2
BRANCH   1   5
ATOM      5  C   UNL     1       7.138   1.398  -0.160  1.00  0.00     0.043 C 
BRANCH   5   6
ATOM      6  C   UNL     1       7.570   0.195  -0.894  1.00  0.00    -0.044 A 
ATOM      7  C   UNL     1       7.770   0.214  -2.279  1.00  0.00     0.008 A 
ATOM      8  C   UNL     1       7.788  -0.979  -0.210  1.00  0.00     0.054 A 
ATOM      9  C   UNL     1       8.176  -0.946  -2.914  1.00  0.00     0.051 A 
ATOM     10  C   UNL     1       8.200  -2.148  -0.857  1.00  0.00     0.166 A 
ATOM     11  C   UNL     1       8.395  -2.132  -2.220  1.00  0.00     0.165 A 
ATOM     12  O   UNL     1       8.479  -3.422  -0.408  1.00  0.00    -0.454 OA
ATOM     13  O   UNL     1       8.795  -3.408  -2.583  1.00  0.00    -0.454 OA
ATOM     14  C   UNL     1       8.948  -4.234  -1.453  1.00  0.00     0.468 C 
ENDBRANCH   5   6
ENDBRANCH   1   5
TORSDOF 3
ENDMDL
MODEL 4
REMARK VINA RESULT:      -7.0      1.746      2.357
REMARK SMILES CC(=O)CCc1ccc2c(c1)OCO2
REMARK SMILES IDX 4 1 2 2 1 3 3 4 5 5 6 6 7 7 11 8 8 9 10 10 9 11 12 12 14 13
REMARK SMILES IDX 13 14
REMARK H PARENT
REMARK Flexibility Score: inf
ROOT
ATOM      1  C   UNL     1       5.316  -0.024   2.020  1.00  0.00     0.080 C 
ENDROOT
BRANCH   1   2
ATOM      2  C   UNL     1       4.421   1.144   1.790  1.00  0.00     0.130 C 
ATOM      3  C   UNL     1       4.705   2.149   0.731  1.00  0.00     0.087 C 
ATOM      4  O   UNL     1       3.421   1.311   2.469  1.00  0.00    -0.300 OA
ENDBRANCH   1   2
BRANCH   1   5
ATOM      5  C   UNL     1       6.733   0.272   1.570  1.00  0.00     0.043 C 
BRANCH   5   6
ATOM      6  C   UNL     1       7.114  -0.534   0.397  1.00  0.00    -0.044 A 
ATOM      7  C   UNL     1       6.849  -0.101  -0.907  1.00  0.00     0.008 A 
ATOM      8  C   UNL     1       7.747  -1.743   0.576  1.00  0.00     0.054 A 
ATOM      9  C   UNL     1       7.230  -0.900  -1.970  1.00  0.00     0.051 A 
ATOM     10  C   UNL     1       8.131  -2.547  -0.502  1.00  0.00     0.166 A 
ATOM     11  C   UNL     1       7.870  -2.122  -1.785  1.00  0.00     0.165 A 
ATOM     12  O   UNL     1       8.762  -3.770  -0.584  1.00  0.00    -0.454 OA
ATOM     13  O   UNL     1       8.352  -3.102  -2.638  1.00  0.00    -0.454 OA
ATOM     14  C   UNL     1       9.007  -4.122  -1.921  1.00  0.00     0.468 C 
ENDBRANCH   5   6
ENDBRANCH   1   5
TORSDOF 3
ENDMDL
MODEL 5
REMARK VINA RESULT:      -6.8      1.176      5.175
REMARK SMILES CC(=O)CCc1ccc2c(c1)OCO2
REMARK SMILES IDX 4 1 2 2 1 3 3 4 5 5 6 6 7 7 11 8 8 9 10 10 9 11 12 12 14 13
REMARK SMILES IDX 13 14
REMARK H PARENT
REMARK Flexibility Score: inf
ROOT
ATOM      1  C   UNL     1       8.354   0.237  -2.584  1.00  0.00     0.080 C 
ENDROOT
BRANCH   1   2
ATOM      2  C   UNL     1       8.026  -1.211  -2.713  1.00  0.00     0.130 C 
ATOM      3  C   UNL     1       9.069  -2.221  -3.037  1.00  0.00     0.087 C 
ATOM      4  O   UNL     1       6.884  -1.612  -2.556  1.00  0.00    -0.300 OA
ENDBRANCH   1   2
BRANCH   1   5
ATOM      5  C   UNL     1       8.861   0.564  -1.194  1.00  0.00     0.043 C 
BRANCH   5   6
ATOM      6  C   UNL     1       7.800   0.433  -0.180  1.00  0.00    -0.044 A 
ATOM      7  C   UNL     1       7.871  -0.529   0.834  1.00  0.00     0.008 A 
ATOM      8  C   UNL     1       6.710   1.272  -0.220  1.00  0.00     0.054 A 
ATOM      9  C   UNL     1       6.845  -0.606   1.759  1.00  0.00     0.051 A 
ATOM     10  C   UNL     1       5.677   1.191   0.718  1.00  0.00     0.166 A 
ATOM     11  C   UNL     1       5.745   0.244   1.715  1.00  0.00     0.165 A 
ATOM     12  O   UNL     1       4.506   1.899   0.890  1.00  0.00    -0.454 OA
ATOM     13  O   UNL     1       4.603   0.392   2.487  1.00  0.00    -0.454 OA
ATOM     14  C   UNL     1       3.835   1.489   2.053  1.00  0.00     0.468 C 
ENDBRANCH   5   6
ENDBRANCH   1   5
TORSDOF 3
ENDMDL
