@<TRIPOS>MOLECULE
/home/cewinharhar/GITHUB/reincatalyze/data/processed/docking_pred/2023-May-24-1506_sub9_nm5_bs15_s42_ex16_mel10_mts10000_k50_ec02_g099_lra3e-4_lrc3e-3/80ffcc0cdcaea1df7ad243f542ab1163fa4dc1ce_ligand_9.pdbqt
 14 15 0 0 0
SMALL
GASTEIGER

@<TRIPOS>ATOM
      1  C          5.6320    1.5660   -0.1940 C.3     1  UNL1        0.0800
      2  C          5.0270    1.2870    1.1390 C.2     1  UNL1        0.1300
      3  C          5.4760    0.1420    1.9750 C.3     1  UNL1        0.0870
      4  O          4.1390    1.9950    1.5850 O.2     1  UNL1       -0.3000
      5  C          7.1380    1.3980   -0.1600 C.3     1  UNL1        0.0430
      6  C          7.5700    0.1950   -0.8940 C.2     1  UNL1       -0.0440
      7  C          7.7700    0.2140   -2.2790 C.2     1  UNL1        0.0080
      8  C          7.7880   -0.9790   -0.2100 C.2     1  UNL1        0.0540
      9  C          8.1760   -0.9460   -2.9140 C.2     1  UNL1        0.0510
     10  C          8.2000   -2.1480   -0.8570 C.2     1  UNL1        0.1660
     11  C          8.3950   -2.1320   -2.2200 C.2     1  UNL1        0.1650
     12  O          8.4790   -3.4220   -0.4080 O.2     1  UNL1       -0.4540
     13  O          8.7950   -3.4080   -2.5830 O.2     1  UNL1       -0.4540
     14  C          8.9480   -4.2340   -1.4530 C.3     1  UNL1        0.4680
@<TRIPOS>BOND
     1     9     7    1
     2     9    11    2
     3    13    11    1
     4    13    14    1
     5     7     6    2
     6    11    10    1
     7    14    12    1
     8     6     8    1
     9     6     5    1
    10    10    12    1
    11    10     8    2
    12     1     5    1
    13     1     2    1
    14     2     4    2
    15     2     3    1
