@<TRIPOS>MOLECULE
/home/cewinharhar/GITHUB/reincatalyze/data/processed/docking_pred/2023-May-24-1506_sub9_nm5_bs15_s42_ex16_mel10_mts10000_k50_ec02_g099_lra3e-4_lrc3e-3/80ffcc0cdcaea1df7ad243f542ab1163fa4dc1ce_ligand_9.pdbqt
 14 15 0 0 0
SMALL
GASTEIGER

@<TRIPOS>ATOM
      1  C          5.3160   -0.0240    2.0200 C.3     1  UNL1        0.0800
      2  C          4.4210    1.1440    1.7900 C.2     1  UNL1        0.1300
      3  C          4.7050    2.1490    0.7310 C.3     1  UNL1        0.0870
      4  O          3.4210    1.3110    2.4690 O.2     1  UNL1       -0.3000
      5  C          6.7330    0.2720    1.5700 C.3     1  UNL1        0.0430
      6  C          7.1140   -0.5340    0.3970 C.2     1  UNL1       -0.0440
      7  C          6.8490   -0.1010   -0.9070 C.2     1  UNL1        0.0080
      8  C          7.7470   -1.7430    0.5760 C.2     1  UNL1        0.0540
      9  C          7.2300   -0.9000   -1.9700 C.2     1  UNL1        0.0510
     10  C          8.1310   -2.5470   -0.5020 C.2     1  UNL1        0.1660
     11  C          7.8700   -2.1220   -1.7850 C.2     1  UNL1        0.1650
     12  O          8.7620   -3.7700   -0.5840 O.2     1  UNL1       -0.4540
     13  O          8.3520   -3.1020   -2.6380 O.2     1  UNL1       -0.4540
     14  C          9.0070   -4.1220   -1.9210 C.3     1  UNL1        0.4680
@<TRIPOS>BOND
     1    13    14    1
     2    13    11    1
     3     9    11    2
     4     9     7    1
     5    14    12    1
     6    11    10    1
     7     7     6    2
     8    12    10    1
     9    10     8    2
    10     6     8    1
    11     6     5    1
    12     3     2    1
    13     5     1    1
    14     2     1    1
    15     2     4    2
