@<TRIPOS>MOLECULE
/home/cewinharhar/GITHUB/reincatalyze/data/processed/docking_pred/2023-May-24-1506_sub9_nm5_bs15_s42_ex16_mel10_mts10000_k50_ec02_g099_lra3e-4_lrc3e-3/80ffcc0cdcaea1df7ad243f542ab1163fa4dc1ce_ligand_9.pdbqt
 14 15 0 0 0
SMALL
GASTEIGER

@<TRIPOS>ATOM
      1  C          8.3540    0.2370   -2.5840 C.3     1  UNL1        0.0800
      2  C          8.0260   -1.2110   -2.7130 C.2     1  UNL1        0.1300
      3  C          9.0690   -2.2210   -3.0370 C.3     1  UNL1        0.0870
      4  O          6.8840   -1.6120   -2.5560 O.2     1  UNL1       -0.3000
      5  C          8.8610    0.5640   -1.1940 C.3     1  UNL1        0.0430
      6  C          7.8000    0.4330   -0.1800 C.2     1  UNL1       -0.0440
      7  C          7.8710   -0.5290    0.8340 C.2     1  UNL1        0.0080
      8  C          6.7100    1.2720   -0.2200 C.2     1  UNL1        0.0540
      9  C          6.8450   -0.6060    1.7590 C.2     1  UNL1        0.0510
     10  C          5.6770    1.1910    0.7180 C.2     1  UNL1        0.1660
     11  C          5.7450    0.2440    1.7150 C.2     1  UNL1        0.1650
     12  O          4.5060    1.8990    0.8900 O.2     1  UNL1       -0.4540
     13  O          4.6030    0.3920    2.4870 O.2     1  UNL1       -0.4540
     14  C          3.8350    1.4890    2.0530 C.3     1  UNL1        0.4680
@<TRIPOS>BOND
     1     3     2    1
     2     2     1    1
     3     2     4    2
     4     1     5    1
     5     5     6    1
     6     8     6    2
     7     8    10    1
     8     6     7    1
     9    10    12    1
    10    10    11    2
    11     7     9    2
    12    12    14    1
    13    11     9    1
    14    11    13    1
    15    14    13    1
