@<TRIPOS>MOLECULE
/home/cewinharhar/GITHUB/reincatalyze/data/processed/docking_pred/2023-May-24-1506_sub9_nm5_bs15_s42_ex16_mel10_mts10000_k50_ec02_g099_lra3e-4_lrc3e-3/81487a167534eaf1a49a57d95a0bec7d9495d7bd_ligand_9.pdbqt
 14 15 0 0 0
SMALL
GASTEIGER

@<TRIPOS>ATOM
      1  C          5.3120   -0.0820    1.9840 C.3     1  UNL1        0.0800
      2  C          4.4530    1.1220    1.8050 C.2     1  UNL1        0.1300
      3  C          4.7550    2.1500    0.7730 C.3     1  UNL1        0.0870
      4  O          3.4700    1.3000    2.5050 O.2     1  UNL1       -0.3000
      5  C          6.7830    0.2790    1.9340 C.3     1  UNL1        0.0430
      6  C          7.3850   -0.0600    0.6320 C.2     1  UNL1       -0.0440
      7  C          7.8690    0.9290   -0.2320 C.2     1  UNL1        0.0080
      8  C          7.4810   -1.3780    0.2470 C.2     1  UNL1        0.0540
      9  C          8.4240    0.5510   -1.4410 C.2     1  UNL1        0.0510
     10  C          8.0440   -1.7550   -0.9760 C.2     1  UNL1        0.1660
     11  C          8.5190   -0.7820   -1.8270 C.2     1  UNL1        0.1650
     12  O          8.2500   -2.9780   -1.5780 O.2     1  UNL1       -0.4540
     13  O          9.0130   -1.4350   -2.9450 O.2     1  UNL1       -0.4540
     14  C          8.9450   -2.8330   -2.7900 C.3     1  UNL1        0.4680
@<TRIPOS>BOND
     1    13    14    1
     2    13    11    1
     3    14    12    1
     4    11     9    2
     5    11    10    1
     6    12    10    1
     7     9     7    1
     8    10     8    2
     9     7     6    2
    10     8     6    1
    11     6     5    1
    12     3     2    1
    13     2     1    1
    14     2     4    2
    15     5     1    1
