@<TRIPOS>MOLECULE
/home/cewinharhar/GITHUB/reincatalyze/data/processed/docking_pred/2023-May-24-1506_sub9_nm5_bs15_s42_ex16_mel10_mts10000_k50_ec02_g099_lra3e-4_lrc3e-3/81487a167534eaf1a49a57d95a0bec7d9495d7bd_ligand_9.pdbqt
 14 15 0 0 0
SMALL
GASTEIGER

@<TRIPOS>ATOM
      1  C          5.7110    1.3160   -0.2800 C.3     1  UNL1        0.0800
      2  C          5.1310    1.2660    1.0910 C.2     1  UNL1        0.1300
      3  C          5.4390    0.1520    2.0280 C.3     1  UNL1        0.0870
      4  O          4.3810    2.1430    1.4880 O.2     1  UNL1       -0.3000
      5  C          7.2110    1.1060   -0.2520 C.3     1  UNL1        0.0430
      6  C          7.5940   -0.1810   -0.8590 C.2     1  UNL1       -0.0440
      7  C          7.6800   -0.3400   -2.2470 C.2     1  UNL1        0.0080
      8  C          7.8790   -1.2590   -0.0520 C.2     1  UNL1        0.0540
      9  C          8.0450   -1.5710   -2.7610 C.2     1  UNL1        0.0510
     10  C          8.2480   -2.5010   -0.5760 C.2     1  UNL1        0.1660
     11  C          8.3320   -2.6590   -1.9410 C.2     1  UNL1        0.1650
     12  O          8.5750   -3.7070    0.0070 O.2     1  UNL1       -0.4540
     13  O          8.7130   -3.9710   -2.1710 O.2     1  UNL1       -0.4540
     14  C          8.9660   -4.6460   -0.9620 C.3     1  UNL1        0.4680
@<TRIPOS>BOND
     1     9     7    1
     2     9    11    2
     3     7     6    2
     4    13    11    1
     5    13    14    1
     6    11    10    1
     7    14    12    1
     8     6     5    1
     9     6     8    1
    10    10     8    2
    11    10    12    1
    12     1     5    1
    13     1     2    1
    14     2     4    2
    15     2     3    1
