@<TRIPOS>MOLECULE
/home/cewinharhar/GITHUB/reincatalyze/data/processed/docking_pred/2023-May-24-1506_sub9_nm5_bs15_s42_ex16_mel10_mts10000_k50_ec02_g099_lra3e-4_lrc3e-3/82066193004a6cdbe54a2a950d109d8cafa96b54_ligand_9.pdbqt
 14 15 0 0 0
SMALL
GASTEIGER

@<TRIPOS>ATOM
      1  C          5.8230    1.3320   -0.2490 C.3     1  UNL1        0.0800
      2  C          5.2000    1.2300    1.1000 C.2     1  UNL1        0.1300
      3  C          5.3510    0.0110    1.9400 C.3     1  UNL1        0.0870
      4  O          4.5420    2.1500    1.5580 O.2     1  UNL1       -0.3000
      5  C          7.3120    1.0570   -0.1900 C.3     1  UNL1        0.0430
      6  C          7.6560   -0.2330   -0.8150 C.2     1  UNL1       -0.0440
      7  C          7.6640   -0.3940   -2.2050 C.2     1  UNL1        0.0080
      8  C          7.9790   -1.3110   -0.0220 C.2     1  UNL1        0.0540
      9  C          7.9950   -1.6280   -2.7350 C.2     1  UNL1        0.0510
     10  C          8.3140   -2.5560   -0.5630 C.2     1  UNL1        0.1660
     11  C          8.3210   -2.7160   -1.9310 C.2     1  UNL1        0.1650
     12  O          8.6670   -3.7620    0.0030 O.2     1  UNL1       -0.4540
     13  O          8.6840   -4.0300   -2.1790 O.2     1  UNL1       -0.4540
     14  C          9.0000   -4.7040   -0.9840 C.3     1  UNL1        0.4680
@<TRIPOS>BOND
     1     9     7    1
     2     9    11    2
     3     7     6    2
     4    13    11    1
     5    13    14    1
     6    11    10    1
     7    14    12    1
     8     6     5    1
     9     6     8    1
    10    10     8    2
    11    10    12    1
    12     1     5    1
    13     1     2    1
    14     2     4    2
    15     2     3    1
