@<TRIPOS>MOLECULE
/home/cewinharhar/GITHUB/reincatalyze/data/processed/docking_pred/2023-May-24-1506_sub9_nm5_bs15_s42_ex16_mel10_mts10000_k50_ec02_g099_lra3e-4_lrc3e-3/82066193004a6cdbe54a2a950d109d8cafa96b54_ligand_9.pdbqt
 14 15 0 0 0
SMALL
GASTEIGER

@<TRIPOS>ATOM
      1  C          8.3080    0.1350   -2.6520 C.3     1  UNL1        0.0800
      2  C          8.0600   -1.3270   -2.7920 C.2     1  UNL1        0.1300
      3  C          9.1710   -2.2880   -3.0230 C.3     1  UNL1        0.0870
      4  O          6.9300   -1.7810   -2.7210 O.2     1  UNL1       -0.3000
      5  C          8.8570    0.4710   -1.2790 C.3     1  UNL1        0.0430
      6  C          7.8240    0.3620   -0.2350 C.2     1  UNL1       -0.0440
      7  C          7.9270   -0.5710    0.8030 C.2     1  UNL1        0.0080
      8  C          6.7280    1.1930   -0.2700 C.2     1  UNL1        0.0540
      9  C          6.9260   -0.6280    1.7560 C.2     1  UNL1        0.0510
     10  C          5.7190    1.1320    0.6960 C.2     1  UNL1        0.1660
     11  C          5.8190    0.2140    1.7180 C.2     1  UNL1        0.1650
     12  O          4.5480    1.8380    0.8790 O.2     1  UNL1       -0.4540
     13  O          4.6970    0.3770    2.5140 O.2     1  UNL1       -0.4540
     14  C          3.9100    1.4560    2.0700 C.3     1  UNL1        0.4680
@<TRIPOS>BOND
     1     3     2    1
     2     2     4    2
     3     2     1    1
     4     1     5    1
     5     5     6    1
     6     8     6    2
     7     8    10    1
     8     6     7    1
     9    10    12    1
    10    10    11    2
    11     7     9    2
    12    12    14    1
    13    11     9    1
    14    11    13    1
    15    14    13    1
