@<TRIPOS>MOLECULE
/home/cewinharhar/GITHUB/reincatalyze/data/processed/docking_pred/2023-May-24-1506_sub9_nm5_bs15_s42_ex16_mel10_mts10000_k50_ec02_g099_lra3e-4_lrc3e-3/82066193004a6cdbe54a2a950d109d8cafa96b54_ligand_9.pdbqt
 14 15 0 0 0
SMALL
GASTEIGER

@<TRIPOS>ATOM
      1  C          6.3680    1.2290    0.9230 C.3     1  UNL1        0.0800
      2  C          5.6600    0.3880    1.9280 C.2     1  UNL1        0.1300
      3  C          6.2830   -0.8360    2.4990 C.3     1  UNL1        0.0870
      4  O          4.5400    0.6820    2.3130 O.2     1  UNL1       -0.3000
      5  C          5.8650    0.9530   -0.4800 C.3     1  UNL1        0.0430
      6  C          6.8130    0.1260   -1.2480 C.2     1  UNL1       -0.0440
      7  C          7.5100    0.6410   -2.3470 C.2     1  UNL1        0.0080
      8  C          7.0270   -1.1830   -0.8830 C.2     1  UNL1        0.0540
      9  C          8.3880   -0.1820   -3.0290 C.2     1  UNL1        0.0510
     10  C          7.9170   -2.0110   -1.5750 C.2     1  UNL1        0.1660
     11  C          8.6020   -1.5060   -2.6580 C.2     1  UNL1        0.1650
     12  O          8.2970   -3.3260   -1.4130 O.2     1  UNL1       -0.4540
     13  O          9.3990   -2.5310   -3.1420 O.2     1  UNL1       -0.4540
     14  C          9.3050   -3.6760   -2.3270 C.3     1  UNL1        0.4680
@<TRIPOS>BOND
     1    13    11    1
     2    13    14    1
     3     9    11    2
     4     9     7    1
     5    11    10    1
     6     7     6    2
     7    14    12    1
     8    10    12    1
     9    10     8    2
    10     6     8    1
    11     6     5    1
    12     5     1    1
    13     1     2    1
    14     2     4    2
    15     2     3    1
