MODEL 1
REMARK VINA RESULT:      -7.6      0.000      0.000
REMARK SMILES CC(=O)CCc1ccc2c(c1)OCO2
REMARK SMILES IDX 4 1 2 2 1 3 3 4 5 5 6 6 7 7 11 8 8 9 10 10 9 11 12 12 14 13
REMARK SMILES IDX 13 14
REMARK H PARENT
REMARK Flexibility Score: inf
ROOT
ATOM      1  C   UNL     1       5.501   1.930   1.252  1.00  0.00     0.080 C 
ENDROOT
BRANCH   1   2
ATOM      2  C   UNL     1       5.061   0.716   1.995  1.00  0.00     0.130 C 
ATOM      3  C   UNL     1       5.949  -0.467   2.153  1.00  0.00     0.087 C 
ATOM      4  O   UNL     1       3.951   0.658   2.499  1.00  0.00    -0.300 OA
ENDBRANCH   1   2
BRANCH   1   5
ATOM      5  C   UNL     1       5.380   1.733  -0.246  1.00  0.00     0.043 C 
BRANCH   5   6
ATOM      6  C   UNL     1       6.551   1.032  -0.801  1.00  0.00    -0.044 A 
ATOM      7  C   UNL     1       7.856   1.466  -0.542  1.00  0.00     0.008 A 
ATOM      8  C   UNL     1       6.370  -0.080  -1.592  1.00  0.00     0.054 A 
ATOM      9  C   UNL     1       8.917   0.768  -1.089  1.00  0.00     0.051 A 
ATOM     10  C   UNL     1       7.446  -0.783  -2.143  1.00  0.00     0.166 A 
ATOM     11  C   UNL     1       8.730  -0.355  -1.889  1.00  0.00     0.165 A 
ATOM     12  O   UNL     1       7.526  -1.898  -2.949  1.00  0.00    -0.454 OA
ATOM     13  O   UNL     1       9.581  -1.226  -2.551  1.00  0.00    -0.454 OA
ATOM     14  C   UNL     1       8.863  -2.272  -3.161  1.00  0.00     0.468 C 
ENDBRANCH   5   6
ENDBRANCH   1   5
TORSDOF 3
ENDMDL
MODEL 2
REMARK VINA RESULT:      -7.4      1.950      2.422
REMARK SMILES CC(=O)CCc1ccc2c(c1)OCO2
REMARK SMILES IDX 4 1 2 2 1 3 3 4 5 5 6 6 7 7 11 8 8 9 10 10 9 11 12 12 14 13
REMARK SMILES IDX 13 14
REMARK H PARENT
REMARK Flexibility Score: inf
ROOT
ATOM      1  C   UNL     1       5.823   1.332  -0.249  1.00  0.00     0.080 C 
ENDROOT
BRANCH   1   2
ATOM      2  C   UNL     1       5.200   1.230   1.100  1.00  0.00     0.130 C 
ATOM      3  C   UNL     1       5.351   0.011   1.940  1.00  0.00     0.087 C 
ATOM      4  O   UNL     1       4.542   2.150   1.558  1.00  0.00    -0.300 OA
ENDBRANCH   1   2
BRANCH   1   5
ATOM      5  C   UNL     1       7.312   1.057  -0.190  1.00  0.00     0.043 C 
BRANCH   5   6
ATOM      6  C   UNL     1       7.656  -0.233  -0.815  1.00  0.00    -0.044 A 
ATOM      7  C   UNL     1       7.664  -0.394  -2.205  1.00  0.00     0.008 A 
ATOM      8  C   UNL     1       7.979  -1.311  -0.022  1.00  0.00     0.054 A 
ATOM      9  C   UNL     1       7.995  -1.628  -2.735  1.00  0.00     0.051 A 
ATOM     10  C   UNL     1       8.314  -2.556  -0.563  1.00  0.00     0.166 A 
ATOM     11  C   UNL     1       8.321  -2.716  -1.931  1.00  0.00     0.165 A 
ATOM     12  O   UNL     1       8.667  -3.762   0.003  1.00  0.00    -0.454 OA
ATOM     13  O   UNL     1       8.684  -4.030  -2.179  1.00  0.00    -0.454 OA
ATOM     14  C   UNL     1       9.000  -4.704  -0.984  1.00  0.00     0.468 C 
ENDBRANCH   5   6
ENDBRANCH   1   5
TORSDOF 3
ENDMDL
MODEL 3
REMARK VINA RESULT:      -7.1      2.093      2.625
REMARK SMILES CC(=O)CCc1ccc2c(c1)OCO2
REMARK SMILES IDX 4 1 2 2 1 3 3 4 5 5 6 6 7 7 11 8 8 9 10 10 9 11 12 12 14 13
REMARK SMILES IDX 13 14
REMARK H PARENT
REMARK Flexibility Score: inf
ROOT
ATOM      1  C   UNL     1       5.555   0.015   1.948  1.00  0.00     0.080 C 
ENDROOT
BRANCH   1   2
ATOM      2  C   UNL     1       4.664   1.169   1.643  1.00  0.00     0.130 C 
ATOM      3  C   UNL     1       4.957   2.107   0.525  1.00  0.00     0.087 C 
ATOM      4  O   UNL     1       3.662   1.381   2.306  1.00  0.00    -0.300 OA
ENDBRANCH   1   2
BRANCH   1   5
ATOM      5  C   UNL     1       6.971   0.272   1.474  1.00  0.00     0.043 C 
BRANCH   5   6
ATOM      6  C   UNL     1       7.384  -0.693   0.439  1.00  0.00    -0.044 A 
ATOM      7  C   UNL     1       7.301  -0.387  -0.924  1.00  0.00     0.008 A 
ATOM      8  C   UNL     1       7.868  -1.927   0.811  1.00  0.00     0.054 A 
ATOM      9  C   UNL     1       7.704  -1.331  -1.850  1.00  0.00     0.051 A 
ATOM     10  C   UNL     1       8.275  -2.878  -0.130  1.00  0.00     0.166 A 
ATOM     11  C   UNL     1       8.192  -2.578  -1.471  1.00  0.00     0.165 A 
ATOM     12  O   UNL     1       8.782  -4.155  -0.015  1.00  0.00    -0.454 OA
ATOM     13  O   UNL     1       8.655  -3.688  -2.160  1.00  0.00    -0.454 OA
ATOM     14  C   UNL     1       9.124  -4.676  -1.274  1.00  0.00     0.468 C 
ENDBRANCH   5   6
ENDBRANCH   1   5
TORSDOF 3
ENDMDL
MODEL 4
REMARK VINA RESULT:      -7.1      1.249      1.455
REMARK SMILES CC(=O)CCc1ccc2c(c1)OCO2
REMARK SMILES IDX 4 1 2 2 1 3 3 4 5 5 6 6 7 7 11 8 8 9 10 10 9 11 12 12 14 13
REMARK SMILES IDX 13 14
REMARK H PARENT
REMARK Flexibility Score: inf
ROOT
ATOM      1  C   UNL     1       6.368   1.229   0.923  1.00  0.00     0.080 C 
ENDROOT
BRANCH   1   2
ATOM      2  C   UNL     1       5.660   0.388   1.928  1.00  0.00     0.130 C 
ATOM      3  C   UNL     1       6.283  -0.836   2.499  1.00  0.00     0.087 C 
ATOM      4  O   UNL     1       4.540   0.682   2.313  1.00  0.00    -0.300 OA
ENDBRANCH   1   2
BRANCH   1   5
ATOM      5  C   UNL     1       5.865   0.953  -0.480  1.00  0.00     0.043 C 
BRANCH   5   6
ATOM      6  C   UNL     1       6.813   0.126  -1.248  1.00  0.00    -0.044 A 
ATOM      7  C   UNL     1       7.510   0.641  -2.347  1.00  0.00     0.008 A 
ATOM      8  C   UNL     1       7.027  -1.183  -0.883  1.00  0.00     0.054 A 
ATOM      9  C   UNL     1       8.388  -0.182  -3.029  1.00  0.00     0.051 A 
ATOM     10  C   UNL     1       7.917  -2.011  -1.575  1.00  0.00     0.166 A 
ATOM     11  C   UNL     1       8.602  -1.506  -2.658  1.00  0.00     0.165 A 
ATOM     12  O   UNL     1       8.297  -3.326  -1.413  1.00  0.00    -0.454 OA
ATOM     13  O   UNL     1       9.399  -2.531  -3.142  1.00  0.00    -0.454 OA
ATOM     14  C   UNL     1       9.305  -3.676  -2.327  1.00  0.00     0.468 C 
ENDBRANCH   5   6
ENDBRANCH   1   5
TORSDOF 3
ENDMDL
MODEL 5
REMARK VINA RESULT:      -6.8      1.191      5.193
REMARK SMILES CC(=O)CCc1ccc2c(c1)OCO2
REMARK SMILES IDX 4 1 2 2 1 3 3 4 5 5 6 6 7 7 11 8 8 9 10 10 9 11 12 12 14 13
REMARK SMILES IDX 13 14
REMARK H PARENT
REMARK Flexibility Score: inf
ROOT
ATOM      1  C   UNL     1       8.308   0.135  -2.652  1.00  0.00     0.080 C 
ENDROOT
BRANCH   1   2
ATOM      2  C   UNL     1       8.060  -1.327  -2.792  1.00  0.00     0.130 C 
ATOM      3  C   UNL     1       9.171  -2.288  -3.023  1.00  0.00     0.087 C 
ATOM      4  O   UNL     1       6.930  -1.781  -2.721  1.00  0.00    -0.300 OA
ENDBRANCH   1   2
BRANCH   1   5
ATOM      5  C   UNL     1       8.857   0.471  -1.279  1.00  0.00     0.043 C 
BRANCH   5   6
ATOM      6  C   UNL     1       7.824   0.362  -0.235  1.00  0.00    -0.044 A 
ATOM      7  C   UNL     1       7.927  -0.571   0.803  1.00  0.00     0.008 A 
ATOM      8  C   UNL     1       6.728   1.193  -0.270  1.00  0.00     0.054 A 
ATOM      9  C   UNL     1       6.926  -0.628   1.756  1.00  0.00     0.051 A 
ATOM     10  C   UNL     1       5.719   1.132   0.696  1.00  0.00     0.166 A 
ATOM     11  C   UNL     1       5.819   0.214   1.718  1.00  0.00     0.165 A 
ATOM     12  O   UNL     1       4.548   1.838   0.879  1.00  0.00    -0.454 OA
ATOM     13  O   UNL     1       4.697   0.377   2.514  1.00  0.00    -0.454 OA
ATOM     14  C   UNL     1       3.910   1.456   2.070  1.00  0.00     0.468 C 
ENDBRANCH   5   6
ENDBRANCH   1   5
TORSDOF 3
ENDMDL
