@<TRIPOS>MOLECULE
/home/cewinharhar/GITHUB/reincatalyze/data/processed/docking_pred/2023-May-24-1506_sub9_nm5_bs15_s42_ex16_mel10_mts10000_k50_ec02_g099_lra3e-4_lrc3e-3/87c24324279ed01ab1d4888e5c128f335f215516_ligand_9.pdbqt
 14 15 0 0 0
SMALL
GASTEIGER

@<TRIPOS>ATOM
      1  C          5.3220   -0.0670    1.9720 C.3     1  UNL1        0.0800
      2  C          4.4430    1.1210    1.7880 C.2     1  UNL1        0.1300
      3  C          4.7270    2.1500    0.7520 C.3     1  UNL1        0.0870
      4  O          3.4580    1.2860    2.4890 O.2     1  UNL1       -0.3000
      5  C          6.7870    0.3170    1.9070 C.3     1  UNL1        0.0430
      6  C          7.3890   -0.0390    0.6090 C.2     1  UNL1       -0.0440
      7  C          7.8740    0.9380   -0.2670 C.2     1  UNL1        0.0080
      8  C          7.4820   -1.3620    0.2410 C.2     1  UNL1        0.0540
      9  C          8.4290    0.5440   -1.4710 C.2     1  UNL1        0.0510
     10  C          8.0450   -1.7560   -0.9770 C.2     1  UNL1        0.1660
     11  C          8.5210   -0.7940   -1.8400 C.2     1  UNL1        0.1650
     12  O          8.2490   -2.9860   -1.5640 O.2     1  UNL1       -0.4540
     13  O          9.0140   -1.4620   -2.9510 O.2     1  UNL1       -0.4540
     14  C          8.9440   -2.8570   -2.7780 C.3     1  UNL1        0.4680
@<TRIPOS>BOND
     1    13    14    1
     2    13    11    1
     3    14    12    1
     4    11     9    2
     5    11    10    1
     6    12    10    1
     7     9     7    1
     8    10     8    2
     9     7     6    2
    10     8     6    1
    11     6     5    1
    12     3     2    1
    13     2     1    1
    14     2     4    2
    15     5     1    1
