@<TRIPOS>MOLECULE
/home/cewinharhar/GITHUB/reincatalyze/data/processed/docking_pred/2023-May-24-1506_sub9_nm5_bs15_s42_ex16_mel10_mts10000_k50_ec02_g099_lra3e-4_lrc3e-3/87c24324279ed01ab1d4888e5c128f335f215516_ligand_9.pdbqt
 14 15 0 0 0
SMALL
GASTEIGER

@<TRIPOS>ATOM
      1  C          5.7440    1.2550   -0.2860 C.3     1  UNL1        0.0800
      2  C          5.1970    1.1990    1.0980 C.2     1  UNL1        0.1300
      3  C          5.3580   -0.0070    1.9540 C.3     1  UNL1        0.0870
      4  O          4.5970    2.1500    1.5730 O.2     1  UNL1       -0.3000
      5  C          7.2460    1.0500   -0.2940 C.3     1  UNL1        0.0430
      6  C          7.6180   -0.2410   -0.9000 C.2     1  UNL1       -0.0440
      7  C          7.6790   -0.4070   -2.2890 C.2     1  UNL1        0.0080
      8  C          7.9180   -1.3140   -0.0920 C.2     1  UNL1        0.0540
      9  C          8.0360   -1.6420   -2.8010 C.2     1  UNL1        0.0510
     10  C          8.2790   -2.5590   -0.6150 C.2     1  UNL1        0.1660
     11  C          8.3370   -2.7240   -1.9810 C.2     1  UNL1        0.1650
     12  O          8.6160   -3.7610   -0.0310 O.2     1  UNL1       -0.4540
     13  O          8.7150   -4.0380   -2.2100 O.2     1  UNL1       -0.4540
     14  C          8.9910   -4.7060   -1.0010 C.3     1  UNL1        0.4680
@<TRIPOS>BOND
     1     9     7    1
     2     9    11    2
     3     7     6    2
     4    13    11    1
     5    13    14    1
     6    11    10    1
     7    14    12    1
     8     6     5    1
     9     6     8    1
    10    10     8    2
    11    10    12    1
    12     5     1    1
    13     1     2    1
    14     2     4    2
    15     2     3    1
