@<TRIPOS>MOLECULE
/home/cewinharhar/GITHUB/reincatalyze/data/processed/docking_pred/2023-May-24-1506_sub9_nm5_bs15_s42_ex16_mel10_mts10000_k50_ec02_g099_lra3e-4_lrc3e-3/87c24324279ed01ab1d4888e5c128f335f215516_ligand_9.pdbqt
 14 15 0 0 0
SMALL
GASTEIGER

@<TRIPOS>ATOM
      1  C          6.3920    1.1690    0.9630 C.3     1  UNL1        0.0800
      2  C          5.6450    0.3430    1.9520 C.2     1  UNL1        0.1300
      3  C          6.2340   -0.8860    2.5470 C.3     1  UNL1        0.0870
      4  O          4.5180    0.6540    2.3040 O.2     1  UNL1       -0.3000
      5  C          5.8930    0.9260   -0.4470 C.3     1  UNL1        0.0430
      6  C          6.8300    0.0930   -1.2230 C.2     1  UNL1       -0.0440
      7  C          7.4940    0.5920   -2.3490 C.2     1  UNL1        0.0080
      8  C          7.0660   -1.2070   -0.8380 C.2     1  UNL1        0.0540
      9  C          8.3630   -0.2350   -3.0370 C.2     1  UNL1        0.0510
     10  C          7.9460   -2.0390   -1.5360 C.2     1  UNL1        0.1660
     11  C          8.5990   -1.5490   -2.6450 C.2     1  UNL1        0.1650
     12  O          8.3440   -3.3470   -1.3580 O.2     1  UNL1       -0.4540
     13  O          9.3940   -2.5770   -3.1290 O.2     1  UNL1       -0.4540
     14  C          9.3310   -3.7060   -2.2900 C.3     1  UNL1        0.4680
@<TRIPOS>BOND
     1    13    11    1
     2    13    14    1
     3     9    11    2
     4     9     7    1
     5    11    10    1
     6     7     6    2
     7    14    12    1
     8    10    12    1
     9    10     8    2
    10     6     8    1
    11     6     5    1
    12     5     1    1
    13     1     2    1
    14     2     4    2
    15     2     3    1
