@<TRIPOS>MOLECULE
/home/cewinharhar/GITHUB/reincatalyze/data/processed/docking_pred/2023-May-24-1506_sub9_nm5_bs15_s42_ex16_mel10_mts10000_k50_ec02_g099_lra3e-4_lrc3e-3/88c4e0f8a026884e113c16f062f94e0c253125d7_ligand_9.pdbqt
 14 15 0 0 0
SMALL
GASTEIGER

@<TRIPOS>ATOM
      1  C          5.5590    1.9160    1.2770 C.3     1  UNL1        0.0800
      2  C          5.1210    0.6980    2.0140 C.2     1  UNL1        0.1300
      3  C          6.0220   -0.4710    2.1970 C.3     1  UNL1        0.0870
      4  O          4.0000    0.6240    2.4920 O.2     1  UNL1       -0.3000
      5  C          5.4240    1.7310   -0.2210 C.3     1  UNL1        0.0430
      6  C          6.5870    1.0280   -0.7920 C.2     1  UNL1       -0.0440
      7  C          7.8960    1.4610   -0.5520 C.2     1  UNL1        0.0080
      8  C          6.3920   -0.0840   -1.5800 C.2     1  UNL1        0.0540
      9  C          8.9480    0.7610   -1.1130 C.2     1  UNL1        0.0510
     10  C          7.4590   -0.7890   -2.1440 C.2     1  UNL1        0.1660
     11  C          8.7480   -0.3630   -1.9100 C.2     1  UNL1        0.1650
     12  O          7.5260   -1.9050   -2.9510 O.2     1  UNL1       -0.4540
     13  O          9.5880   -1.2360   -2.5830 O.2     1  UNL1       -0.4540
     14  C          8.8590   -2.2820   -3.1810 C.3     1  UNL1        0.4680
@<TRIPOS>BOND
     1    14    12    1
     2    14    13    1
     3    12    10    1
     4    13    11    1
     5    10    11    2
     6    10     8    1
     7    11     9    1
     8     8     6    2
     9     9     7    2
    10     6     7    1
    11     6     5    1
    12     5     1    1
    13     1     2    1
    14     2     3    1
    15     2     4    2
