MODEL 1
REMARK VINA RESULT:      -7.6      0.000      0.000
REMARK SMILES CC(=O)CCc1ccc2c(c1)OCO2
REMARK SMILES IDX 4 1 2 2 1 3 3 4 5 5 6 6 7 7 11 8 8 9 10 10 9 11 12 12 14 13
REMARK SMILES IDX 13 14
REMARK H PARENT
REMARK Flexibility Score: inf
ROOT
ATOM      1  C   UNL     1       5.559   1.916   1.277  1.00  0.00     0.080 C 
ENDROOT
BRANCH   1   2
ATOM      2  C   UNL     1       5.121   0.698   2.014  1.00  0.00     0.130 C 
ATOM      3  C   UNL     1       6.022  -0.471   2.197  1.00  0.00     0.087 C 
ATOM      4  O   UNL     1       4.000   0.624   2.492  1.00  0.00    -0.300 OA
ENDBRANCH   1   2
BRANCH   1   5
ATOM      5  C   UNL     1       5.424   1.731  -0.221  1.00  0.00     0.043 C 
BRANCH   5   6
ATOM      6  C   UNL     1       6.587   1.028  -0.792  1.00  0.00    -0.044 A 
ATOM      7  C   UNL     1       7.896   1.461  -0.552  1.00  0.00     0.008 A 
ATOM      8  C   UNL     1       6.392  -0.084  -1.580  1.00  0.00     0.054 A 
ATOM      9  C   UNL     1       8.948   0.761  -1.113  1.00  0.00     0.051 A 
ATOM     10  C   UNL     1       7.459  -0.789  -2.144  1.00  0.00     0.166 A 
ATOM     11  C   UNL     1       8.748  -0.363  -1.910  1.00  0.00     0.165 A 
ATOM     12  O   UNL     1       7.526  -1.905  -2.951  1.00  0.00    -0.454 OA
ATOM     13  O   UNL     1       9.588  -1.236  -2.583  1.00  0.00    -0.454 OA
ATOM     14  C   UNL     1       8.859  -2.282  -3.181  1.00  0.00     0.468 C 
ENDBRANCH   5   6
ENDBRANCH   1   5
TORSDOF 3
ENDMDL
MODEL 2
REMARK VINA RESULT:      -7.2      2.055      2.632
REMARK SMILES CC(=O)CCc1ccc2c(c1)OCO2
REMARK SMILES IDX 4 1 2 2 1 3 3 4 5 5 6 6 7 7 11 8 8 9 10 10 9 11 12 12 14 13
REMARK SMILES IDX 13 14
REMARK H PARENT
REMARK Flexibility Score: inf
ROOT
ATOM      1  C   UNL     1       5.399  -0.075   2.012  1.00  0.00     0.080 C 
ENDROOT
BRANCH   1   2
ATOM      2  C   UNL     1       4.562   1.134   1.773  1.00  0.00     0.130 C 
ATOM      3  C   UNL     1       4.909   2.128   0.723  1.00  0.00     0.087 C 
ATOM      4  O   UNL     1       3.562   1.345   2.439  1.00  0.00    -0.300 OA
ENDBRANCH   1   2
BRANCH   1   5
ATOM      5  C   UNL     1       6.842   0.167   1.617  1.00  0.00     0.043 C 
BRANCH   5   6
ATOM      6  C   UNL     1       7.277  -0.750   0.548  1.00  0.00    -0.044 A 
ATOM      7  C   UNL     1       7.165  -0.405  -0.804  1.00  0.00     0.008 A 
ATOM      8  C   UNL     1       7.811  -1.975   0.875  1.00  0.00     0.054 A 
ATOM      9  C   UNL     1       7.591  -1.305  -1.764  1.00  0.00     0.051 A 
ATOM     10  C   UNL     1       8.240  -2.882  -0.098  1.00  0.00     0.166 A 
ATOM     11  C   UNL     1       8.129  -2.544  -1.429  1.00  0.00     0.165 A 
ATOM     12  O   UNL     1       8.795  -4.142  -0.029  1.00  0.00    -0.454 OA
ATOM     13  O   UNL     1       8.625  -3.615  -2.157  1.00  0.00    -0.454 OA
ATOM     14  C   UNL     1       9.141  -4.611  -1.307  1.00  0.00     0.468 C 
ENDBRANCH   5   6
ENDBRANCH   1   5
TORSDOF 3
ENDMDL
MODEL 3
REMARK VINA RESULT:      -7.2      1.782      2.196
REMARK SMILES CC(=O)CCc1ccc2c(c1)OCO2
REMARK SMILES IDX 4 1 2 2 1 3 3 4 5 5 6 6 7 7 11 8 8 9 10 10 9 11 12 12 14 13
REMARK SMILES IDX 13 14
REMARK H PARENT
REMARK Flexibility Score: inf
ROOT
ATOM      1  C   UNL     1       5.774   1.655  -0.033  1.00  0.00     0.080 C 
ENDROOT
BRANCH   1   2
ATOM      2  C   UNL     1       5.028   1.293   1.204  1.00  0.00     0.130 C 
ATOM      3  C   UNL     1       5.385   0.093   2.008  1.00  0.00     0.087 C 
ATOM      4  O   UNL     1       4.096   1.975   1.596  1.00  0.00    -0.300 OA
ENDBRANCH   1   2
BRANCH   1   5
ATOM      5  C   UNL     1       7.238   1.274   0.075  1.00  0.00     0.043 C 
BRANCH   5   6
ATOM      6  C   UNL     1       7.534   0.029  -0.656  1.00  0.00    -0.044 A 
ATOM      7  C   UNL     1       7.415  -0.049  -2.049  1.00  0.00     0.008 A 
ATOM      8  C   UNL     1       7.941  -1.088   0.036  1.00  0.00     0.054 A 
ATOM      9  C   UNL     1       7.708  -1.244  -2.681  1.00  0.00     0.051 A 
ATOM     10  C   UNL     1       8.237  -2.294  -0.607  1.00  0.00     0.166 A 
ATOM     11  C   UNL     1       8.119  -2.372  -1.977  1.00  0.00     0.165 A 
ATOM     12  O   UNL     1       8.653  -3.526  -0.150  1.00  0.00    -0.454 OA
ATOM     13  O   UNL     1       8.470  -3.664  -2.337  1.00  0.00    -0.454 OA
ATOM     14  C   UNL     1       8.902  -4.402  -1.219  1.00  0.00     0.468 C 
ENDBRANCH   5   6
ENDBRANCH   1   5
TORSDOF 3
ENDMDL
MODEL 4
REMARK VINA RESULT:      -7.1      1.256      1.470
REMARK SMILES CC(=O)CCc1ccc2c(c1)OCO2
REMARK SMILES IDX 4 1 2 2 1 3 3 4 5 5 6 6 7 7 11 8 8 9 10 10 9 11 12 12 14 13
REMARK SMILES IDX 13 14
REMARK H PARENT
REMARK Flexibility Score: inf
ROOT
ATOM      1  C   UNL     1       6.382   1.164   0.960  1.00  0.00     0.080 C 
ENDROOT
BRANCH   1   2
ATOM      2  C   UNL     1       5.639   0.346   1.959  1.00  0.00     0.130 C 
ATOM      3  C   UNL     1       6.225  -0.887   2.550  1.00  0.00     0.087 C 
ATOM      4  O   UNL     1       4.520   0.667   2.324  1.00  0.00    -0.300 OA
ENDBRANCH   1   2
BRANCH   1   5
ATOM      5  C   UNL     1       5.871   0.913  -0.445  1.00  0.00     0.043 C 
BRANCH   5   6
ATOM      6  C   UNL     1       6.809   0.089  -1.228  1.00  0.00    -0.044 A 
ATOM      7  C   UNL     1       7.468   0.597  -2.353  1.00  0.00     0.008 A 
ATOM      8  C   UNL     1       7.051  -1.213  -0.852  1.00  0.00     0.054 A 
ATOM      9  C   UNL     1       8.338  -0.223  -3.048  1.00  0.00     0.051 A 
ATOM     10  C   UNL     1       7.932  -2.038  -1.558  1.00  0.00     0.166 A 
ATOM     11  C   UNL     1       8.580  -1.539  -2.665  1.00  0.00     0.165 A 
ATOM     12  O   UNL     1       8.335  -3.345  -1.388  1.00  0.00    -0.454 OA
ATOM     13  O   UNL     1       9.377  -2.561  -3.157  1.00  0.00    -0.454 OA
ATOM     14  C   UNL     1       9.321  -3.695  -2.325  1.00  0.00     0.468 C 
ENDBRANCH   5   6
ENDBRANCH   1   5
TORSDOF 3
ENDMDL
MODEL 5
REMARK VINA RESULT:      -6.8      1.266      1.759
REMARK SMILES CC(=O)CCc1ccc2c(c1)OCO2
REMARK SMILES IDX 4 1 2 2 1 3 3 4 5 5 6 6 7 7 11 8 8 9 10 10 9 11 12 12 14 13
REMARK SMILES IDX 13 14
REMARK H PARENT
REMARK Flexibility Score: inf
ROOT
ATOM      1  C   UNL     1       5.311  -0.092   1.949  1.00  0.00     0.080 C 
ENDROOT
BRANCH   1   2
ATOM      2  C   UNL     1       4.448   1.111   1.783  1.00  0.00     0.130 C 
ATOM      3  C   UNL     1       4.745   2.150   0.761  1.00  0.00     0.087 C 
ATOM      4  O   UNL     1       3.466   1.279   2.488  1.00  0.00    -0.300 OA
ENDBRANCH   1   2
BRANCH   1   5
ATOM      5  C   UNL     1       6.781   0.274   1.898  1.00  0.00     0.043 C 
BRANCH   5   6
ATOM      6  C   UNL     1       7.387  -0.075   0.601  1.00  0.00    -0.044 A 
ATOM      7  C   UNL     1       7.876   0.907  -0.268  1.00  0.00     0.008 A 
ATOM      8  C   UNL     1       7.482  -1.396   0.226  1.00  0.00     0.054 A 
ATOM      9  C   UNL     1       8.435   0.520  -1.472  1.00  0.00     0.051 A 
ATOM     10  C   UNL     1       8.049  -1.782  -0.992  1.00  0.00     0.166 A 
ATOM     11  C   UNL     1       8.529  -0.816  -1.849  1.00  0.00     0.165 A 
ATOM     12  O   UNL     1       8.255  -3.010  -1.586  1.00  0.00    -0.454 OA
ATOM     13  O   UNL     1       9.026  -1.478  -2.961  1.00  0.00    -0.454 OA
ATOM     14  C   UNL     1       8.955  -2.874  -2.796  1.00  0.00     0.468 C 
ENDBRANCH   5   6
ENDBRANCH   1   5
TORSDOF 3
ENDMDL
