@<TRIPOS>MOLECULE
/home/cewinharhar/GITHUB/reincatalyze/data/processed/docking_pred/2023-May-24-1506_sub9_nm5_bs15_s42_ex16_mel10_mts10000_k50_ec02_g099_lra3e-4_lrc3e-3/88c4e0f8a026884e113c16f062f94e0c253125d7_ligand_9.pdbqt
 14 15 0 0 0
SMALL
GASTEIGER

@<TRIPOS>ATOM
      1  C          6.3820    1.1640    0.9600 C.3     1  UNL1        0.0800
      2  C          5.6390    0.3460    1.9590 C.2     1  UNL1        0.1300
      3  C          6.2250   -0.8870    2.5500 C.3     1  UNL1        0.0870
      4  O          4.5200    0.6670    2.3240 O.2     1  UNL1       -0.3000
      5  C          5.8710    0.9130   -0.4450 C.3     1  UNL1        0.0430
      6  C          6.8090    0.0890   -1.2280 C.2     1  UNL1       -0.0440
      7  C          7.4680    0.5970   -2.3530 C.2     1  UNL1        0.0080
      8  C          7.0510   -1.2130   -0.8520 C.2     1  UNL1        0.0540
      9  C          8.3380   -0.2230   -3.0480 C.2     1  UNL1        0.0510
     10  C          7.9320   -2.0380   -1.5580 C.2     1  UNL1        0.1660
     11  C          8.5800   -1.5390   -2.6650 C.2     1  UNL1        0.1650
     12  O          8.3350   -3.3450   -1.3880 O.2     1  UNL1       -0.4540
     13  O          9.3770   -2.5610   -3.1570 O.2     1  UNL1       -0.4540
     14  C          9.3210   -3.6950   -2.3250 C.3     1  UNL1        0.4680
@<TRIPOS>BOND
     1    13    11    1
     2    13    14    1
     3     9    11    2
     4     9     7    1
     5    11    10    1
     6     7     6    2
     7    14    12    1
     8    10    12    1
     9    10     8    2
    10     6     8    1
    11     6     5    1
    12     5     1    1
    13     1     2    1
    14     2     4    2
    15     2     3    1
