@<TRIPOS>MOLECULE
/home/cewinharhar/GITHUB/reincatalyze/data/processed/docking_pred/2023-May-24-1506_sub9_nm5_bs15_s42_ex16_mel10_mts10000_k50_ec02_g099_lra3e-4_lrc3e-3/88c4e0f8a026884e113c16f062f94e0c253125d7_ligand_9.pdbqt
 14 15 0 0 0
SMALL
GASTEIGER

@<TRIPOS>ATOM
      1  C          5.3110   -0.0920    1.9490 C.3     1  UNL1        0.0800
      2  C          4.4480    1.1110    1.7830 C.2     1  UNL1        0.1300
      3  C          4.7450    2.1500    0.7610 C.3     1  UNL1        0.0870
      4  O          3.4660    1.2790    2.4880 O.2     1  UNL1       -0.3000
      5  C          6.7810    0.2740    1.8980 C.3     1  UNL1        0.0430
      6  C          7.3870   -0.0750    0.6010 C.2     1  UNL1       -0.0440
      7  C          7.8760    0.9070   -0.2680 C.2     1  UNL1        0.0080
      8  C          7.4820   -1.3960    0.2260 C.2     1  UNL1        0.0540
      9  C          8.4350    0.5200   -1.4720 C.2     1  UNL1        0.0510
     10  C          8.0490   -1.7820   -0.9920 C.2     1  UNL1        0.1660
     11  C          8.5290   -0.8160   -1.8490 C.2     1  UNL1        0.1650
     12  O          8.2550   -3.0100   -1.5860 O.2     1  UNL1       -0.4540
     13  O          9.0260   -1.4780   -2.9610 O.2     1  UNL1       -0.4540
     14  C          8.9550   -2.8740   -2.7960 C.3     1  UNL1        0.4680
@<TRIPOS>BOND
     1    13    14    1
     2    13    11    1
     3    14    12    1
     4    11     9    2
     5    11    10    1
     6    12    10    1
     7     9     7    1
     8    10     8    2
     9     7     6    2
    10     8     6    1
    11     6     5    1
    12     3     2    1
    13     2     1    1
    14     2     4    2
    15     5     1    1
