@<TRIPOS>MOLECULE
/home/cewinharhar/GITHUB/reincatalyze/data/processed/docking_pred/2023-May-24-1506_sub9_nm5_bs15_s42_ex16_mel10_mts10000_k50_ec02_g099_lra3e-4_lrc3e-3/895ea28dab147140afd805a2e235fc395d2e1c3a_ligand_9.pdbqt
 14 15 0 0 0
SMALL
GASTEIGER

@<TRIPOS>ATOM
      1  C          5.5450    1.9350    1.2690 C.3     1  UNL1        0.0800
      2  C          5.1190    0.7160    2.0110 C.2     1  UNL1        0.1300
      3  C          6.0300   -0.4450    2.1950 C.3     1  UNL1        0.0870
      4  O          4.0000    0.6340    2.4930 O.2     1  UNL1       -0.3000
      5  C          5.4100    1.7420   -0.2290 C.3     1  UNL1        0.0430
      6  C          6.5740    1.0370   -0.7950 C.2     1  UNL1       -0.0440
      7  C          7.8830    1.4660   -0.5480 C.2     1  UNL1        0.0080
      8  C          6.3800   -0.0720   -1.5870 C.2     1  UNL1        0.0540
      9  C          8.9360    0.7640   -1.1060 C.2     1  UNL1        0.0510
     10  C          7.4480   -0.7780   -2.1480 C.2     1  UNL1        0.1660
     11  C          8.7370   -0.3560   -1.9060 C.2     1  UNL1        0.1650
     12  O          7.5160   -1.8930   -2.9570 O.2     1  UNL1       -0.4540
     13  O          9.5780   -1.2300   -2.5770 O.2     1  UNL1       -0.4540
     14  C          8.8500   -2.2730   -3.1820 C.3     1  UNL1        0.4680
@<TRIPOS>BOND
     1    14    12    1
     2    14    13    1
     3    12    10    1
     4    13    11    1
     5    10    11    2
     6    10     8    1
     7    11     9    1
     8     8     6    2
     9     9     7    2
    10     6     7    1
    11     6     5    1
    12     5     1    1
    13     1     2    1
    14     2     3    1
    15     2     4    2
