MODEL 1
REMARK VINA RESULT:      -7.6      0.000      0.000
REMARK SMILES CC(=O)CCc1ccc2c(c1)OCO2
REMARK SMILES IDX 4 1 2 2 1 3 3 4 5 5 6 6 7 7 11 8 8 9 10 10 9 11 12 12 14 13
REMARK SMILES IDX 13 14
REMARK H PARENT
REMARK Flexibility Score: inf
ROOT
ATOM      1  C   UNL     1       5.520   1.941   1.262  1.00  0.00     0.080 C 
ENDROOT
BRANCH   1   2
ATOM      2  C   UNL     1       5.096   0.724   2.008  1.00  0.00     0.130 C 
ATOM      3  C   UNL     1       6.007  -0.437   2.191  1.00  0.00     0.087 C 
ATOM      4  O   UNL     1       3.979   0.644   2.494  1.00  0.00    -0.300 OA
ENDBRANCH   1   2
BRANCH   1   5
ATOM      5  C   UNL     1       5.391   1.741  -0.236  1.00  0.00     0.043 C 
BRANCH   5   6
ATOM      6  C   UNL     1       6.560   1.041  -0.796  1.00  0.00    -0.044 A 
ATOM      7  C   UNL     1       7.866   1.478  -0.546  1.00  0.00     0.008 A 
ATOM      8  C   UNL     1       6.376  -0.073  -1.584  1.00  0.00     0.054 A 
ATOM      9  C   UNL     1       8.925   0.780  -1.098  1.00  0.00     0.051 A 
ATOM     10  C   UNL     1       7.449  -0.775  -2.139  1.00  0.00     0.166 A 
ATOM     11  C   UNL     1       8.734  -0.345  -1.894  1.00  0.00     0.165 A 
ATOM     12  O   UNL     1       7.526  -1.893  -2.943  1.00  0.00    -0.454 OA
ATOM     13  O   UNL     1       9.582  -1.217  -2.559  1.00  0.00    -0.454 OA
ATOM     14  C   UNL     1       8.862  -2.266  -3.162  1.00  0.00     0.468 C 
ENDBRANCH   5   6
ENDBRANCH   1   5
TORSDOF 3
ENDMDL
MODEL 2
REMARK VINA RESULT:      -7.5      1.920      2.367
REMARK SMILES CC(=O)CCc1ccc2c(c1)OCO2
REMARK SMILES IDX 4 1 2 2 1 3 3 4 5 5 6 6 7 7 11 8 8 9 10 10 9 11 12 12 14 13
REMARK SMILES IDX 13 14
REMARK H PARENT
REMARK Flexibility Score: inf
ROOT
ATOM      1  C   UNL     1       5.674   1.289  -0.326  1.00  0.00     0.080 C 
ENDROOT
BRANCH   1   2
ATOM      2  C   UNL     1       5.080   1.255   1.040  1.00  0.00     0.130 C 
ATOM      3  C   UNL     1       5.357   0.139   1.984  1.00  0.00     0.087 C 
ATOM      4  O   UNL     1       4.343   2.148   1.425  1.00  0.00    -0.300 OA
ENDBRANCH   1   2
BRANCH   1   5
ATOM      5  C   UNL     1       7.179   1.113  -0.276  1.00  0.00     0.043 C 
BRANCH   5   6
ATOM      6  C   UNL     1       7.600  -0.167  -0.874  1.00  0.00    -0.044 A 
ATOM      7  C   UNL     1       7.756  -0.312  -2.258  1.00  0.00     0.008 A 
ATOM      8  C   UNL     1       7.850  -1.250  -0.063  1.00  0.00     0.054 A 
ATOM      9  C   UNL     1       8.154  -1.537  -2.762  1.00  0.00     0.051 A 
ATOM     10  C   UNL     1       8.252  -2.486  -0.578  1.00  0.00     0.166 A 
ATOM     11  C   UNL     1       8.405  -2.630  -1.939  1.00  0.00     0.165 A 
ATOM     12  O   UNL     1       8.556  -3.695   0.010  1.00  0.00    -0.454 OA
ATOM     13  O   UNL     1       8.805  -3.939  -2.161  1.00  0.00    -0.454 OA
ATOM     14  C   UNL     1       9.001  -4.623  -0.946  1.00  0.00     0.468 C 
ENDBRANCH   5   6
ENDBRANCH   1   5
TORSDOF 3
ENDMDL
MODEL 3
REMARK VINA RESULT:      -7.2      2.064      2.634
REMARK SMILES CC(=O)CCc1ccc2c(c1)OCO2
REMARK SMILES IDX 4 1 2 2 1 3 3 4 5 5 6 6 7 7 11 8 8 9 10 10 9 11 12 12 14 13
REMARK SMILES IDX 13 14
REMARK H PARENT
REMARK Flexibility Score: inf
ROOT
ATOM      1  C   UNL     1       5.448  -0.042   1.986  1.00  0.00     0.080 C 
ENDROOT
BRANCH   1   2
ATOM      2  C   UNL     1       4.582   1.144   1.736  1.00  0.00     0.130 C 
ATOM      3  C   UNL     1       4.877   2.110   0.645  1.00  0.00     0.087 C 
ATOM      4  O   UNL     1       3.598   1.358   2.426  1.00  0.00    -0.300 OA
ENDBRANCH   1   2
BRANCH   1   5
ATOM      5  C   UNL     1       6.874   0.214   1.541  1.00  0.00     0.043 C 
BRANCH   5   6
ATOM      6  C   UNL     1       7.295  -0.727   0.487  1.00  0.00    -0.044 A 
ATOM      7  C   UNL     1       7.162  -0.414  -0.870  1.00  0.00     0.008 A 
ATOM      8  C   UNL     1       7.835  -1.944   0.836  1.00  0.00     0.054 A 
ATOM      9  C   UNL     1       7.576  -1.337  -1.814  1.00  0.00     0.051 A 
ATOM     10  C   UNL     1       8.252  -2.872  -0.122  1.00  0.00     0.166 A 
ATOM     11  C   UNL     1       8.121  -2.566  -1.458  1.00  0.00     0.165 A 
ATOM     12  O   UNL     1       8.810  -4.130  -0.032  1.00  0.00    -0.454 OA
ATOM     13  O   UNL     1       8.607  -3.653  -2.168  1.00  0.00    -0.454 OA
ATOM     14  C   UNL     1       9.138  -4.629  -1.303  1.00  0.00     0.468 C 
ENDBRANCH   5   6
ENDBRANCH   1   5
TORSDOF 3
ENDMDL
MODEL 4
REMARK VINA RESULT:      -7.1      1.254      1.463
REMARK SMILES CC(=O)CCc1ccc2c(c1)OCO2
REMARK SMILES IDX 4 1 2 2 1 3 3 4 5 5 6 6 7 7 11 8 8 9 10 10 9 11 12 12 14 13
REMARK SMILES IDX 13 14
REMARK H PARENT
REMARK Flexibility Score: inf
ROOT
ATOM      1  C   UNL     1       6.310   1.222   0.875  1.00  0.00     0.080 C 
ENDROOT
BRANCH   1   2
ATOM      2  C   UNL     1       5.640   0.386   1.909  1.00  0.00     0.130 C 
ATOM      3  C   UNL     1       6.288  -0.829   2.471  1.00  0.00     0.087 C 
ATOM      4  O   UNL     1       4.531   0.677   2.328  1.00  0.00    -0.300 OA
ENDBRANCH   1   2
BRANCH   1   5
ATOM      5  C   UNL     1       5.803   0.890  -0.515  1.00  0.00     0.043 C 
BRANCH   5   6
ATOM      6  C   UNL     1       6.776   0.082  -1.272  1.00  0.00    -0.044 A 
ATOM      7  C   UNL     1       7.479   0.612  -2.360  1.00  0.00     0.008 A 
ATOM      8  C   UNL     1       7.007  -1.225  -0.909  1.00  0.00     0.054 A 
ATOM      9  C   UNL     1       8.380  -0.193  -3.033  1.00  0.00     0.051 A 
ATOM     10  C   UNL     1       7.919  -2.035  -1.592  1.00  0.00     0.166 A 
ATOM     11  C   UNL     1       8.611  -1.515  -2.663  1.00  0.00     0.165 A 
ATOM     12  O   UNL     1       8.319  -3.344  -1.429  1.00  0.00    -0.454 OA
ATOM     13  O   UNL     1       9.431  -2.526  -3.139  1.00  0.00    -0.454 OA
ATOM     14  C   UNL     1       9.345  -3.674  -2.330  1.00  0.00     0.468 C 
ENDBRANCH   5   6
ENDBRANCH   1   5
TORSDOF 3
ENDMDL
MODEL 5
REMARK VINA RESULT:      -7.1      1.966      2.519
REMARK SMILES CC(=O)CCc1ccc2c(c1)OCO2
REMARK SMILES IDX 4 1 2 2 1 3 3 4 5 5 6 6 7 7 11 8 8 9 10 10 9 11 12 12 14 13
REMARK SMILES IDX 13 14
REMARK H PARENT
REMARK Flexibility Score: inf
ROOT
ATOM      1  C   UNL     1       6.810   0.806   1.429  1.00  0.00     0.080 C 
ENDROOT
BRANCH   1   2
ATOM      2  C   UNL     1       5.363   1.149   1.500  1.00  0.00     0.130 C 
ATOM      3  C   UNL     1       4.750   2.144   0.580  1.00  0.00     0.087 C 
ATOM      4  O   UNL     1       4.633   0.619   2.322  1.00  0.00    -0.300 OA
ENDBRANCH   1   2
BRANCH   1   5
ATOM      5  C   UNL     1       7.363   1.036   0.036  1.00  0.00     0.043 C 
BRANCH   5   6
ATOM      6  C   UNL     1       7.667  -0.233  -0.648  1.00  0.00    -0.044 A 
ATOM      7  C   UNL     1       7.637  -0.340  -2.043  1.00  0.00     0.008 A 
ATOM      8  C   UNL     1       7.991  -1.347   0.094  1.00  0.00     0.054 A 
ATOM      9  C   UNL     1       7.932  -1.557  -2.629  1.00  0.00     0.051 A 
ATOM     10  C   UNL     1       8.289  -2.575  -0.504  1.00  0.00     0.166 A 
ATOM     11  C   UNL     1       8.259  -2.681  -1.877  1.00  0.00     0.165 A 
ATOM     12  O   UNL     1       8.635  -3.809   0.005  1.00  0.00    -0.454 OA
ATOM     13  O   UNL     1       8.591  -3.991  -2.185  1.00  0.00    -0.454 OA
ATOM     14  C   UNL     1       8.926  -4.717  -1.026  1.00  0.00     0.468 C 
ENDBRANCH   5   6
ENDBRANCH   1   5
TORSDOF 3
ENDMDL
