@<TRIPOS>MOLECULE
/home/cewinharhar/GITHUB/reincatalyze/data/processed/docking_pred/2023-May-24-1506_sub9_nm5_bs15_s42_ex16_mel10_mts10000_k50_ec02_g099_lra3e-4_lrc3e-3/8a11bcf53d23875e79cb17a52aa7b3de0dc85e7d_ligand_9.pdbqt
 14 15 0 0 0
SMALL
GASTEIGER

@<TRIPOS>ATOM
      1  C          6.8100    0.8060    1.4290 C.3     1  UNL1        0.0800
      2  C          5.3630    1.1490    1.5000 C.2     1  UNL1        0.1300
      3  C          4.7500    2.1440    0.5800 C.3     1  UNL1        0.0870
      4  O          4.6330    0.6190    2.3220 O.2     1  UNL1       -0.3000
      5  C          7.3630    1.0360    0.0360 C.3     1  UNL1        0.0430
      6  C          7.6670   -0.2330   -0.6480 C.2     1  UNL1       -0.0440
      7  C          7.6370   -0.3400   -2.0430 C.2     1  UNL1        0.0080
      8  C          7.9910   -1.3470    0.0940 C.2     1  UNL1        0.0540
      9  C          7.9320   -1.5570   -2.6290 C.2     1  UNL1        0.0510
     10  C          8.2890   -2.5750   -0.5040 C.2     1  UNL1        0.1660
     11  C          8.2590   -2.6810   -1.8770 C.2     1  UNL1        0.1650
     12  O          8.6350   -3.8090    0.0050 O.2     1  UNL1       -0.4540
     13  O          8.5910   -3.9910   -2.1850 O.2     1  UNL1       -0.4540
     14  C          8.9260   -4.7170   -1.0260 C.3     1  UNL1        0.4680
@<TRIPOS>BOND
     1     9     7    1
     2     9    11    2
     3    13    11    1
     4    13    14    1
     5     7     6    2
     6    11    10    1
     7    14    12    1
     8     6     5    1
     9     6     8    1
    10    10    12    1
    11    10     8    2
    12     5     1    1
    13     3     2    1
    14     1     2    1
    15     2     4    2
