@<TRIPOS>MOLECULE
/home/cewinharhar/GITHUB/reincatalyze/data/processed/docking_pred/2023-May-24-1506_sub9_nm5_bs15_s42_ex16_mel10_mts10000_k50_ec02_g099_lra3e-4_lrc3e-3/8a11bcf53d23875e79cb17a52aa7b3de0dc85e7d_ligand_9.pdbqt
 14 15 0 0 0
SMALL
GASTEIGER

@<TRIPOS>ATOM
      1  C          5.6740    1.2890   -0.3260 C.3     1  UNL1        0.0800
      2  C          5.0800    1.2550    1.0400 C.2     1  UNL1        0.1300
      3  C          5.3570    0.1390    1.9840 C.3     1  UNL1        0.0870
      4  O          4.3430    2.1480    1.4250 O.2     1  UNL1       -0.3000
      5  C          7.1790    1.1130   -0.2760 C.3     1  UNL1        0.0430
      6  C          7.6000   -0.1670   -0.8740 C.2     1  UNL1       -0.0440
      7  C          7.7560   -0.3120   -2.2580 C.2     1  UNL1        0.0080
      8  C          7.8500   -1.2500   -0.0630 C.2     1  UNL1        0.0540
      9  C          8.1540   -1.5370   -2.7620 C.2     1  UNL1        0.0510
     10  C          8.2520   -2.4860   -0.5780 C.2     1  UNL1        0.1660
     11  C          8.4050   -2.6300   -1.9390 C.2     1  UNL1        0.1650
     12  O          8.5560   -3.6950    0.0100 O.2     1  UNL1       -0.4540
     13  O          8.8050   -3.9390   -2.1610 O.2     1  UNL1       -0.4540
     14  C          9.0010   -4.6230   -0.9460 C.3     1  UNL1        0.4680
@<TRIPOS>BOND
     1     9     7    1
     2     9    11    2
     3     7     6    2
     4    13    11    1
     5    13    14    1
     6    11    10    1
     7    14    12    1
     8     6     5    1
     9     6     8    1
    10    10     8    2
    11    10    12    1
    12     1     5    1
    13     1     2    1
    14     2     4    2
    15     2     3    1
