@<TRIPOS>MOLECULE
/home/cewinharhar/GITHUB/reincatalyze/data/processed/docking_pred/2023-May-24-1506_sub9_nm5_bs15_s42_ex16_mel10_mts10000_k50_ec02_g099_lra3e-4_lrc3e-3/8e8bd911e5a39404df3349c2b89597c8d71467f9_ligand_9.pdbqt
 14 15 0 0 0
SMALL
GASTEIGER

@<TRIPOS>ATOM
      1  C          5.7260    1.3420   -0.2270 C.3     1  UNL1        0.0800
      2  C          5.1210    1.2590    1.1310 C.2     1  UNL1        0.1300
      3  C          5.4250    0.1330    2.0540 C.3     1  UNL1        0.0870
      4  O          4.3530    2.1200    1.5290 O.2     1  UNL1       -0.3000
      5  C          7.2230    1.1110   -0.1790 C.3     1  UNL1        0.0430
      6  C          7.6000   -0.1690   -0.8050 C.2     1  UNL1       -0.0440
      7  C          7.6770   -0.3100   -2.1950 C.2     1  UNL1        0.0080
      8  C          7.8860   -1.2580   -0.0130 C.2     1  UNL1        0.0540
      9  C          8.0360   -1.5350   -2.7270 C.2     1  UNL1        0.0510
     10  C          8.2500   -2.4940   -0.5550 C.2     1  UNL1        0.1660
     11  C          8.3250   -2.6340   -1.9230 C.2     1  UNL1        0.1650
     12  O          8.5770   -3.7080    0.0100 O.2     1  UNL1       -0.4540
     13  O          8.7010   -3.9450   -2.1720 O.2     1  UNL1       -0.4540
     14  C          8.9600   -4.6360   -0.9730 C.3     1  UNL1        0.4680
@<TRIPOS>BOND
     1     9     7    1
     2     9    11    2
     3     7     6    2
     4    13    11    1
     5    13    14    1
     6    11    10    1
     7    14    12    1
     8     6     5    1
     9     6     8    1
    10    10     8    2
    11    10    12    1
    12     1     5    1
    13     1     2    1
    14     2     4    2
    15     2     3    1
