@<TRIPOS>MOLECULE
/home/cewinharhar/GITHUB/reincatalyze/data/processed/docking_pred/2023-May-24-1506_sub9_nm5_bs15_s42_ex16_mel10_mts10000_k50_ec02_g099_lra3e-4_lrc3e-3/8e8bd911e5a39404df3349c2b89597c8d71467f9_ligand_9.pdbqt
 14 15 0 0 0
SMALL
GASTEIGER

@<TRIPOS>ATOM
      1  C          5.4240   -0.0400    2.0080 C.3     1  UNL1        0.0800
      2  C          4.5680    1.1510    1.7530 C.2     1  UNL1        0.1300
      3  C          4.8910    2.1300    0.6800 C.3     1  UNL1        0.0870
      4  O          3.5700    1.3610    2.4220 O.2     1  UNL1       -0.3000
      5  C          6.8570    0.2100    1.5800 C.3     1  UNL1        0.0430
      6  C          7.2800   -0.7200    0.5170 C.2     1  UNL1       -0.0440
      7  C          7.1440   -0.3950   -0.8370 C.2     1  UNL1        0.0080
      8  C          7.8250   -1.9380    0.8530 C.2     1  UNL1        0.0540
      9  C          7.5600   -1.3060   -1.7910 C.2     1  UNL1        0.0510
     10  C          8.2440   -2.8560   -0.1140 C.2     1  UNL1        0.1660
     11  C          8.1090   -2.5380   -1.4480 C.2     1  UNL1        0.1650
     12  O          8.8060   -4.1120   -0.0370 O.2     1  UNL1       -0.4540
     13  O          8.5990   -3.6160   -2.1680 O.2     1  UNL1       -0.4540
     14  C          9.1340   -4.5980   -1.3140 C.3     1  UNL1        0.4680
@<TRIPOS>BOND
     1    13    11    1
     2    13    14    1
     3     9    11    2
     4     9     7    1
     5    11    10    1
     6    14    12    1
     7     7     6    2
     8    10    12    1
     9    10     8    2
    10     6     8    1
    11     6     5    1
    12     3     2    1
    13     5     1    1
    14     2     1    1
    15     2     4    2
