MODEL 1
REMARK VINA RESULT:      -7.6      0.000      0.000
REMARK SMILES CC(=O)CCc1ccc2c(c1)OCO2
REMARK SMILES IDX 4 1 2 2 1 3 3 4 5 5 6 6 7 7 11 8 8 9 10 10 9 11 12 12 14 13
REMARK SMILES IDX 13 14
REMARK H PARENT
REMARK Flexibility Score: inf
ROOT
ATOM      1  C   UNL     1       5.522   1.939   1.245  1.00  0.00     0.080 C 
ENDROOT
BRANCH   1   2
ATOM      2  C   UNL     1       5.110   0.716   1.989  1.00  0.00     0.130 C 
ATOM      3  C   UNL     1       6.032  -0.436   2.169  1.00  0.00     0.087 C 
ATOM      4  O   UNL     1       3.994   0.625   2.476  1.00  0.00    -0.300 OA
ENDBRANCH   1   2
BRANCH   1   5
ATOM      5  C   UNL     1       5.399   1.739  -0.253  1.00  0.00     0.043 C 
BRANCH   5   6
ATOM      6  C   UNL     1       6.566   1.030  -0.807  1.00  0.00    -0.044 A 
ATOM      7  C   UNL     1       7.874   1.455  -0.545  1.00  0.00     0.008 A 
ATOM      8  C   UNL     1       6.378  -0.078  -1.601  1.00  0.00     0.054 A 
ATOM      9  C   UNL     1       8.931   0.749  -1.092  1.00  0.00     0.051 A 
ATOM     10  C   UNL     1       7.449  -0.788  -2.151  1.00  0.00     0.166 A 
ATOM     11  C   UNL     1       8.736  -0.371  -1.894  1.00  0.00     0.165 A 
ATOM     12  O   UNL     1       7.522  -1.903  -2.959  1.00  0.00    -0.454 OA
ATOM     13  O   UNL     1       9.581  -1.247  -2.556  1.00  0.00    -0.454 OA
ATOM     14  C   UNL     1       8.857  -2.287  -3.169  1.00  0.00     0.468 C 
ENDBRANCH   5   6
ENDBRANCH   1   5
TORSDOF 3
ENDMDL
MODEL 2
REMARK VINA RESULT:      -7.5      1.921      2.356
REMARK SMILES CC(=O)CCc1ccc2c(c1)OCO2
REMARK SMILES IDX 4 1 2 2 1 3 3 4 5 5 6 6 7 7 11 8 8 9 10 10 9 11 12 12 14 13
REMARK SMILES IDX 13 14
REMARK H PARENT
REMARK Flexibility Score: inf
ROOT
ATOM      1  C   UNL     1       5.726   1.342  -0.227  1.00  0.00     0.080 C 
ENDROOT
BRANCH   1   2
ATOM      2  C   UNL     1       5.121   1.259   1.131  1.00  0.00     0.130 C 
ATOM      3  C   UNL     1       5.425   0.133   2.054  1.00  0.00     0.087 C 
ATOM      4  O   UNL     1       4.353   2.120   1.529  1.00  0.00    -0.300 OA
ENDBRANCH   1   2
BRANCH   1   5
ATOM      5  C   UNL     1       7.223   1.111  -0.179  1.00  0.00     0.043 C 
BRANCH   5   6
ATOM      6  C   UNL     1       7.600  -0.169  -0.805  1.00  0.00    -0.044 A 
ATOM      7  C   UNL     1       7.677  -0.310  -2.195  1.00  0.00     0.008 A 
ATOM      8  C   UNL     1       7.886  -1.258  -0.013  1.00  0.00     0.054 A 
ATOM      9  C   UNL     1       8.036  -1.535  -2.727  1.00  0.00     0.051 A 
ATOM     10  C   UNL     1       8.250  -2.494  -0.555  1.00  0.00     0.166 A 
ATOM     11  C   UNL     1       8.325  -2.634  -1.923  1.00  0.00     0.165 A 
ATOM     12  O   UNL     1       8.577  -3.708   0.010  1.00  0.00    -0.454 OA
ATOM     13  O   UNL     1       8.701  -3.945  -2.172  1.00  0.00    -0.454 OA
ATOM     14  C   UNL     1       8.960  -4.636  -0.973  1.00  0.00     0.468 C 
ENDBRANCH   5   6
ENDBRANCH   1   5
TORSDOF 3
ENDMDL
MODEL 3
REMARK VINA RESULT:      -7.3      2.045      2.622
REMARK SMILES CC(=O)CCc1ccc2c(c1)OCO2
REMARK SMILES IDX 4 1 2 2 1 3 3 4 5 5 6 6 7 7 11 8 8 9 10 10 9 11 12 12 14 13
REMARK SMILES IDX 13 14
REMARK H PARENT
REMARK Flexibility Score: inf
ROOT
ATOM      1  C   UNL     1       5.424  -0.040   2.008  1.00  0.00     0.080 C 
ENDROOT
BRANCH   1   2
ATOM      2  C   UNL     1       4.568   1.151   1.753  1.00  0.00     0.130 C 
ATOM      3  C   UNL     1       4.891   2.130   0.680  1.00  0.00     0.087 C 
ATOM      4  O   UNL     1       3.570   1.361   2.422  1.00  0.00    -0.300 OA
ENDBRANCH   1   2
BRANCH   1   5
ATOM      5  C   UNL     1       6.857   0.210   1.580  1.00  0.00     0.043 C 
BRANCH   5   6
ATOM      6  C   UNL     1       7.280  -0.720   0.517  1.00  0.00    -0.044 A 
ATOM      7  C   UNL     1       7.144  -0.395  -0.837  1.00  0.00     0.008 A 
ATOM      8  C   UNL     1       7.825  -1.938   0.853  1.00  0.00     0.054 A 
ATOM      9  C   UNL     1       7.560  -1.306  -1.791  1.00  0.00     0.051 A 
ATOM     10  C   UNL     1       8.244  -2.856  -0.114  1.00  0.00     0.166 A 
ATOM     11  C   UNL     1       8.109  -2.538  -1.448  1.00  0.00     0.165 A 
ATOM     12  O   UNL     1       8.806  -4.112  -0.037  1.00  0.00    -0.454 OA
ATOM     13  O   UNL     1       8.599  -3.616  -2.168  1.00  0.00    -0.454 OA
ATOM     14  C   UNL     1       9.134  -4.598  -1.314  1.00  0.00     0.468 C 
ENDBRANCH   5   6
ENDBRANCH   1   5
TORSDOF 3
ENDMDL
MODEL 4
REMARK VINA RESULT:      -7.1      1.251      1.455
REMARK SMILES CC(=O)CCc1ccc2c(c1)OCO2
REMARK SMILES IDX 4 1 2 2 1 3 3 4 5 5 6 6 7 7 11 8 8 9 10 10 9 11 12 12 14 13
REMARK SMILES IDX 13 14
REMARK H PARENT
REMARK Flexibility Score: inf
ROOT
ATOM      1  C   UNL     1       6.383   1.217   0.939  1.00  0.00     0.080 C 
ENDROOT
BRANCH   1   2
ATOM      2  C   UNL     1       5.669   0.366   1.932  1.00  0.00     0.130 C 
ATOM      3  C   UNL     1       6.288  -0.863   2.496  1.00  0.00     0.087 C 
ATOM      4  O   UNL     1       4.546   0.656   2.313  1.00  0.00    -0.300 OA
ENDBRANCH   1   2
BRANCH   1   5
ATOM      5  C   UNL     1       5.878   0.964  -0.467  1.00  0.00     0.043 C 
BRANCH   5   6
ATOM      6  C   UNL     1       6.815   0.130  -1.242  1.00  0.00    -0.044 A 
ATOM      7  C   UNL     1       7.495   0.635  -2.356  1.00  0.00     0.008 A 
ATOM      8  C   UNL     1       7.035  -1.176  -0.868  1.00  0.00     0.054 A 
ATOM      9  C   UNL     1       8.363  -0.194  -3.044  1.00  0.00     0.051 A 
ATOM     10  C   UNL     1       7.914  -2.009  -1.567  1.00  0.00     0.166 A 
ATOM     11  C   UNL     1       8.583  -1.514  -2.664  1.00  0.00     0.165 A 
ATOM     12  O   UNL     1       8.298  -3.323  -1.398  1.00  0.00    -0.454 OA
ATOM     13  O   UNL     1       9.373  -2.544  -3.150  1.00  0.00    -0.454 OA
ATOM     14  C   UNL     1       9.291  -3.681  -2.324  1.00  0.00     0.468 C 
ENDBRANCH   5   6
ENDBRANCH   1   5
TORSDOF 3
ENDMDL
MODEL 5
REMARK VINA RESULT:      -6.8      1.257      1.755
REMARK SMILES CC(=O)CCc1ccc2c(c1)OCO2
REMARK SMILES IDX 4 1 2 2 1 3 3 4 5 5 6 6 7 7 11 8 8 9 10 10 9 11 12 12 14 13
REMARK SMILES IDX 13 14
REMARK H PARENT
REMARK Flexibility Score: inf
ROOT
ATOM      1  C   UNL     1       5.328  -0.067   1.973  1.00  0.00     0.080 C 
ENDROOT
BRANCH   1   2
ATOM      2  C   UNL     1       4.445   1.118   1.782  1.00  0.00     0.130 C 
ATOM      3  C   UNL     1       4.736   2.150   0.751  1.00  0.00     0.087 C 
ATOM      4  O   UNL     1       3.451   1.277   2.472  1.00  0.00    -0.300 OA
ENDBRANCH   1   2
BRANCH   1   5
ATOM      5  C   UNL     1       6.792   0.320   1.903  1.00  0.00     0.043 C 
BRANCH   5   6
ATOM      6  C   UNL     1       7.390  -0.037   0.604  1.00  0.00    -0.044 A 
ATOM      7  C   UNL     1       7.884   0.940  -0.269  1.00  0.00     0.008 A 
ATOM      8  C   UNL     1       7.472  -1.359   0.231  1.00  0.00     0.054 A 
ATOM      9  C   UNL     1       8.435   0.545  -1.474  1.00  0.00     0.051 A 
ATOM     10  C   UNL     1       8.030  -1.753  -0.989  1.00  0.00     0.166 A 
ATOM     11  C   UNL     1       8.515  -0.793  -1.848  1.00  0.00     0.165 A 
ATOM     12  O   UNL     1       8.224  -2.983  -1.580  1.00  0.00    -0.454 OA
ATOM     13  O   UNL     1       9.003  -1.460  -2.961  1.00  0.00    -0.454 OA
ATOM     14  C   UNL     1       8.920  -2.855  -2.793  1.00  0.00     0.468 C 
ENDBRANCH   5   6
ENDBRANCH   1   5
TORSDOF 3
ENDMDL
