@<TRIPOS>MOLECULE
/home/cewinharhar/GITHUB/reincatalyze/data/processed/docking_pred/2023-May-24-1506_sub9_nm5_bs15_s42_ex16_mel10_mts10000_k50_ec02_g099_lra3e-4_lrc3e-3/8e8bd911e5a39404df3349c2b89597c8d71467f9_ligand_9.pdbqt
 14 15 0 0 0
SMALL
GASTEIGER

@<TRIPOS>ATOM
      1  C          5.5220    1.9390    1.2450 C.3     1  UNL1        0.0800
      2  C          5.1100    0.7160    1.9890 C.2     1  UNL1        0.1300
      3  C          6.0320   -0.4360    2.1690 C.3     1  UNL1        0.0870
      4  O          3.9940    0.6250    2.4760 O.2     1  UNL1       -0.3000
      5  C          5.3990    1.7390   -0.2530 C.3     1  UNL1        0.0430
      6  C          6.5660    1.0300   -0.8070 C.2     1  UNL1       -0.0440
      7  C          7.8740    1.4550   -0.5450 C.2     1  UNL1        0.0080
      8  C          6.3780   -0.0780   -1.6010 C.2     1  UNL1        0.0540
      9  C          8.9310    0.7490   -1.0920 C.2     1  UNL1        0.0510
     10  C          7.4490   -0.7880   -2.1510 C.2     1  UNL1        0.1660
     11  C          8.7360   -0.3710   -1.8940 C.2     1  UNL1        0.1650
     12  O          7.5220   -1.9030   -2.9590 O.2     1  UNL1       -0.4540
     13  O          9.5810   -1.2470   -2.5560 O.2     1  UNL1       -0.4540
     14  C          8.8570   -2.2870   -3.1690 C.3     1  UNL1        0.4680
@<TRIPOS>BOND
     1    14    12    1
     2    14    13    1
     3    12    10    1
     4    13    11    1
     5    10    11    2
     6    10     8    1
     7    11     9    1
     8     8     6    2
     9     9     7    2
    10     6     7    1
    11     6     5    1
    12     5     1    1
    13     1     2    1
    14     2     3    1
    15     2     4    2
