MODEL 1
REMARK VINA RESULT:      -7.3      0.000      0.000
REMARK SMILES CC(=O)CCc1ccc2c(c1)OCO2
REMARK SMILES IDX 4 1 2 2 1 3 3 4 5 5 6 6 7 7 11 8 8 9 10 10 9 11 12 12 14 13
REMARK SMILES IDX 13 14
REMARK H PARENT
REMARK Flexibility Score: inf
ROOT
ATOM      1  C   UNL     1       5.754   1.172  -0.435  1.00  0.00     0.080 C 
ENDROOT
BRANCH   1   2
ATOM      2  C   UNL     1       5.361   1.336   0.992  1.00  0.00     0.130 C 
ATOM      3  C   UNL     1       6.025   0.567   2.078  1.00  0.00     0.087 C 
ATOM      4  O   UNL     1       4.476   2.113   1.313  1.00  0.00    -0.300 OA
ENDBRANCH   1   2
BRANCH   1   5
ATOM      5  C   UNL     1       7.260   1.091  -0.586  1.00  0.00     0.043 C 
BRANCH   5   6
ATOM      6  C   UNL     1       7.688  -0.221  -1.105  1.00  0.00    -0.044 A 
ATOM      7  C   UNL     1       7.929  -0.426  -2.468  1.00  0.00     0.008 A 
ATOM      8  C   UNL     1       7.860  -1.275  -0.237  1.00  0.00     0.054 A 
ATOM      9  C   UNL     1       8.329  -1.679  -2.897  1.00  0.00     0.051 A 
ATOM     10  C   UNL     1       8.265  -2.539  -0.676  1.00  0.00     0.166 A 
ATOM     11  C   UNL     1       8.501  -2.742  -2.017  1.00  0.00     0.165 A 
ATOM     12  O   UNL     1       8.503  -3.729  -0.021  1.00  0.00    -0.454 OA
ATOM     13  O   UNL     1       8.884  -4.067  -2.160  1.00  0.00    -0.454 OA
ATOM     14  C   UNL     1       8.986  -4.704  -0.909  1.00  0.00     0.468 C 
ENDBRANCH   5   6
ENDBRANCH   1   5
TORSDOF 3
ENDMDL
MODEL 2
REMARK VINA RESULT:      -7.2      1.856      2.360
REMARK SMILES CC(=O)CCc1ccc2c(c1)OCO2
REMARK SMILES IDX 4 1 2 2 1 3 3 4 5 5 6 6 7 7 11 8 8 9 10 10 9 11 12 12 14 13
REMARK SMILES IDX 13 14
REMARK H PARENT
REMARK Flexibility Score: inf
ROOT
ATOM      1  C   UNL     1       5.738   2.150   1.189  1.00  0.00     0.080 C 
ENDROOT
BRANCH   1   2
ATOM      2  C   UNL     1       5.490   0.918   1.989  1.00  0.00     0.130 C 
ATOM      3  C   UNL     1       6.584  -0.034   2.316  1.00  0.00     0.087 C 
ATOM      4  O   UNL     1       4.372   0.654   2.401  1.00  0.00    -0.300 OA
ENDBRANCH   1   2
BRANCH   1   5
ATOM      5  C   UNL     1       5.546   1.892  -0.293  1.00  0.00     0.043 C 
BRANCH   5   6
ATOM      6  C   UNL     1       6.663   1.117  -0.862  1.00  0.00    -0.044 A 
ATOM      7  C   UNL     1       7.992   1.532  -0.717  1.00  0.00     0.008 A 
ATOM      8  C   UNL     1       6.405  -0.046  -1.552  1.00  0.00     0.054 A 
ATOM      9  C   UNL     1       8.999   0.764  -1.272  1.00  0.00     0.051 A 
ATOM     10  C   UNL     1       7.427  -0.819  -2.110  1.00  0.00     0.166 A 
ATOM     11  C   UNL     1       8.735  -0.411  -1.969  1.00  0.00     0.165 A 
ATOM     12  O   UNL     1       7.429  -1.995  -2.831  1.00  0.00    -0.454 OA
ATOM     13  O   UNL     1       9.521  -1.354  -2.612  1.00  0.00    -0.454 OA
ATOM     14  C   UNL     1       8.741  -2.423  -3.094  1.00  0.00     0.468 C 
ENDBRANCH   5   6
ENDBRANCH   1   5
TORSDOF 3
ENDMDL
MODEL 3
REMARK VINA RESULT:      -7.2      0.782      1.058
REMARK SMILES CC(=O)CCc1ccc2c(c1)OCO2
REMARK SMILES IDX 4 1 2 2 1 3 3 4 5 5 6 6 7 7 11 8 8 9 10 10 9 11 12 12 14 13
REMARK SMILES IDX 13 14
REMARK H PARENT
REMARK Flexibility Score: inf
ROOT
ATOM      1  C   UNL     1       6.843   0.784   1.383  1.00  0.00     0.080 C 
ENDROOT
BRANCH   1   2
ATOM      2  C   UNL     1       5.408   1.170   1.474  1.00  0.00     0.130 C 
ATOM      3  C   UNL     1       4.801   2.150   0.534  1.00  0.00     0.087 C 
ATOM      4  O   UNL     1       4.683   0.690   2.331  1.00  0.00    -0.300 OA
ENDBRANCH   1   2
BRANCH   1   5
ATOM      5  C   UNL     1       7.383   0.999  -0.017  1.00  0.00     0.043 C 
BRANCH   5   6
ATOM      6  C   UNL     1       7.686  -0.277  -0.689  1.00  0.00    -0.044 A 
ATOM      7  C   UNL     1       7.671  -0.394  -2.083  1.00  0.00     0.008 A 
ATOM      8  C   UNL     1       7.995  -1.387   0.064  1.00  0.00     0.054 A 
ATOM      9  C   UNL     1       7.965  -1.617  -2.658  1.00  0.00     0.051 A 
ATOM     10  C   UNL     1       8.293  -2.621  -0.521  1.00  0.00     0.166 A 
ATOM     11  C   UNL     1       8.277  -2.737  -1.893  1.00  0.00     0.165 A 
ATOM     12  O   UNL     1       8.624  -3.853   0.001  1.00  0.00    -0.454 OA
ATOM     13  O   UNL     1       8.604  -4.051  -2.188  1.00  0.00    -0.454 OA
ATOM     14  C   UNL     1       8.921  -4.771  -1.021  1.00  0.00     0.468 C 
ENDBRANCH   5   6
ENDBRANCH   1   5
TORSDOF 3
ENDMDL
MODEL 4
REMARK VINA RESULT:      -6.6      1.123      2.015
REMARK SMILES CC(=O)CCc1ccc2c(c1)OCO2
REMARK SMILES IDX 4 1 2 2 1 3 3 4 5 5 6 6 7 7 11 8 8 9 10 10 9 11 12 12 14 13
REMARK SMILES IDX 13 14
REMARK H PARENT
REMARK Flexibility Score: inf
ROOT
ATOM      1  C   UNL     1       7.151   1.650  -0.237  1.00  0.00     0.080 C 
ENDROOT
BRANCH   1   2
ATOM      2  C   UNL     1       6.064   1.848   0.762  1.00  0.00     0.130 C 
ATOM      3  C   UNL     1       4.668   2.149   0.348  1.00  0.00     0.087 C 
ATOM      4  O   UNL     1       6.292   1.769   1.959  1.00  0.00    -0.300 OA
ENDBRANCH   1   2
BRANCH   1   5
ATOM      5  C   UNL     1       6.805   0.543  -1.214  1.00  0.00     0.043 C 
BRANCH   5   6
ATOM      6  C   UNL     1       7.377  -0.750  -0.800  1.00  0.00    -0.044 A 
ATOM      7  C   UNL     1       7.527  -1.087   0.551  1.00  0.00     0.008 A 
ATOM      8  C   UNL     1       7.775  -1.658  -1.755  1.00  0.00     0.054 A 
ATOM      9  C   UNL     1       8.070  -2.315   0.880  1.00  0.00     0.051 A 
ATOM     10  C   UNL     1       8.322  -2.899  -1.417  1.00  0.00     0.166 A 
ATOM     11  C   UNL     1       8.471  -3.230  -0.089  1.00  0.00     0.165 A 
ATOM     12  O   UNL     1       8.787  -3.957  -2.169  1.00  0.00    -0.454 OA
ATOM     13  O   UNL     1       9.029  -4.499  -0.052  1.00  0.00    -0.454 OA
ATOM     14  C   UNL     1       9.162  -5.033  -1.348  1.00  0.00     0.468 C 
ENDBRANCH   5   6
ENDBRANCH   1   5
TORSDOF 3
ENDMDL
MODEL 5
REMARK VINA RESULT:      -6.4      1.842      5.359
REMARK SMILES CC(=O)CCc1ccc2c(c1)OCO2
REMARK SMILES IDX 4 1 2 2 1 3 3 4 5 5 6 6 7 7 11 8 8 9 10 10 9 11 12 12 14 13
REMARK SMILES IDX 13 14
REMARK H PARENT
REMARK Flexibility Score: inf
ROOT
ATOM      1  C   UNL     1       8.626   0.154  -2.785  1.00  0.00     0.080 C 
ENDROOT
BRANCH   1   2
ATOM      2  C   UNL     1       8.508  -1.329  -2.851  1.00  0.00     0.130 C 
ATOM      3  C   UNL     1       7.184  -2.006  -2.889  1.00  0.00     0.087 C 
ATOM      4  O   UNL     1       9.502  -2.036  -2.875  1.00  0.00    -0.300 OA
ENDBRANCH   1   2
BRANCH   1   5
ATOM      5  C   UNL     1       9.173   0.604  -1.445  1.00  0.00     0.043 C 
BRANCH   5   6
ATOM      6  C   UNL     1       8.166   0.483  -0.375  1.00  0.00    -0.044 A 
ATOM      7  C   UNL     1       8.364  -0.357   0.726  1.00  0.00     0.008 A 
ATOM      8  C   UNL     1       7.000   1.212  -0.450  1.00  0.00     0.054 A 
ATOM      9  C   UNL     1       7.384  -0.429   1.700  1.00  0.00     0.051 A 
ATOM     10  C   UNL     1       6.013   1.136   0.537  1.00  0.00     0.166 A 
ATOM     11  C   UNL     1       6.206   0.308   1.621  1.00  0.00     0.165 A 
ATOM     12  O   UNL     1       4.788   1.749   0.689  1.00  0.00    -0.454 OA
ATOM     13  O   UNL     1       5.084   0.432   2.425  1.00  0.00    -0.454 OA
ATOM     14  C   UNL     1       4.200   1.403   1.917  1.00  0.00     0.468 C 
ENDBRANCH   5   6
ENDBRANCH   1   5
TORSDOF 3
ENDMDL
