@<TRIPOS>MOLECULE
/home/cewinharhar/GITHUB/reincatalyze/data/processed/docking_pred/2023-May-24-1506_sub9_nm5_bs15_s42_ex16_mel10_mts10000_k50_ec02_g099_lra3e-4_lrc3e-3/8f258178c278a1f8efc989ef7d8625b520fa90c8_ligand_9.pdbqt
 14 15 0 0 0
SMALL
GASTEIGER

@<TRIPOS>ATOM
      1  C          7.1510    1.6500   -0.2370 C.3     1  UNL1        0.0800
      2  C          6.0640    1.8480    0.7620 C.2     1  UNL1        0.1300
      3  C          4.6680    2.1490    0.3480 C.3     1  UNL1        0.0870
      4  O          6.2920    1.7690    1.9590 O.2     1  UNL1       -0.3000
      5  C          6.8050    0.5430   -1.2140 C.3     1  UNL1        0.0430
      6  C          7.3770   -0.7500   -0.8000 C.2     1  UNL1       -0.0440
      7  C          7.5270   -1.0870    0.5510 C.2     1  UNL1        0.0080
      8  C          7.7750   -1.6580   -1.7550 C.2     1  UNL1        0.0540
      9  C          8.0700   -2.3150    0.8800 C.2     1  UNL1        0.0510
     10  C          8.3220   -2.8990   -1.4170 C.2     1  UNL1        0.1660
     11  C          8.4710   -3.2300   -0.0890 C.2     1  UNL1        0.1650
     12  O          8.7870   -3.9570   -2.1690 O.2     1  UNL1       -0.4540
     13  O          9.0290   -4.4990   -0.0520 O.2     1  UNL1       -0.4540
     14  C          9.1620   -5.0330   -1.3480 C.3     1  UNL1        0.4680
@<TRIPOS>BOND
     1    12    10    1
     2    12    14    1
     3     8    10    1
     4     8     6    2
     5    10    11    2
     6    14    13    1
     7     5     6    1
     8     5     1    1
     9     6     7    1
    10     1     2    1
    11    11    13    1
    12    11     9    1
    13     3     2    1
    14     7     9    2
    15     2     4    2
