@<TRIPOS>MOLECULE
/home/cewinharhar/GITHUB/reincatalyze/data/processed/docking_pred/2023-May-24-1506_sub9_nm5_bs15_s42_ex16_mel10_mts10000_k50_ec02_g099_lra3e-4_lrc3e-3/8f258178c278a1f8efc989ef7d8625b520fa90c8_ligand_9.pdbqt
 14 15 0 0 0
SMALL
GASTEIGER

@<TRIPOS>ATOM
      1  C          8.6260    0.1540   -2.7850 C.3     1  UNL1        0.0800
      2  C          8.5080   -1.3290   -2.8510 C.2     1  UNL1        0.1300
      3  C          7.1840   -2.0060   -2.8890 C.3     1  UNL1        0.0870
      4  O          9.5020   -2.0360   -2.8750 O.2     1  UNL1       -0.3000
      5  C          9.1730    0.6040   -1.4450 C.3     1  UNL1        0.0430
      6  C          8.1660    0.4830   -0.3750 C.2     1  UNL1       -0.0440
      7  C          8.3640   -0.3570    0.7260 C.2     1  UNL1        0.0080
      8  C          7.0000    1.2120   -0.4500 C.2     1  UNL1        0.0540
      9  C          7.3840   -0.4290    1.7000 C.2     1  UNL1        0.0510
     10  C          6.0130    1.1360    0.5370 C.2     1  UNL1        0.1660
     11  C          6.2060    0.3080    1.6210 C.2     1  UNL1        0.1650
     12  O          4.7880    1.7490    0.6890 O.2     1  UNL1       -0.4540
     13  O          5.0840    0.4320    2.4250 O.2     1  UNL1       -0.4540
     14  C          4.2000    1.4030    1.9170 C.3     1  UNL1        0.4680
@<TRIPOS>BOND
     1     3     2    1
     2     4     2    2
     3     2     1    1
     4     1     5    1
     5     5     6    1
     6     8     6    2
     7     8    10    1
     8     6     7    1
     9    10    12    1
    10    10    11    2
    11    12    14    1
    12     7     9    2
    13    11     9    1
    14    11    13    1
    15    14    13    1
