@<TRIPOS>MOLECULE
/home/cewinharhar/GITHUB/reincatalyze/data/processed/docking_pred/2023-May-24-1506_sub9_nm5_bs15_s42_ex16_mel10_mts10000_k50_ec02_g099_lra3e-4_lrc3e-3/8f258178c278a1f8efc989ef7d8625b520fa90c8_ligand_9.pdbqt
 14 15 0 0 0
SMALL
GASTEIGER

@<TRIPOS>ATOM
      1  C          5.7380    2.1500    1.1890 C.3     1  UNL1        0.0800
      2  C          5.4900    0.9180    1.9890 C.2     1  UNL1        0.1300
      3  C          6.5840   -0.0340    2.3160 C.3     1  UNL1        0.0870
      4  O          4.3720    0.6540    2.4010 O.2     1  UNL1       -0.3000
      5  C          5.5460    1.8920   -0.2930 C.3     1  UNL1        0.0430
      6  C          6.6630    1.1170   -0.8620 C.2     1  UNL1       -0.0440
      7  C          7.9920    1.5320   -0.7170 C.2     1  UNL1        0.0080
      8  C          6.4050   -0.0460   -1.5520 C.2     1  UNL1        0.0540
      9  C          8.9990    0.7640   -1.2720 C.2     1  UNL1        0.0510
     10  C          7.4270   -0.8190   -2.1100 C.2     1  UNL1        0.1660
     11  C          8.7350   -0.4110   -1.9690 C.2     1  UNL1        0.1650
     12  O          7.4290   -1.9950   -2.8310 O.2     1  UNL1       -0.4540
     13  O          9.5210   -1.3540   -2.6120 O.2     1  UNL1       -0.4540
     14  C          8.7410   -2.4230   -3.0940 C.3     1  UNL1        0.4680
@<TRIPOS>BOND
     1    14    12    1
     2    14    13    1
     3    12    10    1
     4    13    11    1
     5    10    11    2
     6    10     8    1
     7    11     9    1
     8     8     6    2
     9     9     7    2
    10     6     7    1
    11     6     5    1
    12     5     1    1
    13     1     2    1
    14     2     3    1
    15     2     4    2
