MODEL 1
REMARK VINA RESULT:      -7.7      0.000      0.000
REMARK SMILES CC(=O)CCc1ccc2c(c1)OCO2
REMARK SMILES IDX 4 1 2 2 1 3 3 4 5 5 6 6 7 7 11 8 8 9 10 10 9 11 12 12 14 13
REMARK SMILES IDX 13 14
REMARK H PARENT
REMARK Flexibility Score: inf
ROOT
ATOM      1  C   UNL     1       5.504   1.924   1.259  1.00  0.00     0.080 C 
ENDROOT
BRANCH   1   2
ATOM      2  C   UNL     1       5.057   0.711   1.997  1.00  0.00     0.130 C 
ATOM      3  C   UNL     1       5.936  -0.479   2.150  1.00  0.00     0.087 C 
ATOM      4  O   UNL     1       3.946   0.657   2.500  1.00  0.00    -0.300 OA
ENDBRANCH   1   2
BRANCH   1   5
ATOM      5  C   UNL     1       5.383   1.733  -0.240  1.00  0.00     0.043 C 
BRANCH   5   6
ATOM      6  C   UNL     1       6.553   1.032  -0.798  1.00  0.00    -0.044 A 
ATOM      7  C   UNL     1       7.859   1.467  -0.542  1.00  0.00     0.008 A 
ATOM      8  C   UNL     1       6.370  -0.079  -1.590  1.00  0.00     0.054 A 
ATOM      9  C   UNL     1       8.919   0.769  -1.092  1.00  0.00     0.051 A 
ATOM     10  C   UNL     1       7.445  -0.781  -2.143  1.00  0.00     0.166 A 
ATOM     11  C   UNL     1       8.730  -0.354  -1.892  1.00  0.00     0.165 A 
ATOM     12  O   UNL     1       7.523  -1.897  -2.950  1.00  0.00    -0.454 OA
ATOM     13  O   UNL     1       9.579  -1.225  -2.556  1.00  0.00    -0.454 OA
ATOM     14  C   UNL     1       8.859  -2.271  -3.164  1.00  0.00     0.468 C 
ENDBRANCH   5   6
ENDBRANCH   1   5
TORSDOF 3
ENDMDL
MODEL 2
REMARK VINA RESULT:      -7.4      1.938      2.454
REMARK SMILES CC(=O)CCc1ccc2c(c1)OCO2
REMARK SMILES IDX 4 1 2 2 1 3 3 4 5 5 6 6 7 7 11 8 8 9 10 10 9 11 12 12 14 13
REMARK SMILES IDX 13 14
REMARK H PARENT
REMARK Flexibility Score: inf
ROOT
ATOM      1  C   UNL     1       5.748   1.205  -0.349  1.00  0.00     0.080 C 
ENDROOT
BRANCH   1   2
ATOM      2  C   UNL     1       5.291   1.187   1.068  1.00  0.00     0.130 C 
ATOM      3  C   UNL     1       5.509   0.004   1.943  1.00  0.00     0.087 C 
ATOM      4  O   UNL     1       4.720   2.150   1.555  1.00  0.00    -0.300 OA
ENDBRANCH   1   2
BRANCH   1   5
ATOM      5  C   UNL     1       7.253   1.050  -0.445  1.00  0.00     0.043 C 
BRANCH   5   6
ATOM      6  C   UNL     1       7.633  -0.261  -1.001  1.00  0.00    -0.044 A 
ATOM      7  C   UNL     1       7.724  -0.474  -2.381  1.00  0.00     0.008 A 
ATOM      8  C   UNL     1       7.910  -1.308  -0.151  1.00  0.00     0.054 A 
ATOM      9  C   UNL     1       8.086  -1.725  -2.845  1.00  0.00     0.051 A 
ATOM     10  C   UNL     1       8.276  -2.571  -0.625  1.00  0.00     0.166 A 
ATOM     11  C   UNL     1       8.364  -2.781  -1.983  1.00  0.00     0.165 A 
ATOM     12  O   UNL     1       8.595  -3.755   0.006  1.00  0.00    -0.454 OA
ATOM     13  O   UNL     1       8.741  -4.104  -2.160  1.00  0.00    -0.454 OA
ATOM     14  C   UNL     1       8.986  -4.732  -0.924  1.00  0.00     0.468 C 
ENDBRANCH   5   6
ENDBRANCH   1   5
TORSDOF 3
ENDMDL
MODEL 3
REMARK VINA RESULT:      -7.3      2.098      2.662
REMARK SMILES CC(=O)CCc1ccc2c(c1)OCO2
REMARK SMILES IDX 4 1 2 2 1 3 3 4 5 5 6 6 7 7 11 8 8 9 10 10 9 11 12 12 14 13
REMARK SMILES IDX 13 14
REMARK H PARENT
REMARK Flexibility Score: inf
ROOT
ATOM      1  C   UNL     1       5.496  -0.062   1.944  1.00  0.00     0.080 C 
ENDROOT
BRANCH   1   2
ATOM      2  C   UNL     1       4.665   1.142   1.662  1.00  0.00     0.130 C 
ATOM      3  C   UNL     1       5.037   2.115   0.600  1.00  0.00     0.087 C 
ATOM      4  O   UNL     1       3.648   1.365   2.298  1.00  0.00    -0.300 OA
ENDBRANCH   1   2
BRANCH   1   5
ATOM      5  C   UNL     1       6.939   0.156   1.534  1.00  0.00     0.043 C 
BRANCH   5   6
ATOM      6  C   UNL     1       7.355  -0.785   0.479  1.00  0.00    -0.044 A 
ATOM      7  C   UNL     1       7.229  -0.468  -0.878  1.00  0.00     0.008 A 
ATOM      8  C   UNL     1       7.884  -2.008   0.826  1.00  0.00     0.054 A 
ATOM      9  C   UNL     1       7.638  -1.391  -1.824  1.00  0.00     0.051 A 
ATOM     10  C   UNL     1       8.296  -2.937  -0.133  1.00  0.00     0.166 A 
ATOM     11  C   UNL     1       8.171  -2.627  -1.469  1.00  0.00     0.165 A 
ATOM     12  O   UNL     1       8.843  -4.200  -0.045  1.00  0.00    -0.454 OA
ATOM     13  O   UNL     1       8.651  -3.715  -2.180  1.00  0.00    -0.454 OA
ATOM     14  C   UNL     1       9.171  -4.698  -1.317  1.00  0.00     0.468 C 
ENDBRANCH   5   6
ENDBRANCH   1   5
TORSDOF 3
ENDMDL
MODEL 4
REMARK VINA RESULT:      -7.2      1.263      1.480
REMARK SMILES CC(=O)CCc1ccc2c(c1)OCO2
REMARK SMILES IDX 4 1 2 2 1 3 3 4 5 5 6 6 7 7 11 8 8 9 10 10 9 11 12 12 14 13
REMARK SMILES IDX 13 14
REMARK H PARENT
REMARK Flexibility Score: inf
ROOT
ATOM      1  C   UNL     1       6.390   1.215   0.922  1.00  0.00     0.080 C 
ENDROOT
BRANCH   1   2
ATOM      2  C   UNL     1       5.662   0.394   1.930  1.00  0.00     0.130 C 
ATOM      3  C   UNL     1       6.266  -0.828   2.524  1.00  0.00     0.087 C 
ATOM      4  O   UNL     1       4.541   0.704   2.298  1.00  0.00    -0.300 OA
ENDBRANCH   1   2
BRANCH   1   5
ATOM      5  C   UNL     1       5.888   0.937  -0.481  1.00  0.00     0.043 C 
BRANCH   5   6
ATOM      6  C   UNL     1       6.833   0.104  -1.245  1.00  0.00    -0.044 A 
ATOM      7  C   UNL     1       7.526   0.608  -2.352  1.00  0.00     0.008 A 
ATOM      8  C   UNL     1       7.050  -1.202  -0.868  1.00  0.00     0.054 A 
ATOM      9  C   UNL     1       8.401  -0.221  -3.030  1.00  0.00     0.051 A 
ATOM     10  C   UNL     1       7.937  -2.036  -1.556  1.00  0.00     0.166 A 
ATOM     11  C   UNL     1       8.618  -1.541  -2.646  1.00  0.00     0.165 A 
ATOM     12  O   UNL     1       8.319  -3.349  -1.382  1.00  0.00    -0.454 OA
ATOM     13  O   UNL     1       9.413  -2.571  -3.123  1.00  0.00    -0.454 OA
ATOM     14  C   UNL     1       9.323  -3.707  -2.297  1.00  0.00     0.468 C 
ENDBRANCH   5   6
ENDBRANCH   1   5
TORSDOF 3
ENDMDL
MODEL 5
REMARK VINA RESULT:      -6.9      1.189      5.181
REMARK SMILES CC(=O)CCc1ccc2c(c1)OCO2
REMARK SMILES IDX 4 1 2 2 1 3 3 4 5 5 6 6 7 7 11 8 8 9 10 10 9 11 12 12 14 13
REMARK SMILES IDX 13 14
REMARK H PARENT
REMARK Flexibility Score: inf
ROOT
ATOM      1  C   UNL     1       8.275   0.200  -2.678  1.00  0.00     0.080 C 
ENDROOT
BRANCH   1   2
ATOM      2  C   UNL     1       8.033  -1.266  -2.771  1.00  0.00     0.130 C 
ATOM      3  C   UNL     1       9.142  -2.226  -3.020  1.00  0.00     0.087 C 
ATOM      4  O   UNL     1       6.910  -1.726  -2.645  1.00  0.00    -0.300 OA
ENDBRANCH   1   2
BRANCH   1   5
ATOM      5  C   UNL     1       8.801   0.586  -1.309  1.00  0.00     0.043 C 
BRANCH   5   6
ATOM      6  C   UNL     1       7.771   0.433  -0.266  1.00  0.00    -0.044 A 
ATOM      7  C   UNL     1       7.877  -0.546   0.730  1.00  0.00     0.008 A 
ATOM      8  C   UNL     1       6.677   1.268  -0.258  1.00  0.00     0.054 A 
ATOM      9  C   UNL     1       6.881  -0.642   1.684  1.00  0.00     0.051 A 
ATOM     10  C   UNL     1       5.673   1.166   0.709  1.00  0.00     0.166 A 
ATOM     11  C   UNL     1       5.776   0.203   1.688  1.00  0.00     0.165 A 
ATOM     12  O   UNL     1       4.505   1.866   0.928  1.00  0.00    -0.454 OA
ATOM     13  O   UNL     1       4.658   0.333   2.497  1.00  0.00    -0.454 OA
ATOM     14  C   UNL     1       3.872   1.433   2.105  1.00  0.00     0.468 C 
ENDBRANCH   5   6
ENDBRANCH   1   5
TORSDOF 3
ENDMDL
