@<TRIPOS>MOLECULE
/home/cewinharhar/GITHUB/reincatalyze/data/processed/docking_pred/2023-May-24-1506_sub9_nm5_bs15_s42_ex16_mel10_mts10000_k50_ec02_g099_lra3e-4_lrc3e-3/8f3f3cc121b2e0b9b67c9595347d7d2b0dd21437_ligand_9.pdbqt
 14 15 0 0 0
SMALL
GASTEIGER

@<TRIPOS>ATOM
      1  C          5.5040    1.9240    1.2590 C.3     1  UNL1        0.0800
      2  C          5.0570    0.7110    1.9970 C.2     1  UNL1        0.1300
      3  C          5.9360   -0.4790    2.1500 C.3     1  UNL1        0.0870
      4  O          3.9460    0.6570    2.5000 O.2     1  UNL1       -0.3000
      5  C          5.3830    1.7330   -0.2400 C.3     1  UNL1        0.0430
      6  C          6.5530    1.0320   -0.7980 C.2     1  UNL1       -0.0440
      7  C          7.8590    1.4670   -0.5420 C.2     1  UNL1        0.0080
      8  C          6.3700   -0.0790   -1.5900 C.2     1  UNL1        0.0540
      9  C          8.9190    0.7690   -1.0920 C.2     1  UNL1        0.0510
     10  C          7.4450   -0.7810   -2.1430 C.2     1  UNL1        0.1660
     11  C          8.7300   -0.3540   -1.8920 C.2     1  UNL1        0.1650
     12  O          7.5230   -1.8970   -2.9500 O.2     1  UNL1       -0.4540
     13  O          9.5790   -1.2250   -2.5560 O.2     1  UNL1       -0.4540
     14  C          8.8590   -2.2710   -3.1640 C.3     1  UNL1        0.4680
@<TRIPOS>BOND
     1    14    12    1
     2    14    13    1
     3    12    10    1
     4    13    11    1
     5    10    11    2
     6    10     8    1
     7    11     9    1
     8     8     6    2
     9     9     7    2
    10     6     7    1
    11     6     5    1
    12     5     1    1
    13     1     2    1
    14     2     3    1
    15     2     4    2
