MODEL 1
REMARK VINA RESULT:      -7.6      0.000      0.000
REMARK SMILES CC(=O)CCc1ccc2c(c1)OCO2
REMARK SMILES IDX 4 1 2 2 1 3 3 4 5 5 6 6 7 7 11 8 8 9 10 10 9 11 12 12 14 13
REMARK SMILES IDX 13 14
REMARK H PARENT
REMARK Flexibility Score: inf
ROOT
ATOM      1  C   UNL     1       5.532   1.914   1.254  1.00  0.00     0.080 C 
ENDROOT
BRANCH   1   2
ATOM      2  C   UNL     1       5.090   0.706   2.006  1.00  0.00     0.130 C 
ATOM      3  C   UNL     1       5.977  -0.475   2.176  1.00  0.00     0.087 C 
ATOM      4  O   UNL     1       3.978   0.652   2.507  1.00  0.00    -0.300 OA
ENDBRANCH   1   2
BRANCH   1   5
ATOM      5  C   UNL     1       5.400   1.709  -0.242  1.00  0.00     0.043 C 
BRANCH   5   6
ATOM      6  C   UNL     1       6.572   1.014  -0.804  1.00  0.00    -0.044 A 
ATOM      7  C   UNL     1       7.876   1.456  -0.554  1.00  0.00     0.008 A 
ATOM      8  C   UNL     1       6.391  -0.100  -1.593  1.00  0.00     0.054 A 
ATOM      9  C   UNL     1       8.937   0.763  -1.107  1.00  0.00     0.051 A 
ATOM     10  C   UNL     1       7.467  -0.797  -2.149  1.00  0.00     0.166 A 
ATOM     11  C   UNL     1       8.751  -0.362  -1.905  1.00  0.00     0.165 A 
ATOM     12  O   UNL     1       7.548  -1.913  -2.955  1.00  0.00    -0.454 OA
ATOM     13  O   UNL     1       9.602  -1.230  -2.571  1.00  0.00    -0.454 OA
ATOM     14  C   UNL     1       8.886  -2.281  -3.175  1.00  0.00     0.468 C 
ENDBRANCH   5   6
ENDBRANCH   1   5
TORSDOF 3
ENDMDL
MODEL 2
REMARK VINA RESULT:      -7.4      1.912      2.409
REMARK SMILES CC(=O)CCc1ccc2c(c1)OCO2
REMARK SMILES IDX 4 1 2 2 1 3 3 4 5 5 6 6 7 7 11 8 8 9 10 10 9 11 12 12 14 13
REMARK SMILES IDX 13 14
REMARK H PARENT
REMARK Flexibility Score: inf
ROOT
ATOM      1  C   UNL     1       5.734   1.263  -0.306  1.00  0.00     0.080 C 
ENDROOT
BRANCH   1   2
ATOM      2  C   UNL     1       5.213   1.215   1.088  1.00  0.00     0.130 C 
ATOM      3  C   UNL     1       5.437   0.034   1.965  1.00  0.00     0.087 C 
ATOM      4  O   UNL     1       4.582   2.150   1.555  1.00  0.00    -0.300 OA
ENDBRANCH   1   2
BRANCH   1   5
ATOM      5  C   UNL     1       7.236   1.057  -0.340  1.00  0.00     0.043 C 
BRANCH   5   6
ATOM      6  C   UNL     1       7.596  -0.239  -0.941  1.00  0.00    -0.044 A 
ATOM      7  C   UNL     1       7.620  -0.423  -2.328  1.00  0.00     0.008 A 
ATOM      8  C   UNL     1       7.921  -1.301  -0.128  1.00  0.00     0.054 A 
ATOM      9  C   UNL     1       7.966  -1.662  -2.835  1.00  0.00     0.051 A 
ATOM     10  C   UNL     1       8.272  -2.552  -0.646  1.00  0.00     0.166 A 
ATOM     11  C   UNL     1       8.294  -2.734  -2.011  1.00  0.00     0.165 A 
ATOM     12  O   UNL     1       8.629  -3.746  -0.057  1.00  0.00    -0.454 OA
ATOM     13  O   UNL     1       8.670  -4.049  -2.234  1.00  0.00    -0.454 OA
ATOM     14  C   UNL     1       8.980  -4.701  -1.025  1.00  0.00     0.468 C 
ENDBRANCH   5   6
ENDBRANCH   1   5
TORSDOF 3
ENDMDL
MODEL 3
REMARK VINA RESULT:      -7.2      2.045      2.606
REMARK SMILES CC(=O)CCc1ccc2c(c1)OCO2
REMARK SMILES IDX 4 1 2 2 1 3 3 4 5 5 6 6 7 7 11 8 8 9 10 10 9 11 12 12 14 13
REMARK SMILES IDX 13 14
REMARK H PARENT
REMARK Flexibility Score: inf
ROOT
ATOM      1  C   UNL     1       5.475  -0.006   2.036  1.00  0.00     0.080 C 
ENDROOT
BRANCH   1   2
ATOM      2  C   UNL     1       4.578   1.150   1.758  1.00  0.00     0.130 C 
ATOM      3  C   UNL     1       4.873   2.124   0.672  1.00  0.00     0.087 C 
ATOM      4  O   UNL     1       3.569   1.334   2.419  1.00  0.00    -0.300 OA
ENDBRANCH   1   2
BRANCH   1   5
ATOM      5  C   UNL     1       6.887   0.263   1.554  1.00  0.00     0.043 C 
BRANCH   5   6
ATOM      6  C   UNL     1       7.294  -0.681   0.499  1.00  0.00    -0.044 A 
ATOM      7  C   UNL     1       7.157  -0.369  -0.858  1.00  0.00     0.008 A 
ATOM      8  C   UNL     1       7.827  -1.902   0.846  1.00  0.00     0.054 A 
ATOM      9  C   UNL     1       7.557  -1.295  -1.804  1.00  0.00     0.051 A 
ATOM     10  C   UNL     1       8.231  -2.835  -0.114  1.00  0.00     0.166 A 
ATOM     11  C   UNL     1       8.095  -2.529  -1.450  1.00  0.00     0.165 A 
ATOM     12  O   UNL     1       8.780  -4.097  -0.026  1.00  0.00    -0.454 OA
ATOM     13  O   UNL     1       8.569  -3.620  -2.162  1.00  0.00    -0.454 OA
ATOM     14  C   UNL     1       9.096  -4.599  -1.299  1.00  0.00     0.468 C 
ENDBRANCH   5   6
ENDBRANCH   1   5
TORSDOF 3
ENDMDL
MODEL 4
REMARK VINA RESULT:      -7.1      1.235      1.427
REMARK SMILES CC(=O)CCc1ccc2c(c1)OCO2
REMARK SMILES IDX 4 1 2 2 1 3 3 4 5 5 6 6 7 7 11 8 8 9 10 10 9 11 12 12 14 13
REMARK SMILES IDX 13 14
REMARK H PARENT
REMARK Flexibility Score: inf
ROOT
ATOM      1  C   UNL     1       6.335   1.259   0.901  1.00  0.00     0.080 C 
ENDROOT
BRANCH   1   2
ATOM      2  C   UNL     1       5.646   0.427   1.927  1.00  0.00     0.130 C 
ATOM      3  C   UNL     1       6.286  -0.782   2.511  1.00  0.00     0.087 C 
ATOM      4  O   UNL     1       4.528   0.717   2.321  1.00  0.00    -0.300 OA
ENDBRANCH   1   2
BRANCH   1   5
ATOM      5  C   UNL     1       5.825   0.948  -0.492  1.00  0.00     0.043 C 
BRANCH   5   6
ATOM      6  C   UNL     1       6.784   0.129  -1.255  1.00  0.00    -0.044 A 
ATOM      7  C   UNL     1       7.484   0.649  -2.349  1.00  0.00     0.008 A 
ATOM      8  C   UNL     1       7.006  -1.179  -0.889  1.00  0.00     0.054 A 
ATOM      9  C   UNL     1       8.372  -0.166  -3.027  1.00  0.00     0.051 A 
ATOM     10  C   UNL     1       7.905  -2.000  -1.577  1.00  0.00     0.166 A 
ATOM     11  C   UNL     1       8.594  -1.489  -2.655  1.00  0.00     0.165 A 
ATOM     12  O   UNL     1       8.294  -3.312  -1.413  1.00  0.00    -0.454 OA
ATOM     13  O   UNL     1       9.401  -2.509  -3.134  1.00  0.00    -0.454 OA
ATOM     14  C   UNL     1       9.310  -3.654  -2.321  1.00  0.00     0.468 C 
ENDBRANCH   5   6
ENDBRANCH   1   5
TORSDOF 3
ENDMDL
MODEL 5
REMARK VINA RESULT:      -6.8      1.190      5.177
REMARK SMILES CC(=O)CCc1ccc2c(c1)OCO2
REMARK SMILES IDX 4 1 2 2 1 3 3 4 5 5 6 6 7 7 11 8 8 9 10 10 9 11 12 12 14 13
REMARK SMILES IDX 13 14
REMARK H PARENT
REMARK Flexibility Score: inf
ROOT
ATOM      1  C   UNL     1       8.353   0.215  -2.616  1.00  0.00     0.080 C 
ENDROOT
BRANCH   1   2
ATOM      2  C   UNL     1       8.036  -1.237  -2.713  1.00  0.00     0.130 C 
ATOM      3  C   UNL     1       9.087  -2.248  -3.004  1.00  0.00     0.087 C 
ATOM      4  O   UNL     1       6.895  -1.641  -2.555  1.00  0.00    -0.300 OA
ENDBRANCH   1   2
BRANCH   1   5
ATOM      5  C   UNL     1       8.863   0.576  -1.236  1.00  0.00     0.043 C 
BRANCH   5   6
ATOM      6  C   UNL     1       7.816   0.429  -0.210  1.00  0.00    -0.044 A 
ATOM      7  C   UNL     1       7.901  -0.545   0.791  1.00  0.00     0.008 A 
ATOM      8  C   UNL     1       6.723   1.267  -0.225  1.00  0.00     0.054 A 
ATOM      9  C   UNL     1       6.888  -0.636   1.728  1.00  0.00     0.051 A 
ATOM     10  C   UNL     1       5.702   1.171   0.725  1.00  0.00     0.166 A 
ATOM     11  C   UNL     1       5.785   0.212   1.709  1.00  0.00     0.165 A 
ATOM     12  O   UNL     1       4.532   1.874   0.920  1.00  0.00    -0.454 OA
ATOM     13  O   UNL     1       4.653   0.347   2.497  1.00  0.00    -0.454 OA
ATOM     14  C   UNL     1       3.876   1.447   2.087  1.00  0.00     0.468 C 
ENDBRANCH   5   6
ENDBRANCH   1   5
TORSDOF 3
ENDMDL
