@<TRIPOS>MOLECULE
/home/cewinharhar/GITHUB/reincatalyze/data/processed/docking_pred/2023-May-24-1506_sub9_nm5_bs15_s42_ex16_mel10_mts10000_k50_ec02_g099_lra3e-4_lrc3e-3/8f7c925e970cb887b69f6e81c5db99fda922d0ae_ligand_9.pdbqt
 14 15 0 0 0
SMALL
GASTEIGER

@<TRIPOS>ATOM
      1  C          5.5320    1.9140    1.2540 C.3     1  UNL1        0.0800
      2  C          5.0900    0.7060    2.0060 C.2     1  UNL1        0.1300
      3  C          5.9770   -0.4750    2.1760 C.3     1  UNL1        0.0870
      4  O          3.9780    0.6520    2.5070 O.2     1  UNL1       -0.3000
      5  C          5.4000    1.7090   -0.2420 C.3     1  UNL1        0.0430
      6  C          6.5720    1.0140   -0.8040 C.2     1  UNL1       -0.0440
      7  C          7.8760    1.4560   -0.5540 C.2     1  UNL1        0.0080
      8  C          6.3910   -0.1000   -1.5930 C.2     1  UNL1        0.0540
      9  C          8.9370    0.7630   -1.1070 C.2     1  UNL1        0.0510
     10  C          7.4670   -0.7970   -2.1490 C.2     1  UNL1        0.1660
     11  C          8.7510   -0.3620   -1.9050 C.2     1  UNL1        0.1650
     12  O          7.5480   -1.9130   -2.9550 O.2     1  UNL1       -0.4540
     13  O          9.6020   -1.2300   -2.5710 O.2     1  UNL1       -0.4540
     14  C          8.8860   -2.2810   -3.1750 C.3     1  UNL1        0.4680
@<TRIPOS>BOND
     1    14    12    1
     2    14    13    1
     3    12    10    1
     4    13    11    1
     5    10    11    2
     6    10     8    1
     7    11     9    1
     8     8     6    2
     9     9     7    2
    10     6     7    1
    11     6     5    1
    12     5     1    1
    13     1     2    1
    14     2     3    1
    15     2     4    2
