@<TRIPOS>MOLECULE
/home/cewinharhar/GITHUB/reincatalyze/data/processed/docking_pred/2023-May-24-1506_sub9_nm5_bs15_s42_ex16_mel10_mts10000_k50_ec02_g099_lra3e-4_lrc3e-3/8f7c925e970cb887b69f6e81c5db99fda922d0ae_ligand_9.pdbqt
 14 15 0 0 0
SMALL
GASTEIGER

@<TRIPOS>ATOM
      1  C          6.3350    1.2590    0.9010 C.3     1  UNL1        0.0800
      2  C          5.6460    0.4270    1.9270 C.2     1  UNL1        0.1300
      3  C          6.2860   -0.7820    2.5110 C.3     1  UNL1        0.0870
      4  O          4.5280    0.7170    2.3210 O.2     1  UNL1       -0.3000
      5  C          5.8250    0.9480   -0.4920 C.3     1  UNL1        0.0430
      6  C          6.7840    0.1290   -1.2550 C.2     1  UNL1       -0.0440
      7  C          7.4840    0.6490   -2.3490 C.2     1  UNL1        0.0080
      8  C          7.0060   -1.1790   -0.8890 C.2     1  UNL1        0.0540
      9  C          8.3720   -0.1660   -3.0270 C.2     1  UNL1        0.0510
     10  C          7.9050   -2.0000   -1.5770 C.2     1  UNL1        0.1660
     11  C          8.5940   -1.4890   -2.6550 C.2     1  UNL1        0.1650
     12  O          8.2940   -3.3120   -1.4130 O.2     1  UNL1       -0.4540
     13  O          9.4010   -2.5090   -3.1340 O.2     1  UNL1       -0.4540
     14  C          9.3100   -3.6540   -2.3210 C.3     1  UNL1        0.4680
@<TRIPOS>BOND
     1    13    11    1
     2    13    14    1
     3     9    11    2
     4     9     7    1
     5    11    10    1
     6     7     6    2
     7    14    12    1
     8    10    12    1
     9    10     8    2
    10     6     8    1
    11     6     5    1
    12     5     1    1
    13     1     2    1
    14     2     4    2
    15     2     3    1
