@<TRIPOS>MOLECULE
/home/cewinharhar/GITHUB/reincatalyze/data/processed/docking_pred/2023-May-24-1506_sub9_nm5_bs15_s42_ex16_mel10_mts10000_k50_ec02_g099_lra3e-4_lrc3e-3/8f7c925e970cb887b69f6e81c5db99fda922d0ae_ligand_9.pdbqt
 14 15 0 0 0
SMALL
GASTEIGER

@<TRIPOS>ATOM
      1  C          5.4750   -0.0060    2.0360 C.3     1  UNL1        0.0800
      2  C          4.5780    1.1500    1.7580 C.2     1  UNL1        0.1300
      3  C          4.8730    2.1240    0.6720 C.3     1  UNL1        0.0870
      4  O          3.5690    1.3340    2.4190 O.2     1  UNL1       -0.3000
      5  C          6.8870    0.2630    1.5540 C.3     1  UNL1        0.0430
      6  C          7.2940   -0.6810    0.4990 C.2     1  UNL1       -0.0440
      7  C          7.1570   -0.3690   -0.8580 C.2     1  UNL1        0.0080
      8  C          7.8270   -1.9020    0.8460 C.2     1  UNL1        0.0540
      9  C          7.5570   -1.2950   -1.8040 C.2     1  UNL1        0.0510
     10  C          8.2310   -2.8350   -0.1140 C.2     1  UNL1        0.1660
     11  C          8.0950   -2.5290   -1.4500 C.2     1  UNL1        0.1650
     12  O          8.7800   -4.0970   -0.0260 O.2     1  UNL1       -0.4540
     13  O          8.5690   -3.6200   -2.1620 O.2     1  UNL1       -0.4540
     14  C          9.0960   -4.5990   -1.2990 C.3     1  UNL1        0.4680
@<TRIPOS>BOND
     1    13    11    1
     2    13    14    1
     3     9    11    2
     4     9     7    1
     5    11    10    1
     6    14    12    1
     7     7     6    2
     8    10    12    1
     9    10     8    2
    10     6     8    1
    11     6     5    1
    12     3     2    1
    13     5     1    1
    14     2     1    1
    15     2     4    2
