@<TRIPOS>MOLECULE
/home/cewinharhar/GITHUB/reincatalyze/data/processed/docking_pred/2023-May-24-1506_sub9_nm5_bs15_s42_ex16_mel10_mts10000_k50_ec02_g099_lra3e-4_lrc3e-3/8f7e92428ebbeefdf44ae8ea1c0956f20f305f25_ligand_9.pdbqt
 14 15 0 0 0
SMALL
GASTEIGER

@<TRIPOS>ATOM
      1  C          5.8150    1.3160   -0.3090 C.3     1  UNL1        0.0800
      2  C          5.1870    1.2460    1.0400 C.2     1  UNL1        0.1300
      3  C          5.4000    0.0820    1.9420 C.3     1  UNL1        0.0870
      4  O          4.4750    2.1500    1.4470 O.2     1  UNL1       -0.3000
      5  C          7.3020    1.0300   -0.2390 C.3     1  UNL1        0.0430
      6  C          7.6390   -0.2650   -0.8570 C.2     1  UNL1       -0.0440
      7  C          7.6480   -0.4350   -2.2460 C.2     1  UNL1        0.0080
      8  C          7.9570   -1.3390   -0.0570 C.2     1  UNL1        0.0540
      9  C          7.9730   -1.6730   -2.7680 C.2     1  UNL1        0.0510
     10  C          8.2860   -2.5890   -0.5910 C.2     1  UNL1        0.1660
     11  C          8.2930   -2.7570   -1.9570 C.2     1  UNL1        0.1650
     12  O          8.6320   -3.7940   -0.0170 O.2     1  UNL1       -0.4540
     13  O          8.6490   -4.0750   -2.1970 O.2     1  UNL1       -0.4540
     14  C          8.9610   -4.7440   -0.9980 C.3     1  UNL1        0.4680
@<TRIPOS>BOND
     1     9     7    1
     2     9    11    2
     3     7     6    2
     4    13    11    1
     5    13    14    1
     6    11    10    1
     7    14    12    1
     8     6     5    1
     9     6     8    1
    10    10     8    2
    11    10    12    1
    12     1     5    1
    13     1     2    1
    14     2     4    2
    15     2     3    1
