MODEL 1
REMARK VINA RESULT:      -7.6      0.000      0.000
REMARK SMILES CC(=O)CCc1ccc2c(c1)OCO2
REMARK SMILES IDX 4 1 2 2 1 3 3 4 5 5 6 6 7 7 11 8 8 9 10 10 9 11 12 12 14 13
REMARK SMILES IDX 13 14
REMARK H PARENT
REMARK Flexibility Score: inf
ROOT
ATOM      1  C   UNL     1       5.575   1.877   1.293  1.00  0.00     0.080 C 
ENDROOT
BRANCH   1   2
ATOM      2  C   UNL     1       5.123   0.658   2.020  1.00  0.00     0.130 C 
ATOM      3  C   UNL     1       6.015  -0.519   2.201  1.00  0.00     0.087 C 
ATOM      4  O   UNL     1       4.000   0.590   2.492  1.00  0.00    -0.300 OA
ENDBRANCH   1   2
BRANCH   1   5
ATOM      5  C   UNL     1       5.434   1.707  -0.207  1.00  0.00     0.043 C 
BRANCH   5   6
ATOM      6  C   UNL     1       6.591   1.004  -0.788  1.00  0.00    -0.044 A 
ATOM      7  C   UNL     1       7.902   1.446  -0.573  1.00  0.00     0.008 A 
ATOM      8  C   UNL     1       6.390  -0.116  -1.562  1.00  0.00     0.054 A 
ATOM      9  C   UNL     1       8.948   0.745  -1.144  1.00  0.00     0.051 A 
ATOM     10  C   UNL     1       7.452  -0.822  -2.136  1.00  0.00     0.166 A 
ATOM     11  C   UNL     1       8.742  -0.387  -1.926  1.00  0.00     0.165 A 
ATOM     12  O   UNL     1       7.512  -1.945  -2.933  1.00  0.00    -0.454 OA
ATOM     13  O   UNL     1       9.575  -1.263  -2.603  1.00  0.00    -0.454 OA
ATOM     14  C   UNL     1       8.844  -2.318  -3.180  1.00  0.00     0.468 C 
ENDBRANCH   5   6
ENDBRANCH   1   5
TORSDOF 3
ENDMDL
MODEL 2
REMARK VINA RESULT:      -7.4      1.937      2.425
REMARK SMILES CC(=O)CCc1ccc2c(c1)OCO2
REMARK SMILES IDX 4 1 2 2 1 3 3 4 5 5 6 6 7 7 11 8 8 9 10 10 9 11 12 12 14 13
REMARK SMILES IDX 13 14
REMARK H PARENT
REMARK Flexibility Score: inf
ROOT
ATOM      1  C   UNL     1       5.815   1.316  -0.309  1.00  0.00     0.080 C 
ENDROOT
BRANCH   1   2
ATOM      2  C   UNL     1       5.187   1.246   1.040  1.00  0.00     0.130 C 
ATOM      3  C   UNL     1       5.400   0.082   1.942  1.00  0.00     0.087 C 
ATOM      4  O   UNL     1       4.475   2.150   1.447  1.00  0.00    -0.300 OA
ENDBRANCH   1   2
BRANCH   1   5
ATOM      5  C   UNL     1       7.302   1.030  -0.239  1.00  0.00     0.043 C 
BRANCH   5   6
ATOM      6  C   UNL     1       7.639  -0.265  -0.857  1.00  0.00    -0.044 A 
ATOM      7  C   UNL     1       7.648  -0.435  -2.246  1.00  0.00     0.008 A 
ATOM      8  C   UNL     1       7.957  -1.339  -0.057  1.00  0.00     0.054 A 
ATOM      9  C   UNL     1       7.973  -1.673  -2.768  1.00  0.00     0.051 A 
ATOM     10  C   UNL     1       8.286  -2.589  -0.591  1.00  0.00     0.166 A 
ATOM     11  C   UNL     1       8.293  -2.757  -1.957  1.00  0.00     0.165 A 
ATOM     12  O   UNL     1       8.632  -3.794  -0.017  1.00  0.00    -0.454 OA
ATOM     13  O   UNL     1       8.649  -4.075  -2.197  1.00  0.00    -0.454 OA
ATOM     14  C   UNL     1       8.961  -4.744  -0.998  1.00  0.00     0.468 C 
ENDBRANCH   5   6
ENDBRANCH   1   5
TORSDOF 3
ENDMDL
MODEL 3
REMARK VINA RESULT:      -7.2      2.049      2.632
REMARK SMILES CC(=O)CCc1ccc2c(c1)OCO2
REMARK SMILES IDX 4 1 2 2 1 3 3 4 5 5 6 6 7 7 11 8 8 9 10 10 9 11 12 12 14 13
REMARK SMILES IDX 13 14
REMARK H PARENT
REMARK Flexibility Score: inf
ROOT
ATOM      1  C   UNL     1       5.377  -0.099   2.014  1.00  0.00     0.080 C 
ENDROOT
BRANCH   1   2
ATOM      2  C   UNL     1       4.554   1.120   1.776  1.00  0.00     0.130 C 
ATOM      3  C   UNL     1       4.922   2.119   0.738  1.00  0.00     0.087 C 
ATOM      4  O   UNL     1       3.548   1.335   2.432  1.00  0.00    -0.300 OA
ENDBRANCH   1   2
BRANCH   1   5
ATOM      5  C   UNL     1       6.826   0.132   1.635  1.00  0.00     0.043 C 
BRANCH   5   6
ATOM      6  C   UNL     1       7.263  -0.780   0.563  1.00  0.00    -0.044 A 
ATOM      7  C   UNL     1       7.130  -0.440  -0.788  1.00  0.00     0.008 A 
ATOM      8  C   UNL     1       7.817  -1.997   0.887  1.00  0.00     0.054 A 
ATOM      9  C   UNL     1       7.559  -1.336  -1.750  1.00  0.00     0.051 A 
ATOM     10  C   UNL     1       8.250  -2.899  -0.089  1.00  0.00     0.166 A 
ATOM     11  C   UNL     1       8.119  -2.566  -1.419  1.00  0.00     0.165 A 
ATOM     12  O   UNL     1       8.824  -4.151  -0.024  1.00  0.00    -0.454 OA
ATOM     13  O   UNL     1       8.622  -3.631  -2.150  1.00  0.00    -0.454 OA
ATOM     14  C   UNL     1       9.162  -4.618  -1.305  1.00  0.00     0.468 C 
ENDBRANCH   5   6
ENDBRANCH   1   5
TORSDOF 3
ENDMDL
MODEL 4
REMARK VINA RESULT:      -7.1      1.240      1.437
REMARK SMILES CC(=O)CCc1ccc2c(c1)OCO2
REMARK SMILES IDX 4 1 2 2 1 3 3 4 5 5 6 6 7 7 11 8 8 9 10 10 9 11 12 12 14 13
REMARK SMILES IDX 13 14
REMARK H PARENT
REMARK Flexibility Score: inf
ROOT
ATOM      1  C   UNL     1       6.375   1.165   0.966  1.00  0.00     0.080 C 
ENDROOT
BRANCH   1   2
ATOM      2  C   UNL     1       5.639   0.342   1.966  1.00  0.00     0.130 C 
ATOM      3  C   UNL     1       6.234  -0.886   2.558  1.00  0.00     0.087 C 
ATOM      4  O   UNL     1       4.517   0.655   2.330  1.00  0.00    -0.300 OA
ENDBRANCH   1   2
BRANCH   1   5
ATOM      5  C   UNL     1       5.867   0.909  -0.439  1.00  0.00     0.043 C 
BRANCH   5   6
ATOM      6  C   UNL     1       6.811   0.089  -1.220  1.00  0.00    -0.044 A 
ATOM      7  C   UNL     1       7.477   0.604  -2.338  1.00  0.00     0.008 A 
ATOM      8  C   UNL     1       7.051  -1.214  -0.849  1.00  0.00     0.054 A 
ATOM      9  C   UNL     1       8.352  -0.212  -3.032  1.00  0.00     0.051 A 
ATOM     10  C   UNL     1       7.937  -2.035  -1.554  1.00  0.00     0.166 A 
ATOM     11  C   UNL     1       8.593  -1.529  -2.655  1.00  0.00     0.165 A 
ATOM     12  O   UNL     1       8.340  -3.343  -1.389  1.00  0.00    -0.454 OA
ATOM     13  O   UNL     1       9.394  -2.548  -3.147  1.00  0.00    -0.454 OA
ATOM     14  C   UNL     1       9.333  -3.686  -2.322  1.00  0.00     0.468 C 
ENDBRANCH   5   6
ENDBRANCH   1   5
TORSDOF 3
ENDMDL
MODEL 5
REMARK VINA RESULT:      -7.1      1.978      2.519
REMARK SMILES CC(=O)CCc1ccc2c(c1)OCO2
REMARK SMILES IDX 4 1 2 2 1 3 3 4 5 5 6 6 7 7 11 8 8 9 10 10 9 11 12 12 14 13
REMARK SMILES IDX 13 14
REMARK H PARENT
REMARK Flexibility Score: inf
ROOT
ATOM      1  C   UNL     1       6.785   0.732   1.468  1.00  0.00     0.080 C 
ENDROOT
BRANCH   1   2
ATOM      2  C   UNL     1       5.362   1.173   1.486  1.00  0.00     0.130 C 
ATOM      3  C   UNL     1       4.835   2.150   0.495  1.00  0.00     0.087 C 
ATOM      4  O   UNL     1       4.583   0.743   2.321  1.00  0.00    -0.300 OA
ENDBRANCH   1   2
BRANCH   1   5
ATOM      5  C   UNL     1       7.422   0.983   0.116  1.00  0.00     0.043 C 
BRANCH   5   6
ATOM      6  C   UNL     1       7.723  -0.276  -0.589  1.00  0.00    -0.044 A 
ATOM      7  C   UNL     1       7.697  -0.359  -1.985  1.00  0.00     0.008 A 
ATOM      8  C   UNL     1       8.042  -1.403   0.135  1.00  0.00     0.054 A 
ATOM      9  C   UNL     1       7.990  -1.567  -2.592  1.00  0.00     0.051 A 
ATOM     10  C   UNL     1       8.337  -2.622  -0.483  1.00  0.00     0.166 A 
ATOM     11  C   UNL     1       8.311  -2.704  -1.857  1.00  0.00     0.165 A 
ATOM     12  O   UNL     1       8.677  -3.865   0.007  1.00  0.00    -0.454 OA
ATOM     13  O   UNL     1       8.639  -4.010  -2.187  1.00  0.00    -0.454 OA
ATOM     14  C   UNL     1       8.967  -4.757  -1.039  1.00  0.00     0.468 C 
ENDBRANCH   5   6
ENDBRANCH   1   5
TORSDOF 3
ENDMDL
