@<TRIPOS>MOLECULE
/home/cewinharhar/GITHUB/reincatalyze/data/processed/docking_pred/2023-May-24-1506_sub9_nm5_bs15_s42_ex16_mel10_mts10000_k50_ec02_g099_lra3e-4_lrc3e-3/8f7e92428ebbeefdf44ae8ea1c0956f20f305f25_ligand_9.pdbqt
 14 15 0 0 0
SMALL
GASTEIGER

@<TRIPOS>ATOM
      1  C          5.5750    1.8770    1.2930 C.3     1  UNL1        0.0800
      2  C          5.1230    0.6580    2.0200 C.2     1  UNL1        0.1300
      3  C          6.0150   -0.5190    2.2010 C.3     1  UNL1        0.0870
      4  O          4.0000    0.5900    2.4920 O.2     1  UNL1       -0.3000
      5  C          5.4340    1.7070   -0.2070 C.3     1  UNL1        0.0430
      6  C          6.5910    1.0040   -0.7880 C.2     1  UNL1       -0.0440
      7  C          7.9020    1.4460   -0.5730 C.2     1  UNL1        0.0080
      8  C          6.3900   -0.1160   -1.5620 C.2     1  UNL1        0.0540
      9  C          8.9480    0.7450   -1.1440 C.2     1  UNL1        0.0510
     10  C          7.4520   -0.8220   -2.1360 C.2     1  UNL1        0.1660
     11  C          8.7420   -0.3870   -1.9260 C.2     1  UNL1        0.1650
     12  O          7.5120   -1.9450   -2.9330 O.2     1  UNL1       -0.4540
     13  O          9.5750   -1.2630   -2.6030 O.2     1  UNL1       -0.4540
     14  C          8.8440   -2.3180   -3.1800 C.3     1  UNL1        0.4680
@<TRIPOS>BOND
     1    14    12    1
     2    14    13    1
     3    12    10    1
     4    13    11    1
     5    10    11    2
     6    10     8    1
     7    11     9    1
     8     8     6    2
     9     9     7    2
    10     6     7    1
    11     6     5    1
    12     5     1    1
    13     1     2    1
    14     2     3    1
    15     2     4    2
