@<TRIPOS>MOLECULE
/home/cewinharhar/GITHUB/reincatalyze/data/processed/docking_pred/2023-May-24-1506_sub9_nm5_bs15_s42_ex16_mel10_mts10000_k50_ec02_g099_lra3e-4_lrc3e-3/8f7e92428ebbeefdf44ae8ea1c0956f20f305f25_ligand_9.pdbqt
 14 15 0 0 0
SMALL
GASTEIGER

@<TRIPOS>ATOM
      1  C          5.3770   -0.0990    2.0140 C.3     1  UNL1        0.0800
      2  C          4.5540    1.1200    1.7760 C.2     1  UNL1        0.1300
      3  C          4.9220    2.1190    0.7380 C.3     1  UNL1        0.0870
      4  O          3.5480    1.3350    2.4320 O.2     1  UNL1       -0.3000
      5  C          6.8260    0.1320    1.6350 C.3     1  UNL1        0.0430
      6  C          7.2630   -0.7800    0.5630 C.2     1  UNL1       -0.0440
      7  C          7.1300   -0.4400   -0.7880 C.2     1  UNL1        0.0080
      8  C          7.8170   -1.9970    0.8870 C.2     1  UNL1        0.0540
      9  C          7.5590   -1.3360   -1.7500 C.2     1  UNL1        0.0510
     10  C          8.2500   -2.8990   -0.0890 C.2     1  UNL1        0.1660
     11  C          8.1190   -2.5660   -1.4190 C.2     1  UNL1        0.1650
     12  O          8.8240   -4.1510   -0.0240 O.2     1  UNL1       -0.4540
     13  O          8.6220   -3.6310   -2.1500 O.2     1  UNL1       -0.4540
     14  C          9.1620   -4.6180   -1.3050 C.3     1  UNL1        0.4680
@<TRIPOS>BOND
     1    13    11    1
     2    13    14    1
     3     9    11    2
     4     9     7    1
     5    11    10    1
     6    14    12    1
     7     7     6    2
     8    10    12    1
     9    10     8    2
    10     6     8    1
    11     6     5    1
    12     3     2    1
    13     5     1    1
    14     2     1    1
    15     2     4    2
