@<TRIPOS>MOLECULE
/home/cewinharhar/GITHUB/reincatalyze/data/processed/docking_pred/2023-May-24-1506_sub9_nm5_bs15_s42_ex16_mel10_mts10000_k50_ec02_g099_lra3e-4_lrc3e-3/90bec1d2941dc3e2c4ee946d92d9c3e8ec331448_ligand_9.pdbqt
 14 15 0 0 0
SMALL
GASTEIGER

@<TRIPOS>ATOM
      1  C          5.5420    1.9140    1.2650 C.3     1  UNL1        0.0800
      2  C          5.1010    0.7010    2.0080 C.2     1  UNL1        0.1300
      3  C          5.9930   -0.4760    2.1830 C.3     1  UNL1        0.0870
      4  O          3.9850    0.6380    2.4980 O.2     1  UNL1       -0.3000
      5  C          5.4120    1.7190   -0.2330 C.3     1  UNL1        0.0430
      6  C          6.5800    1.0200   -0.7970 C.2     1  UNL1       -0.0440
      7  C          7.8860    1.4550   -0.5470 C.2     1  UNL1        0.0080
      8  C          6.3930   -0.0910   -1.5880 C.2     1  UNL1        0.0540
      9  C          8.9430    0.7580   -1.1030 C.2     1  UNL1        0.0510
     10  C          7.4650   -0.7930   -2.1460 C.2     1  UNL1        0.1660
     11  C          8.7510   -0.3640   -1.9020 C.2     1  UNL1        0.1650
     12  O          7.5400   -1.9080   -2.9540 O.2     1  UNL1       -0.4540
     13  O          9.5970   -1.2350   -2.5710 O.2     1  UNL1       -0.4540
     14  C          8.8760   -2.2810   -3.1760 C.3     1  UNL1        0.4680
@<TRIPOS>BOND
     1    14    12    1
     2    14    13    1
     3    12    10    1
     4    13    11    1
     5    10    11    2
     6    10     8    1
     7    11     9    1
     8     8     6    2
     9     9     7    2
    10     6     7    1
    11     6     5    1
    12     5     1    1
    13     1     2    1
    14     2     3    1
    15     2     4    2
