@<TRIPOS>MOLECULE
/home/cewinharhar/GITHUB/reincatalyze/data/processed/docking_pred/2023-May-24-1506_sub9_nm5_bs15_s42_ex16_mel10_mts10000_k50_ec02_g099_lra3e-4_lrc3e-3/90bec1d2941dc3e2c4ee946d92d9c3e8ec331448_ligand_9.pdbqt
 14 15 0 0 0
SMALL
GASTEIGER

@<TRIPOS>ATOM
      1  C          6.7830    1.2280    0.9980 C.3     1  UNL1        0.0800
      2  C          5.3910    1.7140    0.7880 C.2     1  UNL1        0.1300
      3  C          4.9100    2.1500   -0.5500 C.3     1  UNL1        0.0870
      4  O          4.5990    1.7680    1.7150 O.2     1  UNL1       -0.3000
      5  C          7.5920    1.3060   -0.2810 C.3     1  UNL1        0.0430
      6  C          7.8450   -0.0300   -0.8500 C.2     1  UNL1       -0.0440
      7  C          7.8500   -0.2480   -2.2330 C.2     1  UNL1        0.0080
      8  C          8.0870   -1.0940   -0.0120 C.2     1  UNL1        0.0540
      9  C          8.0940   -1.5230   -2.7100 C.2     1  UNL1        0.0510
     10  C          8.3340   -2.3810   -0.4990 C.2     1  UNL1        0.1660
     11  C          8.3370   -2.5970   -1.8590 C.2     1  UNL1        0.1650
     12  O          8.5960   -3.5850    0.1190 O.2     1  UNL1       -0.4540
     13  O          8.6060   -3.9440   -2.0500 O.2     1  UNL1       -0.4540
     14  C          8.8660   -4.5890   -0.8260 C.3     1  UNL1        0.4680
@<TRIPOS>BOND
     1     9     7    1
     2     9    11    2
     3     7     6    2
     4    13    11    1
     5    13    14    1
     6    11    10    1
     7     6     5    1
     8     6     8    1
     9    14    12    1
    10     3     2    1
    11    10     8    2
    12    10    12    1
    13     5     1    1
    14     2     1    1
    15     2     4    2
