@<TRIPOS>MOLECULE
/home/cewinharhar/GITHUB/reincatalyze/data/processed/docking_pred/2023-May-24-1506_sub9_nm5_bs15_s42_ex16_mel10_mts10000_k50_ec02_g099_lra3e-4_lrc3e-3/90bec1d2941dc3e2c4ee946d92d9c3e8ec331448_ligand_9.pdbqt
 14 15 0 0 0
SMALL
GASTEIGER

@<TRIPOS>ATOM
      1  C          5.7760    1.4420   -0.2410 C.3     1  UNL1        0.0800
      2  C          5.1030    1.2800    1.0780 C.2     1  UNL1        0.1300
      3  C          5.3930    0.1220    1.9650 C.3     1  UNL1        0.0870
      4  O          4.2880    2.0990    1.4710 O.2     1  UNL1       -0.3000
      5  C          7.2600    1.1510   -0.1410 C.3     1  UNL1        0.0430
      6  C          7.6070   -0.1400   -0.7620 C.2     1  UNL1       -0.0440
      7  C          7.6200   -0.3050   -2.1510 C.2     1  UNL1        0.0080
      8  C          7.9300   -1.2150    0.0350 C.2     1  UNL1        0.0540
      9  C          7.9540   -1.5400   -2.6770 C.2     1  UNL1        0.0510
     10  C          8.2670   -2.4610   -0.5020 C.2     1  UNL1        0.1660
     11  C          8.2790   -2.6250   -1.8690 C.2     1  UNL1        0.1650
     12  O          8.6200   -3.6660    0.0690 O.2     1  UNL1       -0.4540
     13  O          8.6440   -3.9400   -2.1120 O.2     1  UNL1       -0.4540
     14  C          8.9580   -4.6100   -0.9140 C.3     1  UNL1        0.4680
@<TRIPOS>BOND
     1     9     7    1
     2     9    11    2
     3     7     6    2
     4    13    11    1
     5    13    14    1
     6    11    10    1
     7    14    12    1
     8     6     5    1
     9     6     8    1
    10    10     8    2
    11    10    12    1
    12     1     5    1
    13     1     2    1
    14     2     4    2
    15     2     3    1
