MODEL 1
REMARK VINA RESULT:      -7.6      0.000      0.000
REMARK SMILES CC(=O)CCc1ccc2c(c1)OCO2
REMARK SMILES IDX 4 1 2 2 1 3 3 4 5 5 6 6 7 7 11 8 8 9 10 10 9 11 12 12 14 13
REMARK SMILES IDX 13 14
REMARK H PARENT
REMARK Flexibility Score: inf
ROOT
ATOM      1  C   UNL     1       5.542   1.914   1.265  1.00  0.00     0.080 C 
ENDROOT
BRANCH   1   2
ATOM      2  C   UNL     1       5.101   0.701   2.008  1.00  0.00     0.130 C 
ATOM      3  C   UNL     1       5.993  -0.476   2.183  1.00  0.00     0.087 C 
ATOM      4  O   UNL     1       3.985   0.638   2.498  1.00  0.00    -0.300 OA
ENDBRANCH   1   2
BRANCH   1   5
ATOM      5  C   UNL     1       5.412   1.719  -0.233  1.00  0.00     0.043 C 
BRANCH   5   6
ATOM      6  C   UNL     1       6.580   1.020  -0.797  1.00  0.00    -0.044 A 
ATOM      7  C   UNL     1       7.886   1.455  -0.547  1.00  0.00     0.008 A 
ATOM      8  C   UNL     1       6.393  -0.091  -1.588  1.00  0.00     0.054 A 
ATOM      9  C   UNL     1       8.943   0.758  -1.103  1.00  0.00     0.051 A 
ATOM     10  C   UNL     1       7.465  -0.793  -2.146  1.00  0.00     0.166 A 
ATOM     11  C   UNL     1       8.751  -0.364  -1.902  1.00  0.00     0.165 A 
ATOM     12  O   UNL     1       7.540  -1.908  -2.954  1.00  0.00    -0.454 OA
ATOM     13  O   UNL     1       9.597  -1.235  -2.571  1.00  0.00    -0.454 OA
ATOM     14  C   UNL     1       8.876  -2.281  -3.176  1.00  0.00     0.468 C 
ENDBRANCH   5   6
ENDBRANCH   1   5
TORSDOF 3
ENDMDL
MODEL 2
REMARK VINA RESULT:      -7.4      1.930      2.368
REMARK SMILES CC(=O)CCc1ccc2c(c1)OCO2
REMARK SMILES IDX 4 1 2 2 1 3 3 4 5 5 6 6 7 7 11 8 8 9 10 10 9 11 12 12 14 13
REMARK SMILES IDX 13 14
REMARK H PARENT
REMARK Flexibility Score: inf
ROOT
ATOM      1  C   UNL     1       5.776   1.442  -0.241  1.00  0.00     0.080 C 
ENDROOT
BRANCH   1   2
ATOM      2  C   UNL     1       5.103   1.280   1.078  1.00  0.00     0.130 C 
ATOM      3  C   UNL     1       5.393   0.122   1.965  1.00  0.00     0.087 C 
ATOM      4  O   UNL     1       4.288   2.099   1.471  1.00  0.00    -0.300 OA
ENDBRANCH   1   2
BRANCH   1   5
ATOM      5  C   UNL     1       7.260   1.151  -0.141  1.00  0.00     0.043 C 
BRANCH   5   6
ATOM      6  C   UNL     1       7.607  -0.140  -0.762  1.00  0.00    -0.044 A 
ATOM      7  C   UNL     1       7.620  -0.305  -2.151  1.00  0.00     0.008 A 
ATOM      8  C   UNL     1       7.930  -1.215   0.035  1.00  0.00     0.054 A 
ATOM      9  C   UNL     1       7.954  -1.540  -2.677  1.00  0.00     0.051 A 
ATOM     10  C   UNL     1       8.267  -2.461  -0.502  1.00  0.00     0.166 A 
ATOM     11  C   UNL     1       8.279  -2.625  -1.869  1.00  0.00     0.165 A 
ATOM     12  O   UNL     1       8.620  -3.666   0.069  1.00  0.00    -0.454 OA
ATOM     13  O   UNL     1       8.644  -3.940  -2.112  1.00  0.00    -0.454 OA
ATOM     14  C   UNL     1       8.958  -4.610  -0.914  1.00  0.00     0.468 C 
ENDBRANCH   5   6
ENDBRANCH   1   5
TORSDOF 3
ENDMDL
MODEL 3
REMARK VINA RESULT:      -7.1      2.097      2.631
REMARK SMILES CC(=O)CCc1ccc2c(c1)OCO2
REMARK SMILES IDX 4 1 2 2 1 3 3 4 5 5 6 6 7 7 11 8 8 9 10 10 9 11 12 12 14 13
REMARK SMILES IDX 13 14
REMARK H PARENT
REMARK Flexibility Score: inf
ROOT
ATOM      1  C   UNL     1       5.592   0.024   1.931  1.00  0.00     0.080 C 
ENDROOT
BRANCH   1   2
ATOM      2  C   UNL     1       4.695   1.172   1.620  1.00  0.00     0.130 C 
ATOM      3  C   UNL     1       5.011   2.138   0.534  1.00  0.00     0.087 C 
ATOM      4  O   UNL     1       3.668   1.353   2.254  1.00  0.00    -0.300 OA
ENDBRANCH   1   2
BRANCH   1   5
ATOM      5  C   UNL     1       7.001   0.275   1.431  1.00  0.00     0.043 C 
BRANCH   5   6
ATOM      6  C   UNL     1       7.398  -0.702   0.402  1.00  0.00    -0.044 A 
ATOM      7  C   UNL     1       7.287  -0.416  -0.964  1.00  0.00     0.008 A 
ATOM      8  C   UNL     1       7.895  -1.929   0.782  1.00  0.00     0.054 A 
ATOM      9  C   UNL     1       7.676  -1.373  -1.884  1.00  0.00     0.051 A 
ATOM     10  C   UNL     1       8.288  -2.892  -0.152  1.00  0.00     0.166 A 
ATOM     11  C   UNL     1       8.177  -2.612  -1.496  1.00  0.00     0.165 A 
ATOM     12  O   UNL     1       8.803  -4.165  -0.029  1.00  0.00    -0.454 OA
ATOM     13  O   UNL     1       8.632  -3.729  -2.177  1.00  0.00    -0.454 OA
ATOM     14  C   UNL     1       9.124  -4.703  -1.287  1.00  0.00     0.468 C 
ENDBRANCH   5   6
ENDBRANCH   1   5
TORSDOF 3
ENDMDL
MODEL 4
REMARK VINA RESULT:      -7.0      1.232      1.411
REMARK SMILES CC(=O)CCc1ccc2c(c1)OCO2
REMARK SMILES IDX 4 1 2 2 1 3 3 4 5 5 6 6 7 7 11 8 8 9 10 10 9 11 12 12 14 13
REMARK SMILES IDX 13 14
REMARK H PARENT
REMARK Flexibility Score: inf
ROOT
ATOM      1  C   UNL     1       6.316   1.298   0.853  1.00  0.00     0.080 C 
ENDROOT
BRANCH   1   2
ATOM      2  C   UNL     1       5.657   0.482   1.911  1.00  0.00     0.130 C 
ATOM      3  C   UNL     1       6.303  -0.732   2.477  1.00  0.00     0.087 C 
ATOM      4  O   UNL     1       4.559   0.790   2.346  1.00  0.00    -0.300 OA
ENDBRANCH   1   2
BRANCH   1   5
ATOM      5  C   UNL     1       5.800   0.935  -0.525  1.00  0.00     0.043 C 
BRANCH   5   6
ATOM      6  C   UNL     1       6.776   0.128  -1.279  1.00  0.00    -0.044 A 
ATOM      7  C   UNL     1       7.504   0.667  -2.346  1.00  0.00     0.008 A 
ATOM      8  C   UNL     1       6.986  -1.187  -0.933  1.00  0.00     0.054 A 
ATOM      9  C   UNL     1       8.407  -0.137  -3.016  1.00  0.00     0.051 A 
ATOM     10  C   UNL     1       7.901  -1.996  -1.613  1.00  0.00     0.166 A 
ATOM     11  C   UNL     1       8.617  -1.467  -2.664  1.00  0.00     0.165 A 
ATOM     12  O   UNL     1       8.284  -3.312  -1.464  1.00  0.00    -0.454 OA
ATOM     13  O   UNL     1       9.434  -2.479  -3.143  1.00  0.00    -0.454 OA
ATOM     14  C   UNL     1       9.321  -3.639  -2.353  1.00  0.00     0.468 C 
ENDBRANCH   5   6
ENDBRANCH   1   5
TORSDOF 3
ENDMDL
MODEL 5
REMARK VINA RESULT:      -6.9      1.926      2.601
REMARK SMILES CC(=O)CCc1ccc2c(c1)OCO2
REMARK SMILES IDX 4 1 2 2 1 3 3 4 5 5 6 6 7 7 11 8 8 9 10 10 9 11 12 12 14 13
REMARK SMILES IDX 13 14
REMARK H PARENT
REMARK Flexibility Score: inf
ROOT
ATOM      1  C   UNL     1       6.783   1.228   0.998  1.00  0.00     0.080 C 
ENDROOT
BRANCH   1   2
ATOM      2  C   UNL     1       5.391   1.714   0.788  1.00  0.00     0.130 C 
ATOM      3  C   UNL     1       4.910   2.150  -0.550  1.00  0.00     0.087 C 
ATOM      4  O   UNL     1       4.599   1.768   1.715  1.00  0.00    -0.300 OA
ENDBRANCH   1   2
BRANCH   1   5
ATOM      5  C   UNL     1       7.592   1.306  -0.281  1.00  0.00     0.043 C 
BRANCH   5   6
ATOM      6  C   UNL     1       7.845  -0.030  -0.850  1.00  0.00    -0.044 A 
ATOM      7  C   UNL     1       7.850  -0.248  -2.233  1.00  0.00     0.008 A 
ATOM      8  C   UNL     1       8.087  -1.094  -0.012  1.00  0.00     0.054 A 
ATOM      9  C   UNL     1       8.094  -1.523  -2.710  1.00  0.00     0.051 A 
ATOM     10  C   UNL     1       8.334  -2.381  -0.499  1.00  0.00     0.166 A 
ATOM     11  C   UNL     1       8.337  -2.597  -1.859  1.00  0.00     0.165 A 
ATOM     12  O   UNL     1       8.596  -3.585   0.119  1.00  0.00    -0.454 OA
ATOM     13  O   UNL     1       8.606  -3.944  -2.050  1.00  0.00    -0.454 OA
ATOM     14  C   UNL     1       8.866  -4.589  -0.826  1.00  0.00     0.468 C 
ENDBRANCH   5   6
ENDBRANCH   1   5
TORSDOF 3
ENDMDL
