@<TRIPOS>MOLECULE
/home/cewinharhar/GITHUB/reincatalyze/data/processed/docking_pred/2023-May-24-1506_sub9_nm5_bs15_s42_ex16_mel10_mts10000_k50_ec02_g099_lra3e-4_lrc3e-3/90bec1d2941dc3e2c4ee946d92d9c3e8ec331448_ligand_9.pdbqt
 14 15 0 0 0
SMALL
GASTEIGER

@<TRIPOS>ATOM
      1  C          6.3160    1.2980    0.8530 C.3     1  UNL1        0.0800
      2  C          5.6570    0.4820    1.9110 C.2     1  UNL1        0.1300
      3  C          6.3030   -0.7320    2.4770 C.3     1  UNL1        0.0870
      4  O          4.5590    0.7900    2.3460 O.2     1  UNL1       -0.3000
      5  C          5.8000    0.9350   -0.5250 C.3     1  UNL1        0.0430
      6  C          6.7760    0.1280   -1.2790 C.2     1  UNL1       -0.0440
      7  C          7.5040    0.6670   -2.3460 C.2     1  UNL1        0.0080
      8  C          6.9860   -1.1870   -0.9330 C.2     1  UNL1        0.0540
      9  C          8.4070   -0.1370   -3.0160 C.2     1  UNL1        0.0510
     10  C          7.9010   -1.9960   -1.6130 C.2     1  UNL1        0.1660
     11  C          8.6170   -1.4670   -2.6640 C.2     1  UNL1        0.1650
     12  O          8.2840   -3.3120   -1.4640 O.2     1  UNL1       -0.4540
     13  O          9.4340   -2.4790   -3.1430 O.2     1  UNL1       -0.4540
     14  C          9.3210   -3.6390   -2.3530 C.3     1  UNL1        0.4680
@<TRIPOS>BOND
     1    13    11    1
     2    13    14    1
     3     9    11    2
     4     9     7    1
     5    11    10    1
     6    14    12    1
     7     7     6    2
     8    10    12    1
     9    10     8    2
    10     6     8    1
    11     6     5    1
    12     5     1    1
    13     1     2    1
    14     2     4    2
    15     2     3    1
