@<TRIPOS>MOLECULE
/home/cewinharhar/GITHUB/reincatalyze/data/processed/docking_pred/2023-May-24-1506_sub9_nm5_bs15_s42_ex16_mel10_mts10000_k50_ec02_g099_lra3e-4_lrc3e-3/90bec1d2941dc3e2c4ee946d92d9c3e8ec331448_ligand_9.pdbqt
 14 15 0 0 0
SMALL
GASTEIGER

@<TRIPOS>ATOM
      1  C          5.5920    0.0240    1.9310 C.3     1  UNL1        0.0800
      2  C          4.6950    1.1720    1.6200 C.2     1  UNL1        0.1300
      3  C          5.0110    2.1380    0.5340 C.3     1  UNL1        0.0870
      4  O          3.6680    1.3530    2.2540 O.2     1  UNL1       -0.3000
      5  C          7.0010    0.2750    1.4310 C.3     1  UNL1        0.0430
      6  C          7.3980   -0.7020    0.4020 C.2     1  UNL1       -0.0440
      7  C          7.2870   -0.4160   -0.9640 C.2     1  UNL1        0.0080
      8  C          7.8950   -1.9290    0.7820 C.2     1  UNL1        0.0540
      9  C          7.6760   -1.3730   -1.8840 C.2     1  UNL1        0.0510
     10  C          8.2880   -2.8920   -0.1520 C.2     1  UNL1        0.1660
     11  C          8.1770   -2.6120   -1.4960 C.2     1  UNL1        0.1650
     12  O          8.8030   -4.1650   -0.0290 O.2     1  UNL1       -0.4540
     13  O          8.6320   -3.7290   -2.1770 O.2     1  UNL1       -0.4540
     14  C          9.1240   -4.7030   -1.2870 C.3     1  UNL1        0.4680
@<TRIPOS>BOND
     1    13    11    1
     2    13    14    1
     3     9    11    2
     4     9     7    1
     5    11    10    1
     6    14    12    1
     7     7     6    2
     8    10    12    1
     9    10     8    2
    10     6     8    1
    11     6     5    1
    12     3     2    1
    13     5     1    1
    14     2     1    1
    15     2     4    2
