MODEL 1
REMARK VINA RESULT:       1.2      0.000      0.000
REMARK SMILES CC(=O)CCc1ccc2c(c1)OCO2
REMARK SMILES IDX 4 1 2 2 1 3 3 4 5 5 6 6 7 7 11 8 8 9 10 10 9 11 12 12 14 13
REMARK SMILES IDX 13 14
REMARK H PARENT
REMARK Flexibility Score: inf
ROOT
ATOM      1  C   UNL     1       6.565   2.150   1.590  1.00  0.00     0.080 C 
ENDROOT
BRANCH   1   2
ATOM      2  C   UNL     1       5.196   2.069   1.009  1.00  0.00     0.130 C 
ATOM      3  C   UNL     1       4.964   2.150  -0.458  1.00  0.00     0.087 C 
ATOM      4  O   UNL     1       4.218   1.934   1.727  1.00  0.00    -0.300 OA
ENDBRANCH   1   2
BRANCH   1   5
ATOM      5  C   UNL     1       6.750   1.141   2.706  1.00  0.00     0.043 C 
BRANCH   5   6
ATOM      6  C   UNL     1       7.000  -0.214   2.181  1.00  0.00    -0.044 A 
ATOM      7  C   UNL     1       5.952  -1.105   1.923  1.00  0.00     0.008 A 
ATOM      8  C   UNL     1       8.291  -0.623   1.934  1.00  0.00     0.054 A 
ATOM      9  C   UNL     1       6.246  -2.363   1.430  1.00  0.00     0.051 A 
ATOM     10  C   UNL     1       8.583  -1.896   1.436  1.00  0.00     0.166 A 
ATOM     11  C   UNL     1       7.552  -2.773   1.182  1.00  0.00     0.165 A 
ATOM     12  O   UNL     1       9.764  -2.530   1.113  1.00  0.00    -0.454 OA
ATOM     13  O   UNL     1       8.128  -3.940   0.703  1.00  0.00    -0.454 OA
ATOM     14  C   UNL     1       9.521  -3.797   0.557  1.00  0.00     0.468 C 
ENDBRANCH   5   6
ENDBRANCH   1   5
TORSDOF 3
ENDMDL
MODEL 2
REMARK VINA RESULT:       1.3      2.134      5.793
REMARK SMILES CC(=O)CCc1ccc2c(c1)OCO2
REMARK SMILES IDX 4 1 2 2 1 3 3 4 5 5 6 6 7 7 11 8 8 9 10 10 9 11 12 12 14 13
REMARK SMILES IDX 13 14
REMARK H PARENT
REMARK Flexibility Score: inf
ROOT
ATOM      1  C   UNL     1       8.764  -4.777  -0.395  1.00  0.00     0.080 C 
ENDROOT
BRANCH   1   2
ATOM      2  C   UNL     1       9.518  -4.703  -1.677  1.00  0.00     0.130 C 
ATOM      3  C   UNL     1      10.325  -5.849  -2.175  1.00  0.00     0.087 C 
ATOM      4  O   UNL     1       9.496  -3.692  -2.360  1.00  0.00    -0.300 OA
ENDBRANCH   1   2
BRANCH   1   5
ATOM      5  C   UNL     1       9.505  -4.068   0.722  1.00  0.00     0.043 C 
BRANCH   5   6
ATOM      6  C   UNL     1       8.847  -2.805   1.098  1.00  0.00    -0.044 A 
ATOM      7  C   UNL     1       9.571  -1.615   1.239  1.00  0.00     0.008 A 
ATOM      8  C   UNL     1       7.488  -2.782   1.317  1.00  0.00     0.054 A 
ATOM      9  C   UNL     1       8.899  -0.459   1.594  1.00  0.00     0.051 A 
ATOM     10  C   UNL     1       6.814  -1.611   1.675  1.00  0.00     0.166 A 
ATOM     11  C   UNL     1       7.525  -0.440   1.815  1.00  0.00     0.165 A 
ATOM     12  O   UNL     1       5.490  -1.333   1.943  1.00  0.00    -0.454 OA
ATOM     13  O   UNL     1       6.614   0.543   2.169  1.00  0.00    -0.454 OA
ATOM     14  C   UNL     1       5.300   0.039   2.173  1.00  0.00     0.468 C 
ENDBRANCH   5   6
ENDBRANCH   1   5
TORSDOF 3
ENDMDL
MODEL 3
REMARK VINA RESULT:       1.4      3.213      4.142
REMARK SMILES CC(=O)CCc1ccc2c(c1)OCO2
REMARK SMILES IDX 4 1 2 2 1 3 3 4 5 5 6 6 7 7 11 8 8 9 10 10 9 11 12 12 14 13
REMARK SMILES IDX 13 14
REMARK H PARENT
REMARK Flexibility Score: inf
ROOT
ATOM      1  C   UNL     1       1.955  -0.068   3.084  1.00  0.00     0.080 C 
ENDROOT
BRANCH   1   2
ATOM      2  C   UNL     1       0.478   0.123   3.102  1.00  0.00     0.130 C 
ATOM      3  C   UNL     1      -0.172   1.254   2.387  1.00  0.00     0.087 C 
ATOM      4  O   UNL     1      -0.246  -0.649   3.709  1.00  0.00    -0.300 OA
ENDBRANCH   1   2
BRANCH   1   5
ATOM      5  C   UNL     1       2.649   1.076   2.372  1.00  0.00     0.043 C 
BRANCH   5   6
ATOM      6  C   UNL     1       4.076   0.789   2.139  1.00  0.00    -0.044 A 
ATOM      7  C   UNL     1       4.989   1.807   1.840  1.00  0.00     0.008 A 
ATOM      8  C   UNL     1       4.533  -0.507   2.216  1.00  0.00     0.054 A 
ATOM      9  C   UNL     1       6.316   1.478   1.632  1.00  0.00     0.051 A 
ATOM     10  C   UNL     1       5.876  -0.834   2.006  1.00  0.00     0.166 A 
ATOM     11  C   UNL     1       6.775   0.166   1.711  1.00  0.00     0.165 A 
ATOM     12  O   UNL     1       6.566  -2.028   2.025  1.00  0.00    -0.454 OA
ATOM     13  O   UNL     1       8.012  -0.439   1.555  1.00  0.00    -0.454 OA
ATOM     14  C   UNL     1       7.942  -1.817   1.835  1.00  0.00     0.468 C 
ENDBRANCH   5   6
ENDBRANCH   1   5
TORSDOF 3
ENDMDL
MODEL 4
REMARK VINA RESULT:       2.1      1.285      5.723
REMARK SMILES CC(=O)CCc1ccc2c(c1)OCO2
REMARK SMILES IDX 4 1 2 2 1 3 3 4 5 5 6 6 7 7 11 8 8 9 10 10 9 11 12 12 14 13
REMARK SMILES IDX 13 14
REMARK H PARENT
REMARK Flexibility Score: inf
ROOT
ATOM      1  C   UNL     1       8.067  -3.110   0.679  1.00  0.00     0.080 C 
ENDROOT
BRANCH   1   2
ATOM      2  C   UNL     1       9.186  -4.073   0.476  1.00  0.00     0.130 C 
ATOM      3  C   UNL     1       9.274  -4.921  -0.743  1.00  0.00     0.087 C 
ATOM      4  O   UNL     1      10.068  -4.194   1.311  1.00  0.00    -0.300 OA
ENDBRANCH   1   2
BRANCH   1   5
ATOM      5  C   UNL     1       8.341  -2.188   1.850  1.00  0.00     0.043 C 
BRANCH   5   6
ATOM      6  C   UNL     1       7.442  -1.020   1.848  1.00  0.00    -0.044 A 
ATOM      7  C   UNL     1       7.914   0.268   1.571  1.00  0.00     0.008 A 
ATOM      8  C   UNL     1       6.103  -1.189   2.120  1.00  0.00     0.054 A 
ATOM      9  C   UNL     1       7.023   1.326   1.582  1.00  0.00     0.051 A 
ATOM     10  C   UNL     1       5.207  -0.116   2.129  1.00  0.00     0.166 A 
ATOM     11  C   UNL     1       5.671   1.152   1.858  1.00  0.00     0.165 A 
ATOM     12  O   UNL     1       3.852  -0.026   2.368  1.00  0.00    -0.454 OA
ATOM     13  O   UNL     1       4.579   2.003   1.936  1.00  0.00    -0.454 OA
ATOM     14  C   UNL     1       3.391   1.285   2.167  1.00  0.00     0.468 C 
ENDBRANCH   5   6
ENDBRANCH   1   5
TORSDOF 3
ENDMDL
MODEL 5
REMARK VINA RESULT:       2.2      9.411     11.173
REMARK SMILES CC(=O)CCc1ccc2c(c1)OCO2
REMARK SMILES IDX 4 1 2 2 1 3 3 4 5 5 6 6 7 7 11 8 8 9 10 10 9 11 12 12 14 13
REMARK SMILES IDX 13 14
REMARK H PARENT
REMARK Flexibility Score: inf
ROOT
ATOM      1  C   UNL     1       1.866  -7.472  -0.623  1.00  0.00     0.080 C 
ENDROOT
BRANCH   1   2
ATOM      2  C   UNL     1       2.229  -6.048  -0.378  1.00  0.00     0.130 C 
ATOM      3  C   UNL     1       1.972  -4.991  -1.393  1.00  0.00     0.087 C 
ATOM      4  O   UNL     1       2.752  -5.706   0.670  1.00  0.00    -0.300 OA
ENDBRANCH   1   2
BRANCH   1   5
ATOM      5  C   UNL     1       2.641  -8.402   0.290  1.00  0.00     0.043 C 
BRANCH   5   6
ATOM      6  C   UNL     1       1.809  -9.525   0.758  1.00  0.00    -0.044 A 
ATOM      7  C   UNL     1       2.377 -10.666   1.337  1.00  0.00     0.008 A 
ATOM      8  C   UNL     1       0.440  -9.460   0.631  1.00  0.00     0.054 A 
ATOM      9  C   UNL     1       1.547 -11.688   1.759  1.00  0.00     0.051 A 
ATOM     10  C   UNL     1      -0.395 -10.496   1.060  1.00  0.00     0.166 A 
ATOM     11  C   UNL     1       0.163 -11.619   1.628  1.00  0.00     0.165 A 
ATOM     12  O   UNL     1      -1.763 -10.668   1.044  1.00  0.00    -0.454 OA
ATOM     13  O   UNL     1      -0.885 -12.466   1.954  1.00  0.00    -0.454 OA
ATOM     14  C   UNL     1      -2.128 -11.864   1.683  1.00  0.00     0.468 C 
ENDBRANCH   5   6
ENDBRANCH   1   5
TORSDOF 3
ENDMDL
