@<TRIPOS>MOLECULE
/home/cewinharhar/GITHUB/reincatalyze/data/processed/docking_pred/2023-May-24-1506_sub9_nm5_bs15_s42_ex16_mel10_mts10000_k50_ec02_g099_lra3e-4_lrc3e-3/9282b18981f6708324b0af4486d36de930a99903_ligand_9.pdbqt
 14 15 0 0 0
SMALL
GASTEIGER

@<TRIPOS>ATOM
      1  C          8.0670   -3.1100    0.6790 C.3     1  UNL1        0.0800
      2  C          9.1860   -4.0730    0.4760 C.2     1  UNL1        0.1300
      3  C          9.2740   -4.9210   -0.7430 C.3     1  UNL1        0.0870
      4  O         10.0680   -4.1940    1.3110 O.2     1  UNL1       -0.3000
      5  C          8.3410   -2.1880    1.8500 C.3     1  UNL1        0.0430
      6  C          7.4420   -1.0200    1.8480 C.2     1  UNL1       -0.0440
      7  C          7.9140    0.2680    1.5710 C.2     1  UNL1        0.0080
      8  C          6.1030   -1.1890    2.1200 C.2     1  UNL1        0.0540
      9  C          7.0230    1.3260    1.5820 C.2     1  UNL1        0.0510
     10  C          5.2070   -0.1160    2.1290 C.2     1  UNL1        0.1660
     11  C          5.6710    1.1520    1.8580 C.2     1  UNL1        0.1650
     12  O          3.8520   -0.0260    2.3680 O.2     1  UNL1       -0.4540
     13  O          4.5790    2.0030    1.9360 O.2     1  UNL1       -0.4540
     14  C          3.3910    1.2850    2.1670 C.3     1  UNL1        0.4680
@<TRIPOS>BOND
     1     3     2    1
     2     2     1    1
     3     2     4    2
     4     1     5    1
     5     7     9    1
     6     7     6    2
     7     9    11    2
     8     6     5    1
     9     6     8    1
    10    11    13    1
    11    11    10    1
    12    13    14    1
    13     8    10    2
    14    10    12    1
    15    14    12    1
