@<TRIPOS>MOLECULE
/home/cewinharhar/GITHUB/reincatalyze/data/processed/docking_pred/2023-May-24-1506_sub9_nm5_bs15_s42_ex16_mel10_mts10000_k50_ec02_g099_lra3e-4_lrc3e-3/9282b18981f6708324b0af4486d36de930a99903_ligand_9.pdbqt
 14 15 0 0 0
SMALL
GASTEIGER

@<TRIPOS>ATOM
      1  C          8.7640   -4.7770   -0.3950 C.3     1  UNL1        0.0800
      2  C          9.5180   -4.7030   -1.6770 C.2     1  UNL1        0.1300
      3  C         10.3250   -5.8490   -2.1750 C.3     1  UNL1        0.0870
      4  O          9.4960   -3.6920   -2.3600 O.2     1  UNL1       -0.3000
      5  C          9.5050   -4.0680    0.7220 C.3     1  UNL1        0.0430
      6  C          8.8470   -2.8050    1.0980 C.2     1  UNL1       -0.0440
      7  C          9.5710   -1.6150    1.2390 C.2     1  UNL1        0.0080
      8  C          7.4880   -2.7820    1.3170 C.2     1  UNL1        0.0540
      9  C          8.8990   -0.4590    1.5940 C.2     1  UNL1        0.0510
     10  C          6.8140   -1.6110    1.6750 C.2     1  UNL1        0.1660
     11  C          7.5250   -0.4400    1.8150 C.2     1  UNL1        0.1650
     12  O          5.4900   -1.3330    1.9430 O.2     1  UNL1       -0.4540
     13  O          6.6140    0.5430    2.1690 O.2     1  UNL1       -0.4540
     14  C          5.3000    0.0390    2.1730 C.3     1  UNL1        0.4680
@<TRIPOS>BOND
     1     4     2    2
     2     3     2    1
     3     2     1    1
     4     1     5    1
     5     5     6    1
     6     6     7    2
     7     6     8    1
     8     7     9    1
     9     8    10    2
    10     9    11    2
    11    10    11    1
    12    10    12    1
    13    11    13    1
    14    12    14    1
    15    13    14    1
