@<TRIPOS>MOLECULE
/home/cewinharhar/GITHUB/reincatalyze/data/processed/docking_pred/2023-May-24-1506_sub9_nm5_bs15_s42_ex16_mel10_mts10000_k50_ec02_g099_lra3e-4_lrc3e-3/9282b18981f6708324b0af4486d36de930a99903_ligand_9.pdbqt
 14 15 0 0 0
SMALL
GASTEIGER

@<TRIPOS>ATOM
      1  C          6.5650    2.1500    1.5900 C.3     1  UNL1        0.0800
      2  C          5.1960    2.0690    1.0090 C.2     1  UNL1        0.1300
      3  C          4.9640    2.1500   -0.4580 C.3     1  UNL1        0.0870
      4  O          4.2180    1.9340    1.7270 O.2     1  UNL1       -0.3000
      5  C          6.7500    1.1410    2.7060 C.3     1  UNL1        0.0430
      6  C          7.0000   -0.2140    2.1810 C.2     1  UNL1       -0.0440
      7  C          5.9520   -1.1050    1.9230 C.2     1  UNL1        0.0080
      8  C          8.2910   -0.6230    1.9340 C.2     1  UNL1        0.0540
      9  C          6.2460   -2.3630    1.4300 C.2     1  UNL1        0.0510
     10  C          8.5830   -1.8960    1.4360 C.2     1  UNL1        0.1660
     11  C          7.5520   -2.7730    1.1820 C.2     1  UNL1        0.1650
     12  O          9.7640   -2.5300    1.1130 O.2     1  UNL1       -0.4540
     13  O          8.1280   -3.9400    0.7030 O.2     1  UNL1       -0.4540
     14  C          9.5210   -3.7970    0.5570 C.3     1  UNL1        0.4680
@<TRIPOS>BOND
     1     3     2    1
     2    14    13    1
     3    14    12    1
     4    13    11    1
     5     2     1    1
     6     2     4    2
     7    12    10    1
     8    11     9    2
     9    11    10    1
    10     9     7    1
    11    10     8    2
    12     1     5    1
    13     7     6    2
    14     8     6    1
    15     6     5    1
