@<TRIPOS>MOLECULE
/home/cewinharhar/GITHUB/reincatalyze/data/processed/docking_pred/2023-May-24-1506_sub9_nm5_bs15_s42_ex16_mel10_mts10000_k50_ec02_g099_lra3e-4_lrc3e-3/9282b18981f6708324b0af4486d36de930a99903_ligand_9.pdbqt
 14 15 0 0 0
SMALL
GASTEIGER

@<TRIPOS>ATOM
      1  C          1.9550   -0.0680    3.0840 C.3     1  UNL1        0.0800
      2  C          0.4780    0.1230    3.1020 C.2     1  UNL1        0.1300
      3  C         -0.1720    1.2540    2.3870 C.3     1  UNL1        0.0870
      4  O         -0.2460   -0.6490    3.7090 O.2     1  UNL1       -0.3000
      5  C          2.6490    1.0760    2.3720 C.3     1  UNL1        0.0430
      6  C          4.0760    0.7890    2.1390 C.2     1  UNL1       -0.0440
      7  C          4.9890    1.8070    1.8400 C.2     1  UNL1        0.0080
      8  C          4.5330   -0.5070    2.2160 C.2     1  UNL1        0.0540
      9  C          6.3160    1.4780    1.6320 C.2     1  UNL1        0.0510
     10  C          5.8760   -0.8340    2.0060 C.2     1  UNL1        0.1660
     11  C          6.7750    0.1660    1.7110 C.2     1  UNL1        0.1650
     12  O          6.5660   -2.0280    2.0250 O.2     1  UNL1       -0.4540
     13  O          8.0120   -0.4390    1.5550 O.2     1  UNL1       -0.4540
     14  C          7.9420   -1.8170    1.8350 C.3     1  UNL1        0.4680
@<TRIPOS>BOND
     1    13    11    1
     2    13    14    1
     3     9    11    2
     4     9     7    1
     5    11    10    1
     6    14    12    1
     7     7     6    2
     8    10    12    1
     9    10     8    2
    10     6     8    1
    11     6     5    1
    12     5     1    1
    13     3     2    1
    14     1     2    1
    15     2     4    2
