@<TRIPOS>MOLECULE
/home/cewinharhar/GITHUB/reincatalyze/data/processed/docking_pred/2023-May-24-1506_sub9_nm5_bs15_s42_ex16_mel10_mts10000_k50_ec02_g099_lra3e-4_lrc3e-3/9282b18981f6708324b0af4486d36de930a99903_ligand_9.pdbqt
 14 15 0 0 0
SMALL
GASTEIGER

@<TRIPOS>ATOM
      1  C          1.8660   -7.4720   -0.6230 C.3     1  UNL1        0.0800
      2  C          2.2290   -6.0480   -0.3780 C.2     1  UNL1        0.1300
      3  C          1.9720   -4.9910   -1.3930 C.3     1  UNL1        0.0870
      4  O          2.7520   -5.7060    0.6700 O.2     1  UNL1       -0.3000
      5  C          2.6410   -8.4020    0.2900 C.3     1  UNL1        0.0430
      6  C          1.8090   -9.5250    0.7580 C.2     1  UNL1       -0.0440
      7  C          2.3770  -10.6660    1.3370 C.2     1  UNL1        0.0080
      8  C          0.4400   -9.4600    0.6310 C.2     1  UNL1        0.0540
      9  C          1.5470  -11.6880    1.7590 C.2     1  UNL1        0.0510
     10  C         -0.3950  -10.4960    1.0600 C.2     1  UNL1        0.1660
     11  C          0.1630  -11.6190    1.6280 C.2     1  UNL1        0.1650
     12  O         -1.7630  -10.6680    1.0440 O.2     1  UNL1       -0.4540
     13  O         -0.8850  -12.4660    1.9540 O.2     1  UNL1       -0.4540
     14  C         -2.1280  -11.8640    1.6830 C.3     1  UNL1        0.4680
@<TRIPOS>BOND
     1     3     2    1
     2     1     2    1
     3     1     5    1
     4     2     4    2
     5     5     6    1
     6     8     6    2
     7     8    10    1
     8     6     7    1
     9    12    10    1
    10    12    14    1
    11    10    11    2
    12     7     9    2
    13    11     9    1
    14    11    13    1
    15    14    13    1
