MODEL 1
REMARK VINA RESULT:      -7.3      0.000      0.000
REMARK SMILES CC(=O)CCc1ccc2c(c1)OCO2
REMARK SMILES IDX 4 1 2 2 1 3 3 4 5 5 6 6 7 7 11 8 8 9 10 10 9 11 12 12 14 13
REMARK SMILES IDX 13 14
REMARK H PARENT
REMARK Flexibility Score: inf
ROOT
ATOM      1  C   UNL     1       5.653   2.133   1.159  1.00  0.00     0.080 C 
ENDROOT
BRANCH   1   2
ATOM      2  C   UNL     1       5.427   0.928   2.005  1.00  0.00     0.130 C 
ATOM      3  C   UNL     1       6.534  -0.004   2.348  1.00  0.00     0.087 C 
ATOM      4  O   UNL     1       4.318   0.669   2.443  1.00  0.00    -0.300 OA
ENDBRANCH   1   2
BRANCH   1   5
ATOM      5  C   UNL     1       5.465   1.817  -0.311  1.00  0.00     0.043 C 
BRANCH   5   6
ATOM      6  C   UNL     1       6.614   1.076  -0.862  1.00  0.00    -0.044 A 
ATOM      7  C   UNL     1       7.930   1.501  -0.649  1.00  0.00     0.008 A 
ATOM      8  C   UNL     1       6.399  -0.064  -1.603  1.00  0.00     0.054 A 
ATOM      9  C   UNL     1       8.969   0.764  -1.190  1.00  0.00     0.051 A 
ATOM     10  C   UNL     1       7.452  -0.805  -2.147  1.00  0.00     0.166 A 
ATOM     11  C   UNL     1       8.748  -0.387  -1.939  1.00  0.00     0.165 A 
ATOM     12  O   UNL     1       7.498  -1.954  -2.908  1.00  0.00    -0.454 OA
ATOM     13  O   UNL     1       9.571  -1.298  -2.582  1.00  0.00    -0.454 OA
ATOM     14  C   UNL     1       8.824  -2.357  -3.133  1.00  0.00     0.468 C 
ENDBRANCH   5   6
ENDBRANCH   1   5
TORSDOF 3
ENDMDL
MODEL 2
REMARK VINA RESULT:      -7.3      1.888      2.447
REMARK SMILES CC(=O)CCc1ccc2c(c1)OCO2
REMARK SMILES IDX 4 1 2 2 1 3 3 4 5 5 6 6 7 7 11 8 8 9 10 10 9 11 12 12 14 13
REMARK SMILES IDX 13 14
REMARK H PARENT
REMARK Flexibility Score: inf
ROOT
ATOM      1  C   UNL     1       5.795   1.198  -0.542  1.00  0.00     0.080 C 
ENDROOT
BRANCH   1   2
ATOM      2  C   UNL     1       5.369   1.395   0.872  1.00  0.00     0.130 C 
ATOM      3  C   UNL     1       6.037   0.686   1.995  1.00  0.00     0.087 C 
ATOM      4  O   UNL     1       4.451   2.150   1.150  1.00  0.00    -0.300 OA
ENDBRANCH   1   2
BRANCH   1   5
ATOM      5  C   UNL     1       7.302   1.064  -0.648  1.00  0.00     0.043 C 
BRANCH   5   6
ATOM      6  C   UNL     1       7.698  -0.259  -1.162  1.00  0.00    -0.044 A 
ATOM      7  C   UNL     1       7.859  -0.495  -2.532  1.00  0.00     0.008 A 
ATOM      8  C   UNL     1       7.920  -1.294  -0.282  1.00  0.00     0.054 A 
ATOM      9  C   UNL     1       8.233  -1.757  -2.956  1.00  0.00     0.051 A 
ATOM     10  C   UNL     1       8.298  -2.568  -0.716  1.00  0.00     0.166 A 
ATOM     11  C   UNL     1       8.456  -2.802  -2.064  1.00  0.00     0.165 A 
ATOM     12  O   UNL     1       8.573  -3.744  -0.050  1.00  0.00    -0.454 OA
ATOM     13  O   UNL     1       8.829  -4.130  -2.199  1.00  0.00    -0.454 OA
ATOM     14  C   UNL     1       9.003  -4.740  -0.943  1.00  0.00     0.468 C 
ENDBRANCH   5   6
ENDBRANCH   1   5
TORSDOF 3
ENDMDL
MODEL 3
REMARK VINA RESULT:      -7.2      1.934      2.513
REMARK SMILES CC(=O)CCc1ccc2c(c1)OCO2
REMARK SMILES IDX 4 1 2 2 1 3 3 4 5 5 6 6 7 7 11 8 8 9 10 10 9 11 12 12 14 13
REMARK SMILES IDX 13 14
REMARK H PARENT
REMARK Flexibility Score: inf
ROOT
ATOM      1  C   UNL     1       6.649   0.681   1.367  1.00  0.00     0.080 C 
ENDROOT
BRANCH   1   2
ATOM      2  C   UNL     1       5.244   1.167   1.452  1.00  0.00     0.130 C 
ATOM      3  C   UNL     1       4.697   2.150   0.478  1.00  0.00     0.087 C 
ATOM      4  O   UNL     1       4.496   0.770   2.331  1.00  0.00    -0.300 OA
ENDBRANCH   1   2
BRANCH   1   5
ATOM      5  C   UNL     1       7.237   0.935  -0.007  1.00  0.00     0.043 C 
BRANCH   5   6
ATOM      6  C   UNL     1       7.608  -0.322  -0.683  1.00  0.00    -0.044 A 
ATOM      7  C   UNL     1       7.625  -0.426  -2.079  1.00  0.00     0.008 A 
ATOM      8  C   UNL     1       7.950  -1.424   0.067  1.00  0.00     0.054 A 
ATOM      9  C   UNL     1       7.982  -1.630  -2.657  1.00  0.00     0.051 A 
ATOM     10  C   UNL     1       8.311  -2.639  -0.523  1.00  0.00     0.166 A 
ATOM     11  C   UNL     1       8.326  -2.743  -1.896  1.00  0.00     0.165 A 
ATOM     12  O   UNL     1       8.685  -3.861  -0.005  1.00  0.00    -0.454 OA
ATOM     13  O   UNL     1       8.715  -4.040  -2.196  1.00  0.00    -0.454 OA
ATOM     14  C   UNL     1       9.040  -4.755  -1.028  1.00  0.00     0.468 C 
ENDBRANCH   5   6
ENDBRANCH   1   5
TORSDOF 3
ENDMDL
MODEL 4
REMARK VINA RESULT:      -6.9      1.257      1.478
REMARK SMILES CC(=O)CCc1ccc2c(c1)OCO2
REMARK SMILES IDX 4 1 2 2 1 3 3 4 5 5 6 6 7 7 11 8 8 9 10 10 9 11 12 12 14 13
REMARK SMILES IDX 13 14
REMARK H PARENT
REMARK Flexibility Score: inf
ROOT
ATOM      1  C   UNL     1       6.449   1.523   0.567  1.00  0.00     0.080 C 
ENDROOT
BRANCH   1   2
ATOM      2  C   UNL     1       5.970   0.785   1.769  1.00  0.00     0.130 C 
ATOM      3  C   UNL     1       6.831  -0.201   2.474  1.00  0.00     0.087 C 
ATOM      4  O   UNL     1       4.848   0.971   2.212  1.00  0.00    -0.300 OA
ENDBRANCH   1   2
BRANCH   1   5
ATOM      5  C   UNL     1       5.866   0.940  -0.706  1.00  0.00     0.043 C 
BRANCH   5   6
ATOM      6  C   UNL     1       6.837   0.084  -1.410  1.00  0.00    -0.044 A 
ATOM      7  C   UNL     1       7.576   0.557  -2.500  1.00  0.00     0.008 A 
ATOM      8  C   UNL     1       7.032  -1.213  -0.992  1.00  0.00     0.054 A 
ATOM      9  C   UNL     1       8.473  -0.292  -3.122  1.00  0.00     0.051 A 
ATOM     10  C   UNL     1       7.941  -2.067  -1.623  1.00  0.00     0.166 A 
ATOM     11  C   UNL     1       8.667  -1.603  -2.697  1.00  0.00     0.165 A 
ATOM     12  O   UNL     1       8.309  -3.377  -1.401  1.00  0.00    -0.454 OA
ATOM     13  O   UNL     1       9.476  -2.648  -3.116  1.00  0.00    -0.454 OA
ATOM     14  C   UNL     1       9.347  -3.763  -2.265  1.00  0.00     0.468 C 
ENDBRANCH   5   6
ENDBRANCH   1   5
TORSDOF 3
ENDMDL
MODEL 5
REMARK VINA RESULT:      -6.6      2.177      2.605
REMARK SMILES CC(=O)CCc1ccc2c(c1)OCO2
REMARK SMILES IDX 4 1 2 2 1 3 3 4 5 5 6 6 7 7 11 8 8 9 10 10 9 11 12 12 14 13
REMARK SMILES IDX 13 14
REMARK H PARENT
REMARK Flexibility Score: inf
ROOT
ATOM      1  C   UNL     1       5.764   1.185  -0.600  1.00  0.00     0.080 C 
ENDROOT
BRANCH   1   2
ATOM      2  C   UNL     1       5.458   1.799   0.722  1.00  0.00     0.130 C 
ATOM      3  C   UNL     1       6.534   2.150   1.687  1.00  0.00     0.087 C 
ATOM      4  O   UNL     1       4.307   2.032   1.053  1.00  0.00    -0.300 OA
ENDBRANCH   1   2
BRANCH   1   5
ATOM      5  C   UNL     1       7.255   0.972  -0.777  1.00  0.00     0.043 C 
BRANCH   5   6
ATOM      6  C   UNL     1       7.645  -0.421  -0.496  1.00  0.00    -0.044 A 
ATOM      7  C   UNL     1       7.683  -0.922   0.811  1.00  0.00     0.008 A 
ATOM      8  C   UNL     1       7.979  -1.259  -1.535  1.00  0.00     0.054 A 
ATOM      9  C   UNL     1       8.057  -2.238   1.014  1.00  0.00     0.051 A 
ATOM     10  C   UNL     1       8.355  -2.589  -1.325  1.00  0.00     0.166 A 
ATOM     11  C   UNL     1       8.395  -3.082  -0.039  1.00  0.00     0.165 A 
ATOM     12  O   UNL     1       8.728  -3.606  -2.177  1.00  0.00    -0.454 OA
ATOM     13  O   UNL     1       8.794  -4.407  -0.131  1.00  0.00    -0.454 OA
ATOM     14  C   UNL     1       8.928  -4.806  -1.474  1.00  0.00     0.468 C 
ENDBRANCH   5   6
ENDBRANCH   1   5
TORSDOF 3
ENDMDL
