@<TRIPOS>MOLECULE
/home/cewinharhar/GITHUB/reincatalyze/data/processed/docking_pred/2023-May-24-1506_sub9_nm5_bs15_s42_ex16_mel10_mts10000_k50_ec02_g099_lra3e-4_lrc3e-3/939bd1e5684a89eea32cbd4f4170b12915347732_ligand_9.pdbqt
 14 15 0 0 0
SMALL
GASTEIGER

@<TRIPOS>ATOM
      1  C          6.4490    1.5230    0.5670 C.3     1  UNL1        0.0800
      2  C          5.9700    0.7850    1.7690 C.2     1  UNL1        0.1300
      3  C          6.8310   -0.2010    2.4740 C.3     1  UNL1        0.0870
      4  O          4.8480    0.9710    2.2120 O.2     1  UNL1       -0.3000
      5  C          5.8660    0.9400   -0.7060 C.3     1  UNL1        0.0430
      6  C          6.8370    0.0840   -1.4100 C.2     1  UNL1       -0.0440
      7  C          7.5760    0.5570   -2.5000 C.2     1  UNL1        0.0080
      8  C          7.0320   -1.2130   -0.9920 C.2     1  UNL1        0.0540
      9  C          8.4730   -0.2920   -3.1220 C.2     1  UNL1        0.0510
     10  C          7.9410   -2.0670   -1.6230 C.2     1  UNL1        0.1660
     11  C          8.6670   -1.6030   -2.6970 C.2     1  UNL1        0.1650
     12  O          8.3090   -3.3770   -1.4010 O.2     1  UNL1       -0.4540
     13  O          9.4760   -2.6480   -3.1160 O.2     1  UNL1       -0.4540
     14  C          9.3470   -3.7630   -2.2650 C.3     1  UNL1        0.4680
@<TRIPOS>BOND
     1     9    11    2
     2     9     7    1
     3    13    11    1
     4    13    14    1
     5    11    10    1
     6     7     6    2
     7    14    12    1
     8    10    12    1
     9    10     8    2
    10     6     8    1
    11     6     5    1
    12     5     1    1
    13     1     2    1
    14     2     4    2
    15     2     3    1
