@<TRIPOS>MOLECULE
/home/cewinharhar/GITHUB/reincatalyze/data/processed/docking_pred/2023-May-24-1506_sub9_nm5_bs15_s42_ex16_mel10_mts10000_k50_ec02_g099_lra3e-4_lrc3e-3/939bd1e5684a89eea32cbd4f4170b12915347732_ligand_9.pdbqt
 14 15 0 0 0
SMALL
GASTEIGER

@<TRIPOS>ATOM
      1  C          6.6490    0.6810    1.3670 C.3     1  UNL1        0.0800
      2  C          5.2440    1.1670    1.4520 C.2     1  UNL1        0.1300
      3  C          4.6970    2.1500    0.4780 C.3     1  UNL1        0.0870
      4  O          4.4960    0.7700    2.3310 O.2     1  UNL1       -0.3000
      5  C          7.2370    0.9350   -0.0070 C.3     1  UNL1        0.0430
      6  C          7.6080   -0.3220   -0.6830 C.2     1  UNL1       -0.0440
      7  C          7.6250   -0.4260   -2.0790 C.2     1  UNL1        0.0080
      8  C          7.9500   -1.4240    0.0670 C.2     1  UNL1        0.0540
      9  C          7.9820   -1.6300   -2.6570 C.2     1  UNL1        0.0510
     10  C          8.3110   -2.6390   -0.5230 C.2     1  UNL1        0.1660
     11  C          8.3260   -2.7430   -1.8960 C.2     1  UNL1        0.1650
     12  O          8.6850   -3.8610   -0.0050 O.2     1  UNL1       -0.4540
     13  O          8.7150   -4.0400   -2.1960 O.2     1  UNL1       -0.4540
     14  C          9.0400   -4.7550   -1.0280 C.3     1  UNL1        0.4680
@<TRIPOS>BOND
     1     9     7    1
     2     9    11    2
     3    13    11    1
     4    13    14    1
     5     7     6    2
     6    11    10    1
     7    14    12    1
     8     6     5    1
     9     6     8    1
    10    10    12    1
    11    10     8    2
    12     5     1    1
    13     3     2    1
    14     1     2    1
    15     2     4    2
