@<TRIPOS>MOLECULE
/home/cewinharhar/GITHUB/reincatalyze/data/processed/docking_pred/2023-May-24-1506_sub9_nm5_bs15_s42_ex16_mel10_mts10000_k50_ec02_g099_lra3e-4_lrc3e-3/939bd1e5684a89eea32cbd4f4170b12915347732_ligand_9.pdbqt
 14 15 0 0 0
SMALL
GASTEIGER

@<TRIPOS>ATOM
      1  C          5.6530    2.1330    1.1590 C.3     1  UNL1        0.0800
      2  C          5.4270    0.9280    2.0050 C.2     1  UNL1        0.1300
      3  C          6.5340   -0.0040    2.3480 C.3     1  UNL1        0.0870
      4  O          4.3180    0.6690    2.4430 O.2     1  UNL1       -0.3000
      5  C          5.4650    1.8170   -0.3110 C.3     1  UNL1        0.0430
      6  C          6.6140    1.0760   -0.8620 C.2     1  UNL1       -0.0440
      7  C          7.9300    1.5010   -0.6490 C.2     1  UNL1        0.0080
      8  C          6.3990   -0.0640   -1.6030 C.2     1  UNL1        0.0540
      9  C          8.9690    0.7640   -1.1900 C.2     1  UNL1        0.0510
     10  C          7.4520   -0.8050   -2.1470 C.2     1  UNL1        0.1660
     11  C          8.7480   -0.3870   -1.9390 C.2     1  UNL1        0.1650
     12  O          7.4980   -1.9540   -2.9080 O.2     1  UNL1       -0.4540
     13  O          9.5710   -1.2980   -2.5820 O.2     1  UNL1       -0.4540
     14  C          8.8240   -2.3570   -3.1330 C.3     1  UNL1        0.4680
@<TRIPOS>BOND
     1    14    12    1
     2    14    13    1
     3    12    10    1
     4    13    11    1
     5    10    11    2
     6    10     8    1
     7    11     9    1
     8     8     6    2
     9     9     7    2
    10     6     7    1
    11     6     5    1
    12     5     1    1
    13     1     2    1
    14     2     3    1
    15     2     4    2
