@<TRIPOS>MOLECULE
/home/cewinharhar/GITHUB/reincatalyze/data/processed/docking_pred/2023-May-24-1506_sub9_nm5_bs15_s42_ex16_mel10_mts10000_k50_ec02_g099_lra3e-4_lrc3e-3/939bd1e5684a89eea32cbd4f4170b12915347732_ligand_9.pdbqt
 14 15 0 0 0
SMALL
GASTEIGER

@<TRIPOS>ATOM
      1  C          5.7950    1.1980   -0.5420 C.3     1  UNL1        0.0800
      2  C          5.3690    1.3950    0.8720 C.2     1  UNL1        0.1300
      3  C          6.0370    0.6860    1.9950 C.3     1  UNL1        0.0870
      4  O          4.4510    2.1500    1.1500 O.2     1  UNL1       -0.3000
      5  C          7.3020    1.0640   -0.6480 C.3     1  UNL1        0.0430
      6  C          7.6980   -0.2590   -1.1620 C.2     1  UNL1       -0.0440
      7  C          7.8590   -0.4950   -2.5320 C.2     1  UNL1        0.0080
      8  C          7.9200   -1.2940   -0.2820 C.2     1  UNL1        0.0540
      9  C          8.2330   -1.7570   -2.9560 C.2     1  UNL1        0.0510
     10  C          8.2980   -2.5680   -0.7160 C.2     1  UNL1        0.1660
     11  C          8.4560   -2.8020   -2.0640 C.2     1  UNL1        0.1650
     12  O          8.5730   -3.7440   -0.0500 O.2     1  UNL1       -0.4540
     13  O          8.8290   -4.1300   -2.1990 O.2     1  UNL1       -0.4540
     14  C          9.0030   -4.7400   -0.9430 C.3     1  UNL1        0.4680
@<TRIPOS>BOND
     1     9     7    1
     2     9    11    2
     3     7     6    2
     4    13    11    1
     5    13    14    1
     6    11    10    1
     7     6     5    1
     8     6     8    1
     9    14    12    1
    10    10     8    2
    11    10    12    1
    12     5     1    1
    13     1     2    1
    14     2     4    2
    15     2     3    1
