@<TRIPOS>MOLECULE
/home/cewinharhar/GITHUB/reincatalyze/data/processed/docking_pred/2023-May-24-1506_sub9_nm5_bs15_s42_ex16_mel10_mts10000_k50_ec02_g099_lra3e-4_lrc3e-3/939bd1e5684a89eea32cbd4f4170b12915347732_ligand_9.pdbqt
 14 15 0 0 0
SMALL
GASTEIGER

@<TRIPOS>ATOM
      1  C          5.7640    1.1850   -0.6000 C.3     1  UNL1        0.0800
      2  C          5.4580    1.7990    0.7220 C.2     1  UNL1        0.1300
      3  C          6.5340    2.1500    1.6870 C.3     1  UNL1        0.0870
      4  O          4.3070    2.0320    1.0530 O.2     1  UNL1       -0.3000
      5  C          7.2550    0.9720   -0.7770 C.3     1  UNL1        0.0430
      6  C          7.6450   -0.4210   -0.4960 C.2     1  UNL1       -0.0440
      7  C          7.6830   -0.9220    0.8110 C.2     1  UNL1        0.0080
      8  C          7.9790   -1.2590   -1.5350 C.2     1  UNL1        0.0540
      9  C          8.0570   -2.2380    1.0140 C.2     1  UNL1        0.0510
     10  C          8.3550   -2.5890   -1.3250 C.2     1  UNL1        0.1660
     11  C          8.3950   -3.0820   -0.0390 C.2     1  UNL1        0.1650
     12  O          8.7280   -3.6060   -2.1770 O.2     1  UNL1       -0.4540
     13  O          8.7940   -4.4070   -0.1310 O.2     1  UNL1       -0.4540
     14  C          8.9280   -4.8060   -1.4740 C.3     1  UNL1        0.4680
@<TRIPOS>BOND
     1    12    14    1
     2    12    10    1
     3     8    10    1
     4     8     6    2
     5    14    13    1
     6    10    11    2
     7     5     1    1
     8     5     6    1
     9     1     2    1
    10     6     7    1
    11    13    11    1
    12    11     9    1
    13     2     4    2
    14     2     3    1
    15     7     9    2
