@<TRIPOS>MOLECULE
/home/cewinharhar/GITHUB/reincatalyze/data/processed/docking_pred/2023-May-24-1506_sub9_nm5_bs15_s42_ex16_mel10_mts10000_k50_ec02_g099_lra3e-4_lrc3e-3/93b19c8378935853b44d27bbf459025f9fc44a5e_ligand_9.pdbqt
 14 15 0 0 0
SMALL
GASTEIGER

@<TRIPOS>ATOM
      1  C          6.7950    0.8320    1.4260 C.3     1  UNL1        0.0800
      2  C          5.3570    1.2170    1.4730 C.2     1  UNL1        0.1300
      3  C          4.7660    2.1500    0.4770 C.3     1  UNL1        0.0870
      4  O          4.6170    0.7750    2.3370 O.2     1  UNL1       -0.3000
      5  C          7.3850    1.0710    0.0510 C.3     1  UNL1        0.0430
      6  C          7.6870   -0.1940   -0.6420 C.2     1  UNL1       -0.0440
      7  C          7.6800   -0.2850   -2.0390 C.2     1  UNL1        0.0080
      8  C          7.9890   -1.3180    0.0920 C.2     1  UNL1        0.0540
      9  C          7.9730   -1.4990   -2.6330 C.2     1  UNL1        0.0510
     10  C          8.2850   -2.5430   -0.5140 C.2     1  UNL1        0.1660
     11  C          8.2760   -2.6340   -1.8880 C.2     1  UNL1        0.1650
     12  O          8.6100   -3.7850   -0.0120 O.2     1  UNL1       -0.4540
     13  O          8.6010   -3.9440   -2.2050 O.2     1  UNL1       -0.4540
     14  C          8.9090   -4.6850   -1.0490 C.3     1  UNL1        0.4680
@<TRIPOS>BOND
     1     9     7    1
     2     9    11    2
     3    13    11    1
     4    13    14    1
     5     7     6    2
     6    11    10    1
     7    14    12    1
     8     6     5    1
     9     6     8    1
    10    10    12    1
    11    10     8    2
    12     5     1    1
    13     3     2    1
    14     1     2    1
    15     2     4    2
