MODEL 1
REMARK VINA RESULT:      -7.6      0.000      0.000
REMARK SMILES CC(=O)CCc1ccc2c(c1)OCO2
REMARK SMILES IDX 4 1 2 2 1 3 3 4 5 5 6 6 7 7 11 8 8 9 10 10 9 11 12 12 14 13
REMARK SMILES IDX 13 14
REMARK H PARENT
REMARK Flexibility Score: inf
ROOT
ATOM      1  C   UNL     1       5.545   1.921   1.265  1.00  0.00     0.080 C 
ENDROOT
BRANCH   1   2
ATOM      2  C   UNL     1       5.112   0.704   2.006  1.00  0.00     0.130 C 
ATOM      3  C   UNL     1       6.018  -0.462   2.189  1.00  0.00     0.087 C 
ATOM      4  O   UNL     1       3.993   0.628   2.486  1.00  0.00    -0.300 OA
ENDBRANCH   1   2
BRANCH   1   5
ATOM      5  C   UNL     1       5.416   1.729  -0.233  1.00  0.00     0.043 C 
BRANCH   5   6
ATOM      6  C   UNL     1       6.579   1.021  -0.796  1.00  0.00    -0.044 A 
ATOM      7  C   UNL     1       7.888   1.446  -0.544  1.00  0.00     0.008 A 
ATOM      8  C   UNL     1       6.385  -0.088  -1.588  1.00  0.00     0.054 A 
ATOM      9  C   UNL     1       8.941   0.741  -1.099  1.00  0.00     0.051 A 
ATOM     10  C   UNL     1       7.453  -0.798  -2.146  1.00  0.00     0.166 A 
ATOM     11  C   UNL     1       8.742  -0.379  -1.899  1.00  0.00     0.165 A 
ATOM     12  O   UNL     1       7.520  -1.912  -2.954  1.00  0.00    -0.454 OA
ATOM     13  O   UNL     1       9.582  -1.255  -2.567  1.00  0.00    -0.454 OA
ATOM     14  C   UNL     1       8.854  -2.296  -3.174  1.00  0.00     0.468 C 
ENDBRANCH   5   6
ENDBRANCH   1   5
TORSDOF 3
ENDMDL
MODEL 2
REMARK VINA RESULT:      -7.4      1.910      2.378
REMARK SMILES CC(=O)CCc1ccc2c(c1)OCO2
REMARK SMILES IDX 4 1 2 2 1 3 3 4 5 5 6 6 7 7 11 8 8 9 10 10 9 11 12 12 14 13
REMARK SMILES IDX 13 14
REMARK H PARENT
REMARK Flexibility Score: inf
ROOT
ATOM      1  C   UNL     1       5.808   1.368  -0.254  1.00  0.00     0.080 C 
ENDROOT
BRANCH   1   2
ATOM      2  C   UNL     1       5.215   1.243   1.107  1.00  0.00     0.130 C 
ATOM      3  C   UNL     1       5.400   0.018   1.929  1.00  0.00     0.087 C 
ATOM      4  O   UNL     1       4.555   2.150   1.589  1.00  0.00    -0.300 OA
ENDBRANCH   1   2
BRANCH   1   5
ATOM      5  C   UNL     1       7.300   1.102  -0.231  1.00  0.00     0.043 C 
BRANCH   5   6
ATOM      6  C   UNL     1       7.634  -0.190  -0.857  1.00  0.00    -0.044 A 
ATOM      7  C   UNL     1       7.646  -0.349  -2.248  1.00  0.00     0.008 A 
ATOM      8  C   UNL     1       7.947  -1.271  -0.065  1.00  0.00     0.054 A 
ATOM      9  C   UNL     1       7.968  -1.585  -2.779  1.00  0.00     0.051 A 
ATOM     10  C   UNL     1       8.273  -2.518  -0.607  1.00  0.00     0.166 A 
ATOM     11  C   UNL     1       8.283  -2.676  -1.975  1.00  0.00     0.165 A 
ATOM     12  O   UNL     1       8.614  -3.728  -0.041  1.00  0.00    -0.454 OA
ATOM     13  O   UNL     1       8.635  -3.993  -2.224  1.00  0.00    -0.454 OA
ATOM     14  C   UNL     1       8.942  -4.672  -1.029  1.00  0.00     0.468 C 
ENDBRANCH   5   6
ENDBRANCH   1   5
TORSDOF 3
ENDMDL
MODEL 3
REMARK VINA RESULT:      -7.2      2.067      2.655
REMARK SMILES CC(=O)CCc1ccc2c(c1)OCO2
REMARK SMILES IDX 4 1 2 2 1 3 3 4 5 5 6 6 7 7 11 8 8 9 10 10 9 11 12 12 14 13
REMARK SMILES IDX 13 14
REMARK H PARENT
REMARK Flexibility Score: inf
ROOT
ATOM      1  C   UNL     1       5.379  -0.091   1.996  1.00  0.00     0.080 C 
ENDROOT
BRANCH   1   2
ATOM      2  C   UNL     1       4.584   1.146   1.758  1.00  0.00     0.130 C 
ATOM      3  C   UNL     1       4.954   2.119   0.695  1.00  0.00     0.087 C 
ATOM      4  O   UNL     1       3.599   1.399   2.433  1.00  0.00    -0.300 OA
ENDBRANCH   1   2
BRANCH   1   5
ATOM      5  C   UNL     1       6.838   0.115   1.642  1.00  0.00     0.043 C 
BRANCH   5   6
ATOM      6  C   UNL     1       7.274  -0.796   0.569  1.00  0.00    -0.044 A 
ATOM      7  C   UNL     1       7.137  -0.457  -0.782  1.00  0.00     0.008 A 
ATOM      8  C   UNL     1       7.832  -2.012   0.892  1.00  0.00     0.054 A 
ATOM      9  C   UNL     1       7.565  -1.352  -1.745  1.00  0.00     0.051 A 
ATOM     10  C   UNL     1       8.264  -2.913  -0.086  1.00  0.00     0.166 A 
ATOM     11  C   UNL     1       8.128  -2.581  -1.415  1.00  0.00     0.165 A 
ATOM     12  O   UNL     1       8.841  -4.164  -0.022  1.00  0.00    -0.454 OA
ATOM     13  O   UNL     1       8.632  -3.644  -2.148  1.00  0.00    -0.454 OA
ATOM     14  C   UNL     1       9.177  -4.630  -1.304  1.00  0.00     0.468 C 
ENDBRANCH   5   6
ENDBRANCH   1   5
TORSDOF 3
ENDMDL
MODEL 4
REMARK VINA RESULT:      -7.1      1.248      1.455
REMARK SMILES CC(=O)CCc1ccc2c(c1)OCO2
REMARK SMILES IDX 4 1 2 2 1 3 3 4 5 5 6 6 7 7 11 8 8 9 10 10 9 11 12 12 14 13
REMARK SMILES IDX 13 14
REMARK H PARENT
REMARK Flexibility Score: inf
ROOT
ATOM      1  C   UNL     1       6.377   1.191   0.932  1.00  0.00     0.080 C 
ENDROOT
BRANCH   1   2
ATOM      2  C   UNL     1       5.658   0.370   1.946  1.00  0.00     0.130 C 
ATOM      3  C   UNL     1       6.262  -0.858   2.527  1.00  0.00     0.087 C 
ATOM      4  O   UNL     1       4.543   0.685   2.330  1.00  0.00    -0.300 OA
ENDBRANCH   1   2
BRANCH   1   5
ATOM      5  C   UNL     1       5.864   0.913  -0.467  1.00  0.00     0.043 C 
BRANCH   5   6
ATOM      6  C   UNL     1       6.812   0.096  -1.244  1.00  0.00    -0.044 A 
ATOM      7  C   UNL     1       7.491   0.616  -2.352  1.00  0.00     0.008 A 
ATOM      8  C   UNL     1       7.046  -1.211  -0.880  1.00  0.00     0.054 A 
ATOM      9  C   UNL     1       8.370  -0.198  -3.043  1.00  0.00     0.051 A 
ATOM     10  C   UNL     1       7.936  -2.029  -1.582  1.00  0.00     0.166 A 
ATOM     11  C   UNL     1       8.603  -1.518  -2.673  1.00  0.00     0.165 A 
ATOM     12  O   UNL     1       8.333  -3.340  -1.421  1.00  0.00    -0.454 OA
ATOM     13  O   UNL     1       9.406  -2.536  -3.164  1.00  0.00    -0.454 OA
ATOM     14  C   UNL     1       9.334  -3.680  -2.347  1.00  0.00     0.468 C 
ENDBRANCH   5   6
ENDBRANCH   1   5
TORSDOF 3
ENDMDL
MODEL 5
REMARK VINA RESULT:      -7.1      1.944      2.484
REMARK SMILES CC(=O)CCc1ccc2c(c1)OCO2
REMARK SMILES IDX 4 1 2 2 1 3 3 4 5 5 6 6 7 7 11 8 8 9 10 10 9 11 12 12 14 13
REMARK SMILES IDX 13 14
REMARK H PARENT
REMARK Flexibility Score: inf
ROOT
ATOM      1  C   UNL     1       6.795   0.832   1.426  1.00  0.00     0.080 C 
ENDROOT
BRANCH   1   2
ATOM      2  C   UNL     1       5.357   1.217   1.473  1.00  0.00     0.130 C 
ATOM      3  C   UNL     1       4.766   2.150   0.477  1.00  0.00     0.087 C 
ATOM      4  O   UNL     1       4.617   0.775   2.337  1.00  0.00    -0.300 OA
ENDBRANCH   1   2
BRANCH   1   5
ATOM      5  C   UNL     1       7.385   1.071   0.051  1.00  0.00     0.043 C 
BRANCH   5   6
ATOM      6  C   UNL     1       7.687  -0.194  -0.642  1.00  0.00    -0.044 A 
ATOM      7  C   UNL     1       7.680  -0.285  -2.039  1.00  0.00     0.008 A 
ATOM      8  C   UNL     1       7.989  -1.318   0.092  1.00  0.00     0.054 A 
ATOM      9  C   UNL     1       7.973  -1.499  -2.633  1.00  0.00     0.051 A 
ATOM     10  C   UNL     1       8.285  -2.543  -0.514  1.00  0.00     0.166 A 
ATOM     11  C   UNL     1       8.276  -2.634  -1.888  1.00  0.00     0.165 A 
ATOM     12  O   UNL     1       8.610  -3.785  -0.012  1.00  0.00    -0.454 OA
ATOM     13  O   UNL     1       8.601  -3.944  -2.205  1.00  0.00    -0.454 OA
ATOM     14  C   UNL     1       8.909  -4.685  -1.049  1.00  0.00     0.468 C 
ENDBRANCH   5   6
ENDBRANCH   1   5
TORSDOF 3
ENDMDL
