@<TRIPOS>MOLECULE
/home/cewinharhar/GITHUB/reincatalyze/data/processed/docking_pred/2023-May-24-1506_sub9_nm5_bs15_s42_ex16_mel10_mts10000_k50_ec02_g099_lra3e-4_lrc3e-3/9545d038953ad0bd3b50a81295f717fe73892d7b_ligand_9.pdbqt
 14 15 0 0 0
SMALL
GASTEIGER

@<TRIPOS>ATOM
      1  C          8.7800   -4.7740   -0.3930 C.3     1  UNL1        0.0800
      2  C          9.5240   -4.6780   -1.6800 C.2     1  UNL1        0.1300
      3  C         10.3600   -5.8010   -2.1840 C.3     1  UNL1        0.0870
      4  O          9.4700   -3.6680   -2.3610 O.2     1  UNL1       -0.3000
      5  C          9.5210   -4.0700    0.7260 C.3     1  UNL1        0.0430
      6  C          8.8680   -2.8040    1.1020 C.2     1  UNL1       -0.0440
      7  C          9.5960   -1.6160    1.2380 C.2     1  UNL1        0.0080
      8  C          7.5100   -2.7760    1.3250 C.2     1  UNL1        0.0540
      9  C          8.9290   -0.4570    1.5930 C.2     1  UNL1        0.0510
     10  C          6.8400   -1.6020    1.6830 C.2     1  UNL1        0.1660
     11  C          7.5560   -0.4330    1.8180 C.2     1  UNL1        0.1650
     12  O          5.5190   -1.3200    1.9560 O.2     1  UNL1       -0.4540
     13  O          6.6490    0.5530    2.1740 O.2     1  UNL1       -0.4540
     14  C          5.3330    0.0530    2.1830 C.3     1  UNL1        0.4680
@<TRIPOS>BOND
     1     4     2    2
     2     3     2    1
     3     2     1    1
     4     1     5    1
     5     5     6    1
     6     6     7    2
     7     6     8    1
     8     7     9    1
     9     8    10    2
    10     9    11    2
    11    10    11    1
    12    10    12    1
    13    11    13    1
    14    12    14    1
    15    13    14    1
