@<TRIPOS>MOLECULE
/home/cewinharhar/GITHUB/reincatalyze/data/processed/docking_pred/2023-May-24-1506_sub9_nm5_bs15_s42_ex16_mel10_mts10000_k50_ec02_g099_lra3e-4_lrc3e-3/9545d038953ad0bd3b50a81295f717fe73892d7b_ligand_9.pdbqt
 14 15 0 0 0
SMALL
GASTEIGER

@<TRIPOS>ATOM
      1  C          1.9570   -0.0610    3.0820 C.3     1  UNL1        0.0800
      2  C          0.4830    0.1500    3.1310 C.2     1  UNL1        0.1300
      3  C         -0.1740    1.2470    2.3710 C.3     1  UNL1        0.0870
      4  O         -0.2320   -0.5760    3.8020 O.2     1  UNL1       -0.3000
      5  C          2.6520    1.0780    2.3630 C.3     1  UNL1        0.0430
      6  C          4.0790    0.7900    2.1340 C.2     1  UNL1       -0.0440
      7  C          4.9960    1.8070    1.8460 C.2     1  UNL1        0.0080
      8  C          4.5330   -0.5080    2.2070 C.2     1  UNL1        0.0540
      9  C          6.3230    1.4770    1.6420 C.2     1  UNL1        0.0510
     10  C          5.8760   -0.8370    2.0000 C.2     1  UNL1        0.1660
     11  C          6.7780    0.1640    1.7150 C.2     1  UNL1        0.1650
     12  O          6.5640   -2.0310    2.0160 O.2     1  UNL1       -0.4540
     13  O          8.0150   -0.4430    1.5610 O.2     1  UNL1       -0.4540
     14  C          7.9410   -1.8220    1.8330 C.3     1  UNL1        0.4680
@<TRIPOS>BOND
     1    13    11    1
     2    13    14    1
     3     9    11    2
     4     9     7    1
     5    11    10    1
     6    14    12    1
     7     7     6    2
     8    10    12    1
     9    10     8    2
    10     6     8    1
    11     6     5    1
    12     5     1    1
    13     3     2    1
    14     1     2    1
    15     2     4    2
