@<TRIPOS>MOLECULE
/home/cewinharhar/GITHUB/reincatalyze/data/processed/docking_pred/2023-May-24-1506_sub9_nm5_bs15_s42_ex16_mel10_mts10000_k50_ec02_g099_lra3e-4_lrc3e-3/9545d038953ad0bd3b50a81295f717fe73892d7b_ligand_9.pdbqt
 14 15 0 0 0
SMALL
GASTEIGER

@<TRIPOS>ATOM
      1  C          7.9820   -3.1280    0.7000 C.3     1  UNL1        0.0800
      2  C          9.1160   -4.0600    0.4490 C.2     1  UNL1        0.1300
      3  C          9.2000   -4.8680   -0.7970 C.3     1  UNL1        0.0870
      4  O         10.0140   -4.1890    1.2640 O.2     1  UNL1       -0.3000
      5  C          8.2970   -2.1710    1.8330 C.3     1  UNL1        0.0430
      6  C          7.3950   -1.0050    1.8310 C.2     1  UNL1       -0.0440
      7  C          7.8610    0.2810    1.5350 C.2     1  UNL1        0.0080
      8  C          6.0610   -1.1740    2.1230 C.2     1  UNL1        0.0540
      9  C          6.9680    1.3370    1.5470 C.2     1  UNL1        0.0510
     10  C          5.1620   -0.1030    2.1330 C.2     1  UNL1        0.1660
     11  C          5.6200    1.1630    1.8430 C.2     1  UNL1        0.1650
     12  O          3.8100   -0.0130    2.3890 O.2     1  UNL1       -0.4540
     13  O          4.5280    2.0130    1.9270 O.2     1  UNL1       -0.4540
     14  C          3.3440    1.2950    2.1810 C.3     1  UNL1        0.4680
@<TRIPOS>BOND
     1     3     2    1
     2     2     1    1
     3     2     4    2
     4     1     5    1
     5     7     9    1
     6     7     6    2
     7     9    11    2
     8     6     5    1
     9     6     8    1
    10    11    13    1
    11    11    10    1
    12    13    14    1
    13     8    10    2
    14    10    12    1
    15    14    12    1
