@<TRIPOS>MOLECULE
/home/cewinharhar/GITHUB/reincatalyze/data/processed/docking_pred/2023-May-24-1506_sub9_nm5_bs15_s42_ex16_mel10_mts10000_k50_ec02_g099_lra3e-4_lrc3e-3/9545d038953ad0bd3b50a81295f717fe73892d7b_ligand_9.pdbqt
 14 15 0 0 0
SMALL
GASTEIGER

@<TRIPOS>ATOM
      1  C          4.7980    0.3160    1.6520 C.3     1  UNL1        0.0800
      2  C          5.4190    1.5660    1.1320 C.2     1  UNL1        0.1300
      3  C          5.0190    2.1500   -0.1760 C.3     1  UNL1        0.0870
      4  O          6.2800    2.1500    1.7690 O.2     1  UNL1       -0.3000
      5  C          5.6490   -0.3100    2.7390 C.3     1  UNL1        0.0430
      6  C          6.8610   -0.9430    2.1890 C.2     1  UNL1       -0.0440
      7  C          8.0910   -0.2760    2.1650 C.2     1  UNL1        0.0080
      8  C          6.7930   -2.2220    1.6850 C.2     1  UNL1        0.0540
      9  C          9.1940   -0.9210    1.6360 C.2     1  UNL1        0.0510
     10  C          7.9120   -2.8700    1.1520 C.2     1  UNL1        0.1660
     11  C          9.1220   -2.2140    1.1280 C.2     1  UNL1        0.1650
     12  O          8.0990   -4.1190    0.5990 O.2     1  UNL1       -0.4540
     13  O         10.0380   -3.0820    0.5540 O.2     1  UNL1       -0.4540
     14  C          9.4520   -4.3340    0.2870 C.3     1  UNL1        0.4680
@<TRIPOS>BOND
     1     3     2    1
     2    14    13    1
     3    14    12    1
     4    13    11    1
     5    12    10    1
     6    11    10    2
     7    11     9    1
     8     2     1    1
     9     2     4    2
    10    10     8    1
    11     9     7    2
    12     1     5    1
    13     8     6    2
    14     7     6    1
    15     6     5    1
