MODEL 1
REMARK VINA RESULT:       1.2      0.000      0.000
REMARK SMILES CC(=O)CCc1ccc2c(c1)OCO2
REMARK SMILES IDX 4 1 2 2 1 3 3 4 5 5 6 6 7 7 11 8 8 9 10 10 9 11 12 12 14 13
REMARK SMILES IDX 13 14
REMARK H PARENT
REMARK Flexibility Score: inf
ROOT
ATOM      1  C   UNL     1       8.780  -4.774  -0.393  1.00  0.00     0.080 C 
ENDROOT
BRANCH   1   2
ATOM      2  C   UNL     1       9.524  -4.678  -1.680  1.00  0.00     0.130 C 
ATOM      3  C   UNL     1      10.360  -5.801  -2.184  1.00  0.00     0.087 C 
ATOM      4  O   UNL     1       9.470  -3.668  -2.361  1.00  0.00    -0.300 OA
ENDBRANCH   1   2
BRANCH   1   5
ATOM      5  C   UNL     1       9.521  -4.070   0.726  1.00  0.00     0.043 C 
BRANCH   5   6
ATOM      6  C   UNL     1       8.868  -2.804   1.102  1.00  0.00    -0.044 A 
ATOM      7  C   UNL     1       9.596  -1.616   1.238  1.00  0.00     0.008 A 
ATOM      8  C   UNL     1       7.510  -2.776   1.325  1.00  0.00     0.054 A 
ATOM      9  C   UNL     1       8.929  -0.457   1.593  1.00  0.00     0.051 A 
ATOM     10  C   UNL     1       6.840  -1.602   1.683  1.00  0.00     0.166 A 
ATOM     11  C   UNL     1       7.556  -0.433   1.818  1.00  0.00     0.165 A 
ATOM     12  O   UNL     1       5.519  -1.320   1.956  1.00  0.00    -0.454 OA
ATOM     13  O   UNL     1       6.649   0.553   2.174  1.00  0.00    -0.454 OA
ATOM     14  C   UNL     1       5.333   0.053   2.183  1.00  0.00     0.468 C 
ENDBRANCH   5   6
ENDBRANCH   1   5
TORSDOF 3
ENDMDL
MODEL 2
REMARK VINA RESULT:       1.3      2.133      5.786
REMARK SMILES CC(=O)CCc1ccc2c(c1)OCO2
REMARK SMILES IDX 4 1 2 2 1 3 3 4 5 5 6 6 7 7 11 8 8 9 10 10 9 11 12 12 14 13
REMARK SMILES IDX 13 14
REMARK H PARENT
REMARK Flexibility Score: inf
ROOT
ATOM      1  C   UNL     1       6.565   2.150   1.590  1.00  0.00     0.080 C 
ENDROOT
BRANCH   1   2
ATOM      2  C   UNL     1       5.196   2.069   1.009  1.00  0.00     0.130 C 
ATOM      3  C   UNL     1       4.964   2.150  -0.458  1.00  0.00     0.087 C 
ATOM      4  O   UNL     1       4.218   1.934   1.727  1.00  0.00    -0.300 OA
ENDBRANCH   1   2
BRANCH   1   5
ATOM      5  C   UNL     1       6.750   1.141   2.706  1.00  0.00     0.043 C 
BRANCH   5   6
ATOM      6  C   UNL     1       7.000  -0.214   2.181  1.00  0.00    -0.044 A 
ATOM      7  C   UNL     1       5.952  -1.105   1.923  1.00  0.00     0.008 A 
ATOM      8  C   UNL     1       8.291  -0.623   1.934  1.00  0.00     0.054 A 
ATOM      9  C   UNL     1       6.246  -2.363   1.430  1.00  0.00     0.051 A 
ATOM     10  C   UNL     1       8.583  -1.896   1.436  1.00  0.00     0.166 A 
ATOM     11  C   UNL     1       7.552  -2.773   1.182  1.00  0.00     0.165 A 
ATOM     12  O   UNL     1       9.764  -2.530   1.113  1.00  0.00    -0.454 OA
ATOM     13  O   UNL     1       8.128  -3.940   0.703  1.00  0.00    -0.454 OA
ATOM     14  C   UNL     1       9.521  -3.797   0.557  1.00  0.00     0.468 C 
ENDBRANCH   5   6
ENDBRANCH   1   5
TORSDOF 3
ENDMDL
MODEL 3
REMARK VINA RESULT:       1.4      3.066      7.180
REMARK SMILES CC(=O)CCc1ccc2c(c1)OCO2
REMARK SMILES IDX 4 1 2 2 1 3 3 4 5 5 6 6 7 7 11 8 8 9 10 10 9 11 12 12 14 13
REMARK SMILES IDX 13 14
REMARK H PARENT
REMARK Flexibility Score: inf
ROOT
ATOM      1  C   UNL     1       1.957  -0.061   3.082  1.00  0.00     0.080 C 
ENDROOT
BRANCH   1   2
ATOM      2  C   UNL     1       0.483   0.150   3.131  1.00  0.00     0.130 C 
ATOM      3  C   UNL     1      -0.174   1.247   2.371  1.00  0.00     0.087 C 
ATOM      4  O   UNL     1      -0.232  -0.576   3.802  1.00  0.00    -0.300 OA
ENDBRANCH   1   2
BRANCH   1   5
ATOM      5  C   UNL     1       2.652   1.078   2.363  1.00  0.00     0.043 C 
BRANCH   5   6
ATOM      6  C   UNL     1       4.079   0.790   2.134  1.00  0.00    -0.044 A 
ATOM      7  C   UNL     1       4.996   1.807   1.846  1.00  0.00     0.008 A 
ATOM      8  C   UNL     1       4.533  -0.508   2.207  1.00  0.00     0.054 A 
ATOM      9  C   UNL     1       6.323   1.477   1.642  1.00  0.00     0.051 A 
ATOM     10  C   UNL     1       5.876  -0.837   2.000  1.00  0.00     0.166 A 
ATOM     11  C   UNL     1       6.778   0.164   1.715  1.00  0.00     0.165 A 
ATOM     12  O   UNL     1       6.564  -2.031   2.016  1.00  0.00    -0.454 OA
ATOM     13  O   UNL     1       8.015  -0.443   1.561  1.00  0.00    -0.454 OA
ATOM     14  C   UNL     1       7.941  -1.822   1.833  1.00  0.00     0.468 C 
ENDBRANCH   5   6
ENDBRANCH   1   5
TORSDOF 3
ENDMDL
MODEL 4
REMARK VINA RESULT:       2.1      1.698      2.498
REMARK SMILES CC(=O)CCc1ccc2c(c1)OCO2
REMARK SMILES IDX 4 1 2 2 1 3 3 4 5 5 6 6 7 7 11 8 8 9 10 10 9 11 12 12 14 13
REMARK SMILES IDX 13 14
REMARK H PARENT
REMARK Flexibility Score: inf
ROOT
ATOM      1  C   UNL     1       7.982  -3.128   0.700  1.00  0.00     0.080 C 
ENDROOT
BRANCH   1   2
ATOM      2  C   UNL     1       9.116  -4.060   0.449  1.00  0.00     0.130 C 
ATOM      3  C   UNL     1       9.200  -4.868  -0.797  1.00  0.00     0.087 C 
ATOM      4  O   UNL     1      10.014  -4.189   1.264  1.00  0.00    -0.300 OA
ENDBRANCH   1   2
BRANCH   1   5
ATOM      5  C   UNL     1       8.297  -2.171   1.833  1.00  0.00     0.043 C 
BRANCH   5   6
ATOM      6  C   UNL     1       7.395  -1.005   1.831  1.00  0.00    -0.044 A 
ATOM      7  C   UNL     1       7.861   0.281   1.535  1.00  0.00     0.008 A 
ATOM      8  C   UNL     1       6.061  -1.174   2.123  1.00  0.00     0.054 A 
ATOM      9  C   UNL     1       6.968   1.337   1.547  1.00  0.00     0.051 A 
ATOM     10  C   UNL     1       5.162  -0.103   2.133  1.00  0.00     0.166 A 
ATOM     11  C   UNL     1       5.620   1.163   1.843  1.00  0.00     0.165 A 
ATOM     12  O   UNL     1       3.810  -0.013   2.389  1.00  0.00    -0.454 OA
ATOM     13  O   UNL     1       4.528   2.013   1.927  1.00  0.00    -0.454 OA
ATOM     14  C   UNL     1       3.344   1.295   2.181  1.00  0.00     0.468 C 
ENDBRANCH   5   6
ENDBRANCH   1   5
TORSDOF 3
ENDMDL
MODEL 5
REMARK VINA RESULT:       2.2      1.732      5.393
REMARK SMILES CC(=O)CCc1ccc2c(c1)OCO2
REMARK SMILES IDX 4 1 2 2 1 3 3 4 5 5 6 6 7 7 11 8 8 9 10 10 9 11 12 12 14 13
REMARK SMILES IDX 13 14
REMARK H PARENT
REMARK Flexibility Score: inf
ROOT
ATOM      1  C   UNL     1       4.798   0.316   1.652  1.00  0.00     0.080 C 
ENDROOT
BRANCH   1   2
ATOM      2  C   UNL     1       5.419   1.566   1.132  1.00  0.00     0.130 C 
ATOM      3  C   UNL     1       5.019   2.150  -0.176  1.00  0.00     0.087 C 
ATOM      4  O   UNL     1       6.280   2.150   1.769  1.00  0.00    -0.300 OA
ENDBRANCH   1   2
BRANCH   1   5
ATOM      5  C   UNL     1       5.649  -0.310   2.739  1.00  0.00     0.043 C 
BRANCH   5   6
ATOM      6  C   UNL     1       6.861  -0.943   2.189  1.00  0.00    -0.044 A 
ATOM      7  C   UNL     1       8.091  -0.276   2.165  1.00  0.00     0.008 A 
ATOM      8  C   UNL     1       6.793  -2.222   1.685  1.00  0.00     0.054 A 
ATOM      9  C   UNL     1       9.194  -0.921   1.636  1.00  0.00     0.051 A 
ATOM     10  C   UNL     1       7.912  -2.870   1.152  1.00  0.00     0.166 A 
ATOM     11  C   UNL     1       9.122  -2.214   1.128  1.00  0.00     0.165 A 
ATOM     12  O   UNL     1       8.099  -4.119   0.599  1.00  0.00    -0.454 OA
ATOM     13  O   UNL     1      10.038  -3.082   0.554  1.00  0.00    -0.454 OA
ATOM     14  C   UNL     1       9.452  -4.334   0.287  1.00  0.00     0.468 C 
ENDBRANCH   5   6
ENDBRANCH   1   5
TORSDOF 3
ENDMDL
