@<TRIPOS>MOLECULE
/home/cewinharhar/GITHUB/reincatalyze/data/processed/docking_pred/2023-May-24-1506_sub9_nm5_bs15_s42_ex16_mel10_mts10000_k50_ec02_g099_lra3e-4_lrc3e-3/95531ae200d71403f1a50a6947214b1c83df7ad5_ligand_9.pdbqt
 14 15 0 0 0
SMALL
GASTEIGER

@<TRIPOS>ATOM
      1  C          5.4430   -0.0320    2.0410 C.3     1  UNL1        0.0800
      2  C          4.5690    1.1450    1.7750 C.2     1  UNL1        0.1300
      3  C          4.8920    2.1330    0.7120 C.3     1  UNL1        0.0870
      4  O          3.5560    1.3330    2.4290 O.2     1  UNL1       -0.3000
      5  C          6.8690    0.2310    1.5980 C.3     1  UNL1        0.0430
      6  C          7.2900   -0.6990    0.5350 C.2     1  UNL1       -0.0440
      7  C          7.1680   -0.3670   -0.8200 C.2     1  UNL1        0.0080
      8  C          7.8200   -1.9240    0.8700 C.2     1  UNL1        0.0540
      9  C          7.5810   -1.2800   -1.7740 C.2     1  UNL1        0.0510
     10  C          8.2360   -2.8430   -0.0980 C.2     1  UNL1        0.1660
     11  C          8.1160   -2.5180   -1.4310 C.2     1  UNL1        0.1650
     12  O          8.7860   -4.1050   -0.0210 O.2     1  UNL1       -0.4540
     13  O          8.5990   -3.5980   -2.1520 O.2     1  UNL1       -0.4540
     14  C          9.1180   -4.5890   -1.2970 C.3     1  UNL1        0.4680
@<TRIPOS>BOND
     1    13    11    1
     2    13    14    1
     3     9    11    2
     4     9     7    1
     5    11    10    1
     6    14    12    1
     7     7     6    2
     8    10    12    1
     9    10     8    2
    10     6     8    1
    11     6     5    1
    12     3     2    1
    13     5     1    1
    14     2     1    1
    15     2     4    2
