@<TRIPOS>MOLECULE
/home/cewinharhar/GITHUB/reincatalyze/data/processed/docking_pred/2023-May-24-1506_sub9_nm5_bs15_s42_ex16_mel10_mts10000_k50_ec02_g099_lra3e-4_lrc3e-3/95531ae200d71403f1a50a6947214b1c83df7ad5_ligand_9.pdbqt
 14 15 0 0 0
SMALL
GASTEIGER

@<TRIPOS>ATOM
      1  C          5.5340    1.9160    1.2680 C.3     1  UNL1        0.0800
      2  C          5.0890    0.7000    2.0050 C.2     1  UNL1        0.1300
      3  C          5.9790   -0.4800    2.1740 C.3     1  UNL1        0.0870
      4  O          3.9730    0.6370    2.4940 O.2     1  UNL1       -0.3000
      5  C          5.4070    1.7280   -0.2310 C.3     1  UNL1        0.0430
      6  C          6.5750    1.0280   -0.7950 C.2     1  UNL1       -0.0440
      7  C          7.8820    1.4620   -0.5440 C.2     1  UNL1        0.0080
      8  C          6.3880   -0.0820   -1.5870 C.2     1  UNL1        0.0540
      9  C          8.9390    0.7650   -1.0990 C.2     1  UNL1        0.0510
     10  C          7.4610   -0.7830   -2.1460 C.2     1  UNL1        0.1660
     11  C          8.7470   -0.3560   -1.9000 C.2     1  UNL1        0.1650
     12  O          7.5350   -1.8970   -2.9550 O.2     1  UNL1       -0.4540
     13  O          9.5930   -1.2260   -2.5690 O.2     1  UNL1       -0.4540
     14  C          8.8710   -2.2710   -3.1760 C.3     1  UNL1        0.4680
@<TRIPOS>BOND
     1    14    12    1
     2    14    13    1
     3    12    10    1
     4    13    11    1
     5    10    11    2
     6    10     8    1
     7    11     9    1
     8     8     6    2
     9     9     7    2
    10     6     7    1
    11     6     5    1
    12     5     1    1
    13     1     2    1
    14     2     3    1
    15     2     4    2
