@<TRIPOS>MOLECULE
/home/cewinharhar/GITHUB/reincatalyze/data/processed/docking_pred/2023-May-24-1506_sub9_nm5_bs15_s42_ex16_mel10_mts10000_k50_ec02_g099_lra3e-4_lrc3e-3/955e59fc22a1e87e2ab10a68f3a5c98643a236a4_ligand_9.pdbqt
 14 15 0 0 0
SMALL
GASTEIGER

@<TRIPOS>ATOM
      1  C          5.7070    1.3490   -0.2690 C.3     1  UNL1        0.0800
      2  C          5.0880    1.2760    1.0840 C.2     1  UNL1        0.1300
      3  C          5.4480    0.2040    2.0500 C.3     1  UNL1        0.0870
      4  O          4.2620    2.1000    1.4400 O.2     1  UNL1       -0.3000
      5  C          7.2040    1.1180   -0.2030 C.3     1  UNL1        0.0430
      6  C          7.5870   -0.1590   -0.8320 C.2     1  UNL1       -0.0440
      7  C          7.6800   -0.2930   -2.2220 C.2     1  UNL1        0.0080
      8  C          7.8650   -1.2520   -0.0420 C.2     1  UNL1        0.0540
      9  C          8.0460   -1.5160   -2.7550 C.2     1  UNL1        0.0510
     10  C          8.2340   -2.4860   -0.5860 C.2     1  UNL1        0.1660
     11  C          8.3250   -2.6180   -1.9540 C.2     1  UNL1        0.1650
     12  O          8.5550   -3.7020   -0.0230 O.2     1  UNL1       -0.4540
     13  O          8.7050   -3.9280   -2.2050 O.2     1  UNL1       -0.4540
     14  C          8.9500   -4.6250   -1.0070 C.3     1  UNL1        0.4680
@<TRIPOS>BOND
     1     9     7    1
     2     9    11    2
     3     7     6    2
     4    13    11    1
     5    13    14    1
     6    11    10    1
     7    14    12    1
     8     6     5    1
     9     6     8    1
    10    10     8    2
    11    10    12    1
    12     1     5    1
    13     1     2    1
    14     2     4    2
    15     2     3    1
