@<TRIPOS>MOLECULE
/home/cewinharhar/GITHUB/reincatalyze/data/processed/docking_pred/2023-May-24-1506_sub9_nm5_bs15_s42_ex16_mel10_mts10000_k50_ec02_g099_lra3e-4_lrc3e-3/955e59fc22a1e87e2ab10a68f3a5c98643a236a4_ligand_9.pdbqt
 14 15 0 0 0
SMALL
GASTEIGER

@<TRIPOS>ATOM
      1  C          5.4500   -0.0110    2.0630 C.3     1  UNL1        0.0800
      2  C          4.5500    1.1440    1.7900 C.2     1  UNL1        0.1300
      3  C          4.8480    2.1300    0.7180 C.3     1  UNL1        0.0870
      4  O          3.5340    1.3150    2.4450 O.2     1  UNL1       -0.3000
      5  C          6.8630    0.2690    1.5900 C.3     1  UNL1        0.0430
      6  C          7.2750   -0.6610    0.5230 C.2     1  UNL1       -0.0440
      7  C          7.1440   -0.3290   -0.8300 C.2     1  UNL1        0.0080
      8  C          7.8060   -1.8870    0.8550 C.2     1  UNL1        0.0540
      9  C          7.5490   -1.2420   -1.7870 C.2     1  UNL1        0.0510
     10  C          8.2150   -2.8060   -0.1170 C.2     1  UNL1        0.1660
     11  C          8.0850   -2.4800   -1.4490 C.2     1  UNL1        0.1650
     12  O          8.7630   -4.0690   -0.0440 O.2     1  UNL1       -0.4540
     13  O          8.5620   -3.5610   -2.1740 O.2     1  UNL1       -0.4540
     14  C          9.0850   -4.5530   -1.3230 C.3     1  UNL1        0.4680
@<TRIPOS>BOND
     1    13    11    1
     2    13    14    1
     3     9    11    2
     4     9     7    1
     5    11    10    1
     6    14    12    1
     7     7     6    2
     8    10    12    1
     9    10     8    2
    10     6     8    1
    11     6     5    1
    12     3     2    1
    13     5     1    1
    14     2     1    1
    15     2     4    2
