MODEL 1
REMARK VINA RESULT:      -7.6      0.000      0.000
REMARK SMILES CC(=O)CCc1ccc2c(c1)OCO2
REMARK SMILES IDX 4 1 2 2 1 3 3 4 5 5 6 6 7 7 11 8 8 9 10 10 9 11 12 12 14 13
REMARK SMILES IDX 13 14
REMARK H PARENT
REMARK Flexibility Score: inf
ROOT
ATOM      1  C   UNL     1       5.535   1.802   1.165  1.00  0.00     0.080 C 
ENDROOT
BRANCH   1   2
ATOM      2  C   UNL     1       5.083   0.618   1.948  1.00  0.00     0.130 C 
ATOM      3  C   UNL     1       5.908  -0.616   2.043  1.00  0.00     0.087 C 
ATOM      4  O   UNL     1       4.015   0.628   2.538  1.00  0.00    -0.300 OA
ENDBRANCH   1   2
BRANCH   1   5
ATOM      5  C   UNL     1       5.425   1.551  -0.326  1.00  0.00     0.043 C 
BRANCH   5   6
ATOM      6  C   UNL     1       6.670   0.987  -0.878  1.00  0.00    -0.044 A 
ATOM      7  C   UNL     1       7.927   1.451  -0.475  1.00  0.00     0.008 A 
ATOM      8  C   UNL     1       6.606  -0.022  -1.812  1.00  0.00     0.054 A 
ATOM      9  C   UNL     1       9.061   0.884  -1.027  1.00  0.00     0.051 A 
ATOM     10  C   UNL     1       7.756  -0.593  -2.367  1.00  0.00     0.166 A 
ATOM     11  C   UNL     1       8.993  -0.136  -1.972  1.00  0.00     0.165 A 
ATOM     12  O   UNL     1       7.954  -1.591  -3.297  1.00  0.00    -0.454 OA
ATOM     13  O   UNL     1       9.935  -0.871  -2.674  1.00  0.00    -0.454 OA
ATOM     14  C   UNL     1       9.322  -1.866  -3.458  1.00  0.00     0.468 C 
ENDBRANCH   5   6
ENDBRANCH   1   5
TORSDOF 3
ENDMDL
MODEL 2
REMARK VINA RESULT:      -7.4      1.003      1.861
REMARK SMILES CC(=O)CCc1ccc2c(c1)OCO2
REMARK SMILES IDX 4 1 2 2 1 3 3 4 5 5 6 6 7 7 11 8 8 9 10 10 9 11 12 12 14 13
REMARK SMILES IDX 13 14
REMARK H PARENT
REMARK Flexibility Score: inf
ROOT
ATOM      1  C   UNL     1       6.053   1.370   1.118  1.00  0.00     0.080 C 
ENDROOT
BRANCH   1   2
ATOM      2  C   UNL     1       5.521   0.294   2.001  1.00  0.00     0.130 C 
ATOM      3  C   UNL     1       6.308  -0.933   2.298  1.00  0.00     0.087 C 
ATOM      4  O   UNL     1       4.416   0.390   2.508  1.00  0.00    -0.300 OA
ENDBRANCH   1   2
BRANCH   1   5
ATOM      5  C   UNL     1       5.677   1.130  -0.330  1.00  0.00     0.043 C 
BRANCH   5   6
ATOM      6  C   UNL     1       6.786   0.526  -1.090  1.00  0.00    -0.044 A 
ATOM      7  C   UNL     1       6.624  -0.670  -1.799  1.00  0.00     0.008 A 
ATOM      8  C   UNL     1       8.015   1.146  -1.112  1.00  0.00     0.054 A 
ATOM      9  C   UNL     1       7.701  -1.189  -2.495  1.00  0.00     0.051 A 
ATOM     10  C   UNL     1       9.100   0.617  -1.818  1.00  0.00     0.166 A 
ATOM     11  C   UNL     1       8.942  -0.560  -2.515  1.00  0.00     0.165 A 
ATOM     12  O   UNL     1      10.402   1.037  -1.992  1.00  0.00    -0.454 OA
ATOM     13  O   UNL     1      10.162  -0.841  -3.109  1.00  0.00    -0.454 OA
ATOM     14  C   UNL     1      11.090   0.191  -2.878  1.00  0.00     0.468 C 
ENDBRANCH   5   6
ENDBRANCH   1   5
TORSDOF 3
ENDMDL
MODEL 3
REMARK VINA RESULT:      -7.3      1.280      2.340
REMARK SMILES CC(=O)CCc1ccc2c(c1)OCO2
REMARK SMILES IDX 4 1 2 2 1 3 3 4 5 5 6 6 7 7 11 8 8 9 10 10 9 11 12 12 14 13
REMARK SMILES IDX 13 14
REMARK H PARENT
REMARK Flexibility Score: inf
ROOT
ATOM      1  C   UNL     1       5.856  -0.622   1.684  1.00  0.00     0.080 C 
ENDROOT
BRANCH   1   2
ATOM      2  C   UNL     1       5.054   0.631   1.749  1.00  0.00     0.130 C 
ATOM      3  C   UNL     1       5.319   1.777   0.839  1.00  0.00     0.087 C 
ATOM      4  O   UNL     1       4.149   0.754   2.558  1.00  0.00    -0.300 OA
ENDBRANCH   1   2
BRANCH   1   5
ATOM      5  C   UNL     1       7.319  -0.325   1.421  1.00  0.00     0.043 C 
BRANCH   5   6
ATOM      6  C   UNL     1       7.643  -0.400  -0.015  1.00  0.00    -0.044 A 
ATOM      7  C   UNL     1       6.938  -1.244  -0.882  1.00  0.00     0.008 A 
ATOM      8  C   UNL     1       8.658   0.375  -0.528  1.00  0.00     0.054 A 
ATOM      9  C   UNL     1       7.286  -1.272  -2.221  1.00  0.00     0.051 A 
ATOM     10  C   UNL     1       9.004   0.344  -1.882  1.00  0.00     0.166 A 
ATOM     11  C   UNL     1       8.313  -0.487  -2.735  1.00  0.00     0.165 A 
ATOM     12  O   UNL     1       9.959   1.007  -2.623  1.00  0.00    -0.454 OA
ATOM     13  O   UNL     1       8.862  -0.314  -3.996  1.00  0.00    -0.454 OA
ATOM     14  C   UNL     1       9.848   0.691  -3.987  1.00  0.00     0.468 C 
ENDBRANCH   5   6
ENDBRANCH   1   5
TORSDOF 3
ENDMDL
MODEL 4
REMARK VINA RESULT:      -7.3      2.094      2.527
REMARK SMILES CC(=O)CCc1ccc2c(c1)OCO2
REMARK SMILES IDX 4 1 2 2 1 3 3 4 5 5 6 6 7 7 11 8 8 9 10 10 9 11 12 12 14 13
REMARK SMILES IDX 13 14
REMARK H PARENT
REMARK Flexibility Score: inf
ROOT
ATOM      1  C   UNL     1       5.707   1.349  -0.269  1.00  0.00     0.080 C 
ENDROOT
BRANCH   1   2
ATOM      2  C   UNL     1       5.088   1.276   1.084  1.00  0.00     0.130 C 
ATOM      3  C   UNL     1       5.448   0.204   2.050  1.00  0.00     0.087 C 
ATOM      4  O   UNL     1       4.262   2.100   1.440  1.00  0.00    -0.300 OA
ENDBRANCH   1   2
BRANCH   1   5
ATOM      5  C   UNL     1       7.204   1.118  -0.203  1.00  0.00     0.043 C 
BRANCH   5   6
ATOM      6  C   UNL     1       7.587  -0.159  -0.832  1.00  0.00    -0.044 A 
ATOM      7  C   UNL     1       7.680  -0.293  -2.222  1.00  0.00     0.008 A 
ATOM      8  C   UNL     1       7.865  -1.252  -0.042  1.00  0.00     0.054 A 
ATOM      9  C   UNL     1       8.046  -1.516  -2.755  1.00  0.00     0.051 A 
ATOM     10  C   UNL     1       8.234  -2.486  -0.586  1.00  0.00     0.166 A 
ATOM     11  C   UNL     1       8.325  -2.618  -1.954  1.00  0.00     0.165 A 
ATOM     12  O   UNL     1       8.555  -3.702  -0.023  1.00  0.00    -0.454 OA
ATOM     13  O   UNL     1       8.705  -3.928  -2.205  1.00  0.00    -0.454 OA
ATOM     14  C   UNL     1       8.950  -4.625  -1.007  1.00  0.00     0.468 C 
ENDBRANCH   5   6
ENDBRANCH   1   5
TORSDOF 3
ENDMDL
MODEL 5
REMARK VINA RESULT:      -7.1      2.186      2.763
REMARK SMILES CC(=O)CCc1ccc2c(c1)OCO2
REMARK SMILES IDX 4 1 2 2 1 3 3 4 5 5 6 6 7 7 11 8 8 9 10 10 9 11 12 12 14 13
REMARK SMILES IDX 13 14
REMARK H PARENT
REMARK Flexibility Score: inf
ROOT
ATOM      1  C   UNL     1       5.450  -0.011   2.063  1.00  0.00     0.080 C 
ENDROOT
BRANCH   1   2
ATOM      2  C   UNL     1       4.550   1.144   1.790  1.00  0.00     0.130 C 
ATOM      3  C   UNL     1       4.848   2.130   0.718  1.00  0.00     0.087 C 
ATOM      4  O   UNL     1       3.534   1.315   2.445  1.00  0.00    -0.300 OA
ENDBRANCH   1   2
BRANCH   1   5
ATOM      5  C   UNL     1       6.863   0.269   1.590  1.00  0.00     0.043 C 
BRANCH   5   6
ATOM      6  C   UNL     1       7.275  -0.661   0.523  1.00  0.00    -0.044 A 
ATOM      7  C   UNL     1       7.144  -0.329  -0.830  1.00  0.00     0.008 A 
ATOM      8  C   UNL     1       7.806  -1.887   0.855  1.00  0.00     0.054 A 
ATOM      9  C   UNL     1       7.549  -1.242  -1.787  1.00  0.00     0.051 A 
ATOM     10  C   UNL     1       8.215  -2.806  -0.117  1.00  0.00     0.166 A 
ATOM     11  C   UNL     1       8.085  -2.480  -1.449  1.00  0.00     0.165 A 
ATOM     12  O   UNL     1       8.763  -4.069  -0.044  1.00  0.00    -0.454 OA
ATOM     13  O   UNL     1       8.562  -3.561  -2.174  1.00  0.00    -0.454 OA
ATOM     14  C   UNL     1       9.085  -4.553  -1.323  1.00  0.00     0.468 C 
ENDBRANCH   5   6
ENDBRANCH   1   5
TORSDOF 3
ENDMDL
