@<TRIPOS>MOLECULE
/home/cewinharhar/GITHUB/reincatalyze/data/processed/docking_pred/2023-May-24-1506_sub9_nm5_bs15_s42_ex16_mel10_mts10000_k50_ec02_g099_lra3e-4_lrc3e-3/955e59fc22a1e87e2ab10a68f3a5c98643a236a4_ligand_9.pdbqt
 14 15 0 0 0
SMALL
GASTEIGER

@<TRIPOS>ATOM
      1  C          5.5350    1.8020    1.1650 C.3     1  UNL1        0.0800
      2  C          5.0830    0.6180    1.9480 C.2     1  UNL1        0.1300
      3  C          5.9080   -0.6160    2.0430 C.3     1  UNL1        0.0870
      4  O          4.0150    0.6280    2.5380 O.2     1  UNL1       -0.3000
      5  C          5.4250    1.5510   -0.3260 C.3     1  UNL1        0.0430
      6  C          6.6700    0.9870   -0.8780 C.2     1  UNL1       -0.0440
      7  C          7.9270    1.4510   -0.4750 C.2     1  UNL1        0.0080
      8  C          6.6060   -0.0220   -1.8120 C.2     1  UNL1        0.0540
      9  C          9.0610    0.8840   -1.0270 C.2     1  UNL1        0.0510
     10  C          7.7560   -0.5930   -2.3670 C.2     1  UNL1        0.1660
     11  C          8.9930   -0.1360   -1.9720 C.2     1  UNL1        0.1650
     12  O          7.9540   -1.5910   -3.2970 O.2     1  UNL1       -0.4540
     13  O          9.9350   -0.8710   -2.6740 O.2     1  UNL1       -0.4540
     14  C          9.3220   -1.8660   -3.4580 C.3     1  UNL1        0.4680
@<TRIPOS>BOND
     1    14    12    1
     2    14    13    1
     3    12    10    1
     4    13    11    1
     5    10    11    2
     6    10     8    1
     7    11     9    1
     8     8     6    2
     9     9     7    2
    10     6     7    1
    11     6     5    1
    12     5     1    1
    13     1     2    1
    14     2     3    1
    15     2     4    2
