@<TRIPOS>MOLECULE
/home/cewinharhar/GITHUB/reincatalyze/data/processed/docking_pred/2023-May-24-1506_sub9_nm5_bs15_s42_ex16_mel10_mts10000_k50_ec02_g099_lra3e-4_lrc3e-3/955e59fc22a1e87e2ab10a68f3a5c98643a236a4_ligand_9.pdbqt
 14 15 0 0 0
SMALL
GASTEIGER

@<TRIPOS>ATOM
      1  C          6.0530    1.3700    1.1180 C.3     1  UNL1        0.0800
      2  C          5.5210    0.2940    2.0010 C.2     1  UNL1        0.1300
      3  C          6.3080   -0.9330    2.2980 C.3     1  UNL1        0.0870
      4  O          4.4160    0.3900    2.5080 O.2     1  UNL1       -0.3000
      5  C          5.6770    1.1300   -0.3300 C.3     1  UNL1        0.0430
      6  C          6.7860    0.5260   -1.0900 C.2     1  UNL1       -0.0440
      7  C          6.6240   -0.6700   -1.7990 C.2     1  UNL1        0.0080
      8  C          8.0150    1.1460   -1.1120 C.2     1  UNL1        0.0540
      9  C          7.7010   -1.1890   -2.4950 C.2     1  UNL1        0.0510
     10  C          9.1000    0.6170   -1.8180 C.2     1  UNL1        0.1660
     11  C          8.9420   -0.5600   -2.5150 C.2     1  UNL1        0.1650
     12  O         10.4020    1.0370   -1.9920 O.2     1  UNL1       -0.4540
     13  O         10.1620   -0.8410   -3.1090 O.2     1  UNL1       -0.4540
     14  C         11.0900    0.1910   -2.8780 C.3     1  UNL1        0.4680
@<TRIPOS>BOND
     1    13    14    1
     2    13    11    1
     3    14    12    1
     4    11     9    2
     5    11    10    1
     6     9     7    1
     7    12    10    1
     8    10     8    2
     9     7     6    2
    10     8     6    1
    11     6     5    1
    12     5     1    1
    13     1     2    1
    14     2     3    1
    15     2     4    2
