@<TRIPOS>MOLECULE
/home/cewinharhar/GITHUB/reincatalyze/data/processed/docking_pred/2023-May-24-1506_sub9_nm5_bs15_s42_ex16_mel10_mts10000_k50_ec02_g099_lra3e-4_lrc3e-3/955e59fc22a1e87e2ab10a68f3a5c98643a236a4_ligand_9.pdbqt
 14 15 0 0 0
SMALL
GASTEIGER

@<TRIPOS>ATOM
      1  C          5.8560   -0.6220    1.6840 C.3     1  UNL1        0.0800
      2  C          5.0540    0.6310    1.7490 C.2     1  UNL1        0.1300
      3  C          5.3190    1.7770    0.8390 C.3     1  UNL1        0.0870
      4  O          4.1490    0.7540    2.5580 O.2     1  UNL1       -0.3000
      5  C          7.3190   -0.3250    1.4210 C.3     1  UNL1        0.0430
      6  C          7.6430   -0.4000   -0.0150 C.2     1  UNL1       -0.0440
      7  C          6.9380   -1.2440   -0.8820 C.2     1  UNL1        0.0080
      8  C          8.6580    0.3750   -0.5280 C.2     1  UNL1        0.0540
      9  C          7.2860   -1.2720   -2.2210 C.2     1  UNL1        0.0510
     10  C          9.0040    0.3440   -1.8820 C.2     1  UNL1        0.1660
     11  C          8.3130   -0.4870   -2.7350 C.2     1  UNL1        0.1650
     12  O          9.9590    1.0070   -2.6230 O.2     1  UNL1       -0.4540
     13  O          8.8620   -0.3140   -3.9960 O.2     1  UNL1       -0.4540
     14  C          9.8480    0.6910   -3.9870 C.3     1  UNL1        0.4680
@<TRIPOS>BOND
     1    13    14    1
     2    13    11    1
     3    14    12    1
     4    11     9    2
     5    11    10    1
     6    12    10    1
     7     9     7    1
     8    10     8    2
     9     7     6    2
    10     8     6    1
    11     6     5    1
    12     3     2    1
    13     5     1    1
    14     1     2    1
    15     2     4    2
