@<TRIPOS>MOLECULE
/home/cewinharhar/GITHUB/reincatalyze/data/processed/docking_pred/2023-May-24-1506_sub9_nm5_bs15_s42_ex16_mel10_mts10000_k50_ec02_g099_lra3e-4_lrc3e-3/96aa1335557473cc7235c71144735280de1f686e_ligand_9.pdbqt
 14 15 0 0 0
SMALL
GASTEIGER

@<TRIPOS>ATOM
      1  C          5.0400    1.2280    0.7960 C.3     1  UNL1        0.0800
      2  C          6.0970    1.0380    1.8280 C.2     1  UNL1        0.1300
      3  C          6.4610   -0.3120    2.3350 C.3     1  UNL1        0.0870
      4  O          6.6990    1.9930    2.2920 O.2     1  UNL1       -0.3000
      5  C          5.6100    1.8370   -0.4700 C.3     1  UNL1        0.0430
      6  C          6.7370    1.0470   -0.9970 C.2     1  UNL1       -0.0440
      7  C          8.0630    1.4700   -0.8460 C.2     1  UNL1        0.0080
      8  C          6.4920   -0.1380   -1.6530 C.2     1  UNL1        0.0540
      9  C          9.0800    0.6870   -1.3610 C.2     1  UNL1        0.0510
     10  C          7.5240   -0.9260   -2.1710 C.2     1  UNL1        0.1660
     11  C          8.8290   -0.5100   -2.0240 C.2     1  UNL1        0.1650
     12  O          7.5390   -2.1240   -2.8530 O.2     1  UNL1       -0.4540
     13  O          9.6260   -1.4720   -2.6240 O.2     1  UNL1       -0.4540
     14  C          8.8560   -2.5570   -3.0830 C.3     1  UNL1        0.4680
@<TRIPOS>BOND
     1    14    12    1
     2    14    13    1
     3    12    10    1
     4    13    11    1
     5    10    11    2
     6    10     8    1
     7    11     9    1
     8     8     6    2
     9     9     7    2
    10     6     7    1
    11     6     5    1
    12     5     1    1
    13     1     2    1
    14     2     4    2
    15     2     3    1
