@<TRIPOS>MOLECULE
/home/cewinharhar/GITHUB/reincatalyze/data/processed/docking_pred/2023-May-24-1506_sub9_nm5_bs15_s42_ex16_mel10_mts10000_k50_ec02_g099_lra3e-4_lrc3e-3/96aa1335557473cc7235c71144735280de1f686e_ligand_9.pdbqt
 14 15 0 0 0
SMALL
GASTEIGER

@<TRIPOS>ATOM
      1  C          6.9990    1.2690    0.7240 C.3     1  UNL1        0.0800
      2  C          5.6350    1.8580    0.6260 C.2     1  UNL1        0.1300
      3  C          5.0020    2.1500   -0.6880 C.3     1  UNL1        0.0870
      4  O          4.9920    2.1210    1.6300 O.2     1  UNL1       -0.3000
      5  C          7.6950    1.2670   -0.6230 C.3     1  UNL1        0.0430
      6  C          7.9460   -0.1020   -1.1070 C.2     1  UNL1       -0.0440
      7  C          8.0120   -0.3960   -2.4730 C.2     1  UNL1        0.0080
      8  C          8.1220   -1.1240   -0.2010 C.2     1  UNL1        0.0540
      9  C          8.2510   -1.7000   -2.8680 C.2     1  UNL1        0.0510
     10  C          8.3640   -2.4400   -0.6060 C.2     1  UNL1        0.1660
     11  C          8.4280   -2.7310   -1.9500 C.2     1  UNL1        0.1650
     12  O          8.5690   -3.6140    0.0880 O.2     1  UNL1       -0.4540
     13  O          8.6750   -4.0910   -2.0550 O.2     1  UNL1       -0.4540
     14  C          8.8610   -4.6730   -0.7870 C.3     1  UNL1        0.4680
@<TRIPOS>BOND
     1     9     7    1
     2     9    11    2
     3     7     6    2
     4    13    11    1
     5    13    14    1
     6    11    10    1
     7     6     5    1
     8     6     8    1
     9    14    12    1
    10     3     2    1
    11     5     1    1
    12    10     8    2
    13    10    12    1
    14     2     1    1
    15     2     4    2
