@<TRIPOS>MOLECULE
/home/cewinharhar/GITHUB/reincatalyze/data/processed/docking_pred/2023-May-24-1506_sub9_nm5_bs15_s42_ex16_mel10_mts10000_k50_ec02_g099_lra3e-4_lrc3e-3/96aa1335557473cc7235c71144735280de1f686e_ligand_9.pdbqt
 14 15 0 0 0
SMALL
GASTEIGER

@<TRIPOS>ATOM
      1  C          8.7240   -3.8350   -0.5310 C.3     1  UNL1        0.0800
      2  C          9.2920   -4.8680   -1.4410 C.2     1  UNL1        0.1300
      3  C          8.7920   -6.2690   -1.4410 C.3     1  UNL1        0.0870
      4  O         10.1920   -4.5920   -2.2180 O.2     1  UNL1       -0.3000
      5  C          8.3550   -2.5760   -1.2900 C.3     1  UNL1        0.0430
      6  C          7.6520   -1.6060   -0.4310 C.2     1  UNL1       -0.0440
      7  C          7.7040   -1.6910    0.9650 C.2     1  UNL1        0.0080
      8  C          6.9260   -0.5870   -1.0040 C.2     1  UNL1        0.0540
      9  C          7.0260   -0.7520    1.7210 C.2     1  UNL1        0.0510
     10  C          6.2420    0.3600   -0.2360 C.2     1  UNL1        0.1660
     11  C          6.2920    0.2760    1.1370 C.2     1  UNL1        0.1650
     12  O          5.4630    1.4490   -0.5630 O.2     1  UNL1       -0.4540
     13  O          5.5360    1.3280    1.6310 O.2     1  UNL1       -0.4540
     14  C          5.0670    2.1490    0.5880 C.3     1  UNL1        0.4680
@<TRIPOS>BOND
     1     4     2    2
     2     2     3    1
     3     2     1    1
     4     5     1    1
     5     5     6    1
     6     8     6    2
     7     8    10    1
     8    12    10    1
     9    12    14    1
    10     6     7    1
    11    10    11    2
    12    14    13    1
    13     7     9    2
    14    11    13    1
    15    11     9    1
