MODEL 1
REMARK VINA RESULT:      -7.1      0.000      0.000
REMARK SMILES CC(=O)CCc1ccc2c(c1)OCO2
REMARK SMILES IDX 4 1 2 2 1 3 3 4 5 5 6 6 7 7 11 8 8 9 10 10 9 11 12 12 14 13
REMARK SMILES IDX 13 14
REMARK H PARENT
REMARK Flexibility Score: inf
ROOT
ATOM      1  C   UNL     1       5.953   1.280  -0.449  1.00  0.00     0.080 C 
ENDROOT
BRANCH   1   2
ATOM      2  C   UNL     1       5.555   1.314   0.986  1.00  0.00     0.130 C 
ATOM      3  C   UNL     1       6.096   0.339   1.970  1.00  0.00     0.087 C 
ATOM      4  O   UNL     1       4.767   2.150   1.397  1.00  0.00    -0.300 OA
ENDBRANCH   1   2
BRANCH   1   5
ATOM      5  C   UNL     1       7.452   1.108  -0.601  1.00  0.00     0.043 C 
BRANCH   5   6
ATOM      6  C   UNL     1       7.799  -0.227  -1.121  1.00  0.00    -0.044 A 
ATOM      7  C   UNL     1       7.927  -0.469  -2.493  1.00  0.00     0.008 A 
ATOM      8  C   UNL     1       8.006  -1.268  -0.244  1.00  0.00     0.054 A 
ATOM      9  C   UNL     1       8.256  -1.742  -2.923  1.00  0.00     0.051 A 
ATOM     10  C   UNL     1       8.339  -2.553  -0.683  1.00  0.00     0.166 A 
ATOM     11  C   UNL     1       8.464  -2.792  -2.034  1.00  0.00     0.165 A 
ATOM     12  O   UNL     1       8.591  -3.736  -0.022  1.00  0.00    -0.454 OA
ATOM     13  O   UNL     1       8.795  -4.130  -2.175  1.00  0.00    -0.454 OA
ATOM     14  C   UNL     1       8.975  -4.744  -0.921  1.00  0.00     0.468 C 
ENDBRANCH   5   6
ENDBRANCH   1   5
TORSDOF 3
ENDMDL
MODEL 2
REMARK VINA RESULT:      -6.8      0.636      1.030
REMARK SMILES CC(=O)CCc1ccc2c(c1)OCO2
REMARK SMILES IDX 4 1 2 2 1 3 3 4 5 5 6 6 7 7 11 8 8 9 10 10 9 11 12 12 14 13
REMARK SMILES IDX 13 14
REMARK H PARENT
REMARK Flexibility Score: inf
ROOT
ATOM      1  C   UNL     1       6.999   1.269   0.724  1.00  0.00     0.080 C 
ENDROOT
BRANCH   1   2
ATOM      2  C   UNL     1       5.635   1.858   0.626  1.00  0.00     0.130 C 
ATOM      3  C   UNL     1       5.002   2.150  -0.688  1.00  0.00     0.087 C 
ATOM      4  O   UNL     1       4.992   2.121   1.630  1.00  0.00    -0.300 OA
ENDBRANCH   1   2
BRANCH   1   5
ATOM      5  C   UNL     1       7.695   1.267  -0.623  1.00  0.00     0.043 C 
BRANCH   5   6
ATOM      6  C   UNL     1       7.946  -0.102  -1.107  1.00  0.00    -0.044 A 
ATOM      7  C   UNL     1       8.012  -0.396  -2.473  1.00  0.00     0.008 A 
ATOM      8  C   UNL     1       8.122  -1.124  -0.201  1.00  0.00     0.054 A 
ATOM      9  C   UNL     1       8.251  -1.700  -2.868  1.00  0.00     0.051 A 
ATOM     10  C   UNL     1       8.364  -2.440  -0.606  1.00  0.00     0.166 A 
ATOM     11  C   UNL     1       8.428  -2.731  -1.950  1.00  0.00     0.165 A 
ATOM     12  O   UNL     1       8.569  -3.614   0.088  1.00  0.00    -0.454 OA
ATOM     13  O   UNL     1       8.675  -4.091  -2.055  1.00  0.00    -0.454 OA
ATOM     14  C   UNL     1       8.861  -4.673  -0.787  1.00  0.00     0.468 C 
ENDBRANCH   5   6
ENDBRANCH   1   5
TORSDOF 3
ENDMDL
MODEL 3
REMARK VINA RESULT:      -6.6      1.129      2.024
REMARK SMILES CC(=O)CCc1ccc2c(c1)OCO2
REMARK SMILES IDX 4 1 2 2 1 3 3 4 5 5 6 6 7 7 11 8 8 9 10 10 9 11 12 12 14 13
REMARK SMILES IDX 13 14
REMARK H PARENT
REMARK Flexibility Score: inf
ROOT
ATOM      1  C   UNL     1       7.167   1.494  -0.313  1.00  0.00     0.080 C 
ENDROOT
BRANCH   1   2
ATOM      2  C   UNL     1       6.173   1.815   0.748  1.00  0.00     0.130 C 
ATOM      3  C   UNL     1       4.755   2.126   0.423  1.00  0.00     0.087 C 
ATOM      4  O   UNL     1       6.496   1.834   1.925  1.00  0.00    -0.300 OA
ENDBRANCH   1   2
BRANCH   1   5
ATOM      5  C   UNL     1       6.683   0.360  -1.195  1.00  0.00     0.043 C 
BRANCH   5   6
ATOM      6  C   UNL     1       7.309  -0.923  -0.828  1.00  0.00    -0.044 A 
ATOM      7  C   UNL     1       7.406  -1.336   0.506  1.00  0.00     0.008 A 
ATOM      8  C   UNL     1       7.812  -1.743  -1.812  1.00  0.00     0.054 A 
ATOM      9  C   UNL     1       8.004  -2.550   0.791  1.00  0.00     0.051 A 
ATOM     10  C   UNL     1       8.415  -2.970  -1.519  1.00  0.00     0.166 A 
ATOM     11  C   UNL     1       8.512  -3.377  -0.207  1.00  0.00     0.165 A 
ATOM     12  O   UNL     1       8.984  -3.949  -2.306  1.00  0.00    -0.454 OA
ATOM     13  O   UNL     1       9.143  -4.611  -0.215  1.00  0.00    -0.454 OA
ATOM     14  C   UNL     1       9.378  -5.053  -1.531  1.00  0.00     0.468 C 
ENDBRANCH   5   6
ENDBRANCH   1   5
TORSDOF 3
ENDMDL
MODEL 4
REMARK VINA RESULT:      -6.5      1.846      2.338
REMARK SMILES CC(=O)CCc1ccc2c(c1)OCO2
REMARK SMILES IDX 4 1 2 2 1 3 3 4 5 5 6 6 7 7 11 8 8 9 10 10 9 11 12 12 14 13
REMARK SMILES IDX 13 14
REMARK H PARENT
REMARK Flexibility Score: inf
ROOT
ATOM      1  C   UNL     1       5.040   1.228   0.796  1.00  0.00     0.080 C 
ENDROOT
BRANCH   1   2
ATOM      2  C   UNL     1       6.097   1.038   1.828  1.00  0.00     0.130 C 
ATOM      3  C   UNL     1       6.461  -0.312   2.335  1.00  0.00     0.087 C 
ATOM      4  O   UNL     1       6.699   1.993   2.292  1.00  0.00    -0.300 OA
ENDBRANCH   1   2
BRANCH   1   5
ATOM      5  C   UNL     1       5.610   1.837  -0.470  1.00  0.00     0.043 C 
BRANCH   5   6
ATOM      6  C   UNL     1       6.737   1.047  -0.997  1.00  0.00    -0.044 A 
ATOM      7  C   UNL     1       8.063   1.470  -0.846  1.00  0.00     0.008 A 
ATOM      8  C   UNL     1       6.492  -0.138  -1.653  1.00  0.00     0.054 A 
ATOM      9  C   UNL     1       9.080   0.687  -1.361  1.00  0.00     0.051 A 
ATOM     10  C   UNL     1       7.524  -0.926  -2.171  1.00  0.00     0.166 A 
ATOM     11  C   UNL     1       8.829  -0.510  -2.024  1.00  0.00     0.165 A 
ATOM     12  O   UNL     1       7.539  -2.124  -2.853  1.00  0.00    -0.454 OA
ATOM     13  O   UNL     1       9.626  -1.472  -2.624  1.00  0.00    -0.454 OA
ATOM     14  C   UNL     1       8.856  -2.557  -3.083  1.00  0.00     0.468 C 
ENDBRANCH   5   6
ENDBRANCH   1   5
TORSDOF 3
ENDMDL
MODEL 5
REMARK VINA RESULT:      -6.4      1.355      5.938
REMARK SMILES CC(=O)CCc1ccc2c(c1)OCO2
REMARK SMILES IDX 4 1 2 2 1 3 3 4 5 5 6 6 7 7 11 8 8 9 10 10 9 11 12 12 14 13
REMARK SMILES IDX 13 14
REMARK H PARENT
REMARK Flexibility Score: inf
ROOT
ATOM      1  C   UNL     1       8.724  -3.835  -0.531  1.00  0.00     0.080 C 
ENDROOT
BRANCH   1   2
ATOM      2  C   UNL     1       9.292  -4.868  -1.441  1.00  0.00     0.130 C 
ATOM      3  C   UNL     1       8.792  -6.269  -1.441  1.00  0.00     0.087 C 
ATOM      4  O   UNL     1      10.192  -4.592  -2.218  1.00  0.00    -0.300 OA
ENDBRANCH   1   2
BRANCH   1   5
ATOM      5  C   UNL     1       8.355  -2.576  -1.290  1.00  0.00     0.043 C 
BRANCH   5   6
ATOM      6  C   UNL     1       7.652  -1.606  -0.431  1.00  0.00    -0.044 A 
ATOM      7  C   UNL     1       7.704  -1.691   0.965  1.00  0.00     0.008 A 
ATOM      8  C   UNL     1       6.926  -0.587  -1.004  1.00  0.00     0.054 A 
ATOM      9  C   UNL     1       7.026  -0.752   1.721  1.00  0.00     0.051 A 
ATOM     10  C   UNL     1       6.242   0.360  -0.236  1.00  0.00     0.166 A 
ATOM     11  C   UNL     1       6.292   0.276   1.137  1.00  0.00     0.165 A 
ATOM     12  O   UNL     1       5.463   1.449  -0.563  1.00  0.00    -0.454 OA
ATOM     13  O   UNL     1       5.536   1.328   1.631  1.00  0.00    -0.454 OA
ATOM     14  C   UNL     1       5.067   2.149   0.588  1.00  0.00     0.468 C 
ENDBRANCH   5   6
ENDBRANCH   1   5
TORSDOF 3
ENDMDL
