@<TRIPOS>MOLECULE
/home/cewinharhar/GITHUB/reincatalyze/data/processed/docking_pred/2023-May-24-1506_sub9_nm5_bs15_s42_ex16_mel10_mts10000_k50_ec02_g099_lra3e-4_lrc3e-3/96aa1335557473cc7235c71144735280de1f686e_ligand_9.pdbqt
 14 15 0 0 0
SMALL
GASTEIGER

@<TRIPOS>ATOM
      1  C          7.1670    1.4940   -0.3130 C.3     1  UNL1        0.0800
      2  C          6.1730    1.8150    0.7480 C.2     1  UNL1        0.1300
      3  C          4.7550    2.1260    0.4230 C.3     1  UNL1        0.0870
      4  O          6.4960    1.8340    1.9250 O.2     1  UNL1       -0.3000
      5  C          6.6830    0.3600   -1.1950 C.3     1  UNL1        0.0430
      6  C          7.3090   -0.9230   -0.8280 C.2     1  UNL1       -0.0440
      7  C          7.4060   -1.3360    0.5060 C.2     1  UNL1        0.0080
      8  C          7.8120   -1.7430   -1.8120 C.2     1  UNL1        0.0540
      9  C          8.0040   -2.5500    0.7910 C.2     1  UNL1        0.0510
     10  C          8.4150   -2.9700   -1.5190 C.2     1  UNL1        0.1660
     11  C          8.5120   -3.3770   -0.2070 C.2     1  UNL1        0.1650
     12  O          8.9840   -3.9490   -2.3060 O.2     1  UNL1       -0.4540
     13  O          9.1430   -4.6110   -0.2150 O.2     1  UNL1       -0.4540
     14  C          9.3780   -5.0530   -1.5310 C.3     1  UNL1        0.4680
@<TRIPOS>BOND
     1    12    14    1
     2    12    10    1
     3     8    10    1
     4     8     6    2
     5    14    13    1
     6    10    11    2
     7     5     6    1
     8     5     1    1
     9     6     7    1
    10     1     2    1
    11    13    11    1
    12    11     9    1
    13     3     2    1
    14     7     9    2
    15     2     4    2
