@<TRIPOS>MOLECULE
/home/cewinharhar/GITHUB/reincatalyze/data/processed/docking_pred/2023-May-24-1506_sub9_nm5_bs15_s42_ex16_mel10_mts10000_k50_ec02_g099_lra3e-4_lrc3e-3/98720eda2f8b5e3d73e45599e80051818594e19a_ligand_9.pdbqt
 14 15 0 0 0
SMALL
GASTEIGER

@<TRIPOS>ATOM
      1  C          6.3430    1.3030    0.8900 C.3     1  UNL1        0.0800
      2  C          5.6870    0.4310    1.9050 C.2     1  UNL1        0.1300
      3  C          6.3800   -0.7520    2.4830 C.3     1  UNL1        0.0870
      4  O          4.5550    0.6650    2.2940 O.2     1  UNL1       -0.3000
      5  C          5.8360    0.9990   -0.5060 C.3     1  UNL1        0.0430
      6  C          6.7880    0.1670   -1.2640 C.2     1  UNL1       -0.0440
      7  C          7.4950    0.6760   -2.3590 C.2     1  UNL1        0.0080
      8  C          6.9950   -1.1420   -0.8930 C.2     1  UNL1        0.0540
      9  C          8.3760   -0.1510   -3.0320 C.2     1  UNL1        0.0510
     10  C          7.8870   -1.9740   -1.5770 C.2     1  UNL1        0.1660
     11  C          8.5830   -1.4740   -2.6550 C.2     1  UNL1        0.1650
     12  O          8.2630   -3.2900   -1.4070 O.2     1  UNL1       -0.4540
     13  O          9.3800   -2.5040   -3.1300 O.2     1  UNL1       -0.4540
     14  C          9.2760   -3.6450   -2.3130 C.3     1  UNL1        0.4680
@<TRIPOS>BOND
     1    13    11    1
     2    13    14    1
     3     9    11    2
     4     9     7    1
     5    11    10    1
     6     7     6    2
     7    14    12    1
     8    10    12    1
     9    10     8    2
    10     6     8    1
    11     6     5    1
    12     5     1    1
    13     1     2    1
    14     2     4    2
    15     2     3    1
