MODEL 1
REMARK VINA RESULT:      -7.7      0.000      0.000
REMARK SMILES CC(=O)CCc1ccc2c(c1)OCO2
REMARK SMILES IDX 4 1 2 2 1 3 3 4 5 5 6 6 7 7 11 8 8 9 10 10 9 11 12 12 14 13
REMARK SMILES IDX 13 14
REMARK H PARENT
REMARK Flexibility Score: inf
ROOT
ATOM      1  C   UNL     1       5.520   1.907   1.268  1.00  0.00     0.080 C 
ENDROOT
BRANCH   1   2
ATOM      2  C   UNL     1       5.080   0.687   1.999  1.00  0.00     0.130 C 
ATOM      3  C   UNL     1       5.973  -0.492   2.160  1.00  0.00     0.087 C 
ATOM      4  O   UNL     1       3.965   0.619   2.491  1.00  0.00    -0.300 OA
ENDBRANCH   1   2
BRANCH   1   5
ATOM      5  C   UNL     1       5.397   1.725  -0.232  1.00  0.00     0.043 C 
BRANCH   5   6
ATOM      6  C   UNL     1       6.565   1.025  -0.795  1.00  0.00    -0.044 A 
ATOM      7  C   UNL     1       7.871   1.464  -0.549  1.00  0.00     0.008 A 
ATOM      8  C   UNL     1       6.379  -0.089  -1.581  1.00  0.00     0.054 A 
ATOM      9  C   UNL     1       8.929   0.767  -1.103  1.00  0.00     0.051 A 
ATOM     10  C   UNL     1       7.452  -0.791  -2.139  1.00  0.00     0.166 A 
ATOM     11  C   UNL     1       8.738  -0.359  -1.898  1.00  0.00     0.165 A 
ATOM     12  O   UNL     1       7.528  -1.909  -2.942  1.00  0.00    -0.454 OA
ATOM     13  O   UNL     1       9.585  -1.231  -2.565  1.00  0.00    -0.454 OA
ATOM     14  C   UNL     1       8.864  -2.281  -3.165  1.00  0.00     0.468 C 
ENDBRANCH   5   6
ENDBRANCH   1   5
TORSDOF 3
ENDMDL
MODEL 2
REMARK VINA RESULT:      -7.4      1.909      2.385
REMARK SMILES CC(=O)CCc1ccc2c(c1)OCO2
REMARK SMILES IDX 4 1 2 2 1 3 3 4 5 5 6 6 7 7 11 8 8 9 10 10 9 11 12 12 14 13
REMARK SMILES IDX 13 14
REMARK H PARENT
REMARK Flexibility Score: inf
ROOT
ATOM      1  C   UNL     1       5.808   1.368  -0.254  1.00  0.00     0.080 C 
ENDROOT
BRANCH   1   2
ATOM      2  C   UNL     1       5.215   1.243   1.107  1.00  0.00     0.130 C 
ATOM      3  C   UNL     1       5.400   0.018   1.929  1.00  0.00     0.087 C 
ATOM      4  O   UNL     1       4.555   2.150   1.589  1.00  0.00    -0.300 OA
ENDBRANCH   1   2
BRANCH   1   5
ATOM      5  C   UNL     1       7.300   1.102  -0.231  1.00  0.00     0.043 C 
BRANCH   5   6
ATOM      6  C   UNL     1       7.634  -0.190  -0.857  1.00  0.00    -0.044 A 
ATOM      7  C   UNL     1       7.646  -0.349  -2.248  1.00  0.00     0.008 A 
ATOM      8  C   UNL     1       7.947  -1.271  -0.065  1.00  0.00     0.054 A 
ATOM      9  C   UNL     1       7.968  -1.585  -2.779  1.00  0.00     0.051 A 
ATOM     10  C   UNL     1       8.273  -2.518  -0.607  1.00  0.00     0.166 A 
ATOM     11  C   UNL     1       8.283  -2.676  -1.975  1.00  0.00     0.165 A 
ATOM     12  O   UNL     1       8.614  -3.728  -0.041  1.00  0.00    -0.454 OA
ATOM     13  O   UNL     1       8.635  -3.993  -2.224  1.00  0.00    -0.454 OA
ATOM     14  C   UNL     1       8.942  -4.672  -1.029  1.00  0.00     0.468 C 
ENDBRANCH   5   6
ENDBRANCH   1   5
TORSDOF 3
ENDMDL
MODEL 3
REMARK VINA RESULT:      -7.2      2.066      2.657
REMARK SMILES CC(=O)CCc1ccc2c(c1)OCO2
REMARK SMILES IDX 4 1 2 2 1 3 3 4 5 5 6 6 7 7 11 8 8 9 10 10 9 11 12 12 14 13
REMARK SMILES IDX 13 14
REMARK H PARENT
REMARK Flexibility Score: inf
ROOT
ATOM      1  C   UNL     1       5.379  -0.091   1.996  1.00  0.00     0.080 C 
ENDROOT
BRANCH   1   2
ATOM      2  C   UNL     1       4.584   1.146   1.758  1.00  0.00     0.130 C 
ATOM      3  C   UNL     1       4.954   2.119   0.695  1.00  0.00     0.087 C 
ATOM      4  O   UNL     1       3.599   1.399   2.433  1.00  0.00    -0.300 OA
ENDBRANCH   1   2
BRANCH   1   5
ATOM      5  C   UNL     1       6.838   0.115   1.642  1.00  0.00     0.043 C 
BRANCH   5   6
ATOM      6  C   UNL     1       7.274  -0.796   0.569  1.00  0.00    -0.044 A 
ATOM      7  C   UNL     1       7.137  -0.457  -0.782  1.00  0.00     0.008 A 
ATOM      8  C   UNL     1       7.832  -2.012   0.892  1.00  0.00     0.054 A 
ATOM      9  C   UNL     1       7.565  -1.352  -1.745  1.00  0.00     0.051 A 
ATOM     10  C   UNL     1       8.264  -2.913  -0.086  1.00  0.00     0.166 A 
ATOM     11  C   UNL     1       8.128  -2.581  -1.415  1.00  0.00     0.165 A 
ATOM     12  O   UNL     1       8.841  -4.164  -0.022  1.00  0.00    -0.454 OA
ATOM     13  O   UNL     1       8.632  -3.644  -2.148  1.00  0.00    -0.454 OA
ATOM     14  C   UNL     1       9.177  -4.630  -1.304  1.00  0.00     0.468 C 
ENDBRANCH   5   6
ENDBRANCH   1   5
TORSDOF 3
ENDMDL
MODEL 4
REMARK VINA RESULT:      -7.1      1.233      1.422
REMARK SMILES CC(=O)CCc1ccc2c(c1)OCO2
REMARK SMILES IDX 4 1 2 2 1 3 3 4 5 5 6 6 7 7 11 8 8 9 10 10 9 11 12 12 14 13
REMARK SMILES IDX 13 14
REMARK H PARENT
REMARK Flexibility Score: inf
ROOT
ATOM      1  C   UNL     1       6.343   1.303   0.890  1.00  0.00     0.080 C 
ENDROOT
BRANCH   1   2
ATOM      2  C   UNL     1       5.687   0.431   1.905  1.00  0.00     0.130 C 
ATOM      3  C   UNL     1       6.380  -0.752   2.483  1.00  0.00     0.087 C 
ATOM      4  O   UNL     1       4.555   0.665   2.294  1.00  0.00    -0.300 OA
ENDBRANCH   1   2
BRANCH   1   5
ATOM      5  C   UNL     1       5.836   0.999  -0.506  1.00  0.00     0.043 C 
BRANCH   5   6
ATOM      6  C   UNL     1       6.788   0.167  -1.264  1.00  0.00    -0.044 A 
ATOM      7  C   UNL     1       7.495   0.676  -2.359  1.00  0.00     0.008 A 
ATOM      8  C   UNL     1       6.995  -1.142  -0.893  1.00  0.00     0.054 A 
ATOM      9  C   UNL     1       8.376  -0.151  -3.032  1.00  0.00     0.051 A 
ATOM     10  C   UNL     1       7.887  -1.974  -1.577  1.00  0.00     0.166 A 
ATOM     11  C   UNL     1       8.583  -1.474  -2.655  1.00  0.00     0.165 A 
ATOM     12  O   UNL     1       8.263  -3.290  -1.407  1.00  0.00    -0.454 OA
ATOM     13  O   UNL     1       9.380  -2.504  -3.130  1.00  0.00    -0.454 OA
ATOM     14  C   UNL     1       9.276  -3.645  -2.313  1.00  0.00     0.468 C 
ENDBRANCH   5   6
ENDBRANCH   1   5
TORSDOF 3
ENDMDL
MODEL 5
REMARK VINA RESULT:      -7.1      1.924      2.579
REMARK SMILES CC(=O)CCc1ccc2c(c1)OCO2
REMARK SMILES IDX 4 1 2 2 1 3 3 4 5 5 6 6 7 7 11 8 8 9 10 10 9 11 12 12 14 13
REMARK SMILES IDX 13 14
REMARK H PARENT
REMARK Flexibility Score: inf
ROOT
ATOM      1  C   UNL     1       6.761   1.219   1.110  1.00  0.00     0.080 C 
ENDROOT
BRANCH   1   2
ATOM      2  C   UNL     1       5.356   1.653   0.873  1.00  0.00     0.130 C 
ATOM      3  C   UNL     1       4.905   2.149  -0.455  1.00  0.00     0.087 C 
ATOM      4  O   UNL     1       4.528   1.613   1.769  1.00  0.00    -0.300 OA
ENDBRANCH   1   2
BRANCH   1   5
ATOM      5  C   UNL     1       7.586   1.312  -0.158  1.00  0.00     0.043 C 
BRANCH   5   6
ATOM      6  C   UNL     1       7.829  -0.016  -0.750  1.00  0.00    -0.044 A 
ATOM      7  C   UNL     1       7.793  -0.219  -2.135  1.00  0.00     0.008 A 
ATOM      8  C   UNL     1       8.101  -1.089   0.068  1.00  0.00     0.054 A 
ATOM      9  C   UNL     1       8.029  -1.487  -2.633  1.00  0.00     0.051 A 
ATOM     10  C   UNL     1       8.340  -2.369  -0.441  1.00  0.00     0.166 A 
ATOM     11  C   UNL     1       8.303  -2.569  -1.803  1.00  0.00     0.165 A 
ATOM     12  O   UNL     1       8.627  -3.578   0.155  1.00  0.00    -0.454 OA
ATOM     13  O   UNL     1       8.573  -3.912  -2.017  1.00  0.00    -0.454 OA
ATOM     14  C   UNL     1       8.874  -4.569  -0.810  1.00  0.00     0.468 C 
ENDBRANCH   5   6
ENDBRANCH   1   5
TORSDOF 3
ENDMDL
