@<TRIPOS>MOLECULE
/home/cewinharhar/GITHUB/reincatalyze/data/processed/docking_pred/2023-May-24-1506_sub9_nm5_bs15_s42_ex16_mel10_mts10000_k50_ec02_g099_lra3e-4_lrc3e-3/988f01d9ae77b71bc9958a913f22cd4823a9f0c4_ligand_9.pdbqt
 14 15 0 0 0
SMALL
GASTEIGER

@<TRIPOS>ATOM
      1  C          8.1100   -2.5590   -3.5910 C.3     1  UNL1        0.0800
      2  C          9.2380   -3.5140   -3.4060 C.2     1  UNL1        0.1300
      3  C          9.0130   -4.9820   -3.3230 C.3     1  UNL1        0.0870
      4  O         10.3880   -3.1150   -3.3150 O.2     1  UNL1       -0.3000
      5  C          8.4670   -1.1780   -3.0760 C.3     1  UNL1        0.0430
      6  C          7.7110   -0.8370   -1.8580 C.2     1  UNL1       -0.0440
      7  C          7.7620   -1.6420   -0.7140 C.2     1  UNL1        0.0080
      8  C          6.9360    0.2990   -1.8320 C.2     1  UNL1        0.0540
      9  C          7.0320   -1.2710    0.4000 C.2     1  UNL1        0.0510
     10  C          6.2000    0.6700   -0.7030 C.2     1  UNL1        0.1660
     11  C          6.2480   -0.1220    0.4230 C.2     1  UNL1        0.1650
     12  O          5.3660    1.7350   -0.4320 O.2     1  UNL1       -0.4540
     13  O          5.4360    0.4790    1.3710 O.2     1  UNL1       -0.4540
     14  C          4.9290    1.7060    0.9020 C.3     1  UNL1        0.4680
@<TRIPOS>BOND
     1     1     2    1
     2     1     5    1
     3     2     3    1
     4     2     4    2
     5     5     6    1
     6     6     8    2
     7     6     7    1
     8     8    10    1
     9     7     9    2
    10    10    12    1
    11    10    11    2
    12    12    14    1
    13     9    11    1
    14    11    13    1
    15    14    13    1
