@<TRIPOS>MOLECULE
/home/cewinharhar/GITHUB/reincatalyze/data/processed/docking_pred/2023-May-24-1506_sub9_nm5_bs15_s42_ex16_mel10_mts10000_k50_ec02_g099_lra3e-4_lrc3e-3/988f01d9ae77b71bc9958a913f22cd4823a9f0c4_ligand_9.pdbqt
 14 15 0 0 0
SMALL
GASTEIGER

@<TRIPOS>ATOM
      1  C          6.0210    1.6440    1.1630 C.3     1  UNL1        0.0800
      2  C          5.4740    0.5270    1.9820 C.2     1  UNL1        0.1300
      3  C          6.2830   -0.6830    2.2910 C.3     1  UNL1        0.0870
      4  O          4.3390    0.5730    2.4270 O.2     1  UNL1       -0.3000
      5  C          5.7470    1.4310   -0.3120 C.3     1  UNL1        0.0430
      6  C          6.8150    0.6480   -0.9590 C.2     1  UNL1       -0.0440
      7  C          8.1620    1.0140   -0.8470 C.2     1  UNL1        0.0080
      8  C          6.4930   -0.4720   -1.6900 C.2     1  UNL1        0.0540
      9  C          9.1210    0.2420   -1.4750 C.2     1  UNL1        0.0510
     10  C          7.4670   -1.2500   -2.3230 C.2     1  UNL1        0.1660
     11  C          8.7920   -0.8900   -2.2150 C.2     1  UNL1        0.1650
     12  O          7.4040   -2.3900   -3.0960 O.2     1  UNL1       -0.4540
     13  O          9.5220   -1.8270   -2.9300 O.2     1  UNL1       -0.4540
     14  C          8.6900   -2.8470   -3.4290 C.3     1  UNL1        0.4680
@<TRIPOS>BOND
     1    14    12    1
     2    14    13    1
     3    12    10    1
     4    13    11    1
     5    10    11    2
     6    10     8    1
     7    11     9    1
     8     8     6    2
     9     9     7    2
    10     6     7    1
    11     6     5    1
    12     5     1    1
    13     1     2    1
    14     2     3    1
    15     2     4    2
