@<TRIPOS>MOLECULE
/home/cewinharhar/GITHUB/reincatalyze/data/processed/docking_pred/2023-May-24-1506_sub9_nm5_bs15_s42_ex16_mel10_mts10000_k50_ec02_g099_lra3e-4_lrc3e-3/988f01d9ae77b71bc9958a913f22cd4823a9f0c4_ligand_9.pdbqt
 14 15 0 0 0
SMALL
GASTEIGER

@<TRIPOS>ATOM
      1  C          8.1210   -2.4830   -3.6450 C.3     1  UNL1        0.0800
      2  C          9.2010   -3.4840   -3.4260 C.2     1  UNL1        0.1300
      3  C          8.9070   -4.9380   -3.3100 C.3     1  UNL1        0.0870
      4  O         10.3680   -3.1380   -3.3360 O.2     1  UNL1       -0.3000
      5  C          8.5300   -1.1130   -3.1390 C.3     1  UNL1        0.0430
      6  C          7.7520   -0.7150   -1.9520 C.2     1  UNL1       -0.0440
      7  C          6.8770    0.3770   -1.9820 C.2     1  UNL1        0.0080
      8  C          7.8800   -1.4270   -0.7820 C.2     1  UNL1        0.0540
      9  C          6.1720    0.7040   -0.8370 C.2     1  UNL1        0.0510
     10  C          7.1660   -1.0930    0.3730 C.2     1  UNL1        0.1660
     11  C          6.3050   -0.0190    0.3450 C.2     1  UNL1        0.1650
     12  O          7.1200   -1.6350    1.6390 O.2     1  UNL1       -0.4540
     13  O          5.7420    0.0770    1.6070 O.2     1  UNL1       -0.4540
     14  C          6.1620   -0.9830    2.4330 C.3     1  UNL1        0.4680
@<TRIPOS>BOND
     1     1     2    1
     2     1     5    1
     3     2     4    2
     4     2     3    1
     5     5     6    1
     6     7     6    2
     7     7     9    1
     8     6     8    1
     9     9    11    2
    10     8    10    2
    11    11    10    1
    12    11    13    1
    13    10    12    1
    14    13    14    1
    15    12    14    1
