@<TRIPOS>MOLECULE
/home/cewinharhar/GITHUB/reincatalyze/data/processed/docking_pred/2023-May-24-1506_sub9_nm5_bs15_s42_ex16_mel10_mts10000_k50_ec02_g099_lra3e-4_lrc3e-3/988f01d9ae77b71bc9958a913f22cd4823a9f0c4_ligand_9.pdbqt
 14 15 0 0 0
SMALL
GASTEIGER

@<TRIPOS>ATOM
      1  C          5.9220   -0.4230    1.5990 C.3     1  UNL1        0.0800
      2  C          4.9860    0.7310    1.7000 C.2     1  UNL1        0.1300
      3  C          5.0730    1.8900    0.7710 C.3     1  UNL1        0.0870
      4  O          4.1150    0.7590    2.5540 O.2     1  UNL1       -0.3000
      5  C          7.3170    0.0310    1.2180 C.3     1  UNL1        0.0430
      6  C          7.6820   -0.4050   -0.1420 C.2     1  UNL1       -0.0440
      7  C          7.8540    0.5130   -1.1840 C.2     1  UNL1        0.0080
      8  C          7.8620   -1.7440   -0.4040 C.2     1  UNL1        0.0540
      9  C          8.1970    0.0460   -2.4400 C.2     1  UNL1        0.0510
     10  C          8.2090   -2.2110   -1.6750 C.2     1  UNL1        0.1660
     11  C          8.3770   -1.3080   -2.7020 C.2     1  UNL1        0.1650
     12  O          8.4410   -3.4720   -2.1820 O.2     1  UNL1       -0.4540
     13  O          8.7130   -2.0420   -3.8290 O.2     1  UNL1       -0.4540
     14  C          8.8530   -3.4090   -3.5230 C.3     1  UNL1        0.4680
@<TRIPOS>BOND
     1    13    14    1
     2    13    11    1
     3    14    12    1
     4    11     9    2
     5    11    10    1
     6     9     7    1
     7    12    10    1
     8    10     8    2
     9     7     6    2
    10     8     6    1
    11     6     5    1
    12     3     2    1
    13     5     1    1
    14     1     2    1
    15     2     4    2
