@<TRIPOS>MOLECULE
/home/cewinharhar/GITHUB/reincatalyze/data/processed/docking_pred/2023-May-24-1506_sub9_nm5_bs15_s42_ex16_mel10_mts10000_k50_ec02_g099_lra3e-4_lrc3e-3/9c92d7019ca479aa147a964f0da84773825070a7_ligand_9.pdbqt
 14 15 0 0 0
SMALL
GASTEIGER

@<TRIPOS>ATOM
      1  C          6.3790    1.2510    0.8960 C.3     1  UNL1        0.0800
      2  C          5.7000    0.3980    1.9110 C.2     1  UNL1        0.1300
      3  C          6.3640   -0.7980    2.4950 C.3     1  UNL1        0.0870
      4  O          4.5710    0.6570    2.2930 O.2     1  UNL1       -0.3000
      5  C          5.8690    0.9580   -0.5010 C.3     1  UNL1        0.0430
      6  C          6.8140    0.1250   -1.2650 C.2     1  UNL1       -0.0440
      7  C          7.5100    0.6310   -2.3690 C.2     1  UNL1        0.0080
      8  C          7.0280   -1.1820   -0.8900 C.2     1  UNL1        0.0540
      9  C          8.3860   -0.1980   -3.0470 C.2     1  UNL1        0.0510
     10  C          7.9150   -2.0150   -1.5790 C.2     1  UNL1        0.1660
     11  C          8.5990   -1.5190   -2.6660 C.2     1  UNL1        0.1650
     12  O          8.2940   -3.3300   -1.4070 O.2     1  UNL1       -0.4540
     13  O          9.3930   -2.5490   -3.1440 O.2     1  UNL1       -0.4540
     14  C          9.2990   -3.6880   -2.3210 C.3     1  UNL1        0.4680
@<TRIPOS>BOND
     1    13    11    1
     2    13    14    1
     3     9    11    2
     4     9     7    1
     5    11    10    1
     6     7     6    2
     7    14    12    1
     8    10    12    1
     9    10     8    2
    10     6     8    1
    11     6     5    1
    12     5     1    1
    13     1     2    1
    14     2     4    2
    15     2     3    1
