MODEL 1
REMARK VINA RESULT:      -7.6      0.000      0.000
REMARK SMILES CC(=O)CCc1ccc2c(c1)OCO2
REMARK SMILES IDX 4 1 2 2 1 3 3 4 5 5 6 6 7 7 11 8 8 9 10 10 9 11 12 12 14 13
REMARK SMILES IDX 13 14
REMARK H PARENT
REMARK Flexibility Score: inf
ROOT
ATOM      1  C   UNL     1       5.602   1.854   1.303  1.00  0.00     0.080 C 
ENDROOT
BRANCH   1   2
ATOM      2  C   UNL     1       5.141   0.643   2.037  1.00  0.00     0.130 C 
ATOM      3  C   UNL     1       6.024  -0.540   2.223  1.00  0.00     0.087 C 
ATOM      4  O   UNL     1       4.018   0.586   2.511  1.00  0.00    -0.300 OA
ENDBRANCH   1   2
BRANCH   1   5
ATOM      5  C   UNL     1       5.452   1.679  -0.196  1.00  0.00     0.043 C 
BRANCH   5   6
ATOM      6  C   UNL     1       6.611   0.984  -0.783  1.00  0.00    -0.044 A 
ATOM      7  C   UNL     1       7.920   1.430  -0.568  1.00  0.00     0.008 A 
ATOM      8  C   UNL     1       6.413  -0.133  -1.563  1.00  0.00     0.054 A 
ATOM      9  C   UNL     1       8.969   0.737  -1.144  1.00  0.00     0.051 A 
ATOM     10  C   UNL     1       7.477  -0.831  -2.143  1.00  0.00     0.166 A 
ATOM     11  C   UNL     1       8.765  -0.392  -1.932  1.00  0.00     0.165 A 
ATOM     12  O   UNL     1       7.540  -1.950  -2.945  1.00  0.00    -0.454 OA
ATOM     13  O   UNL     1       9.601  -1.260  -2.616  1.00  0.00    -0.454 OA
ATOM     14  C   UNL     1       8.872  -2.315  -3.197  1.00  0.00     0.468 C 
ENDBRANCH   5   6
ENDBRANCH   1   5
TORSDOF 3
ENDMDL
MODEL 2
REMARK VINA RESULT:      -7.3      1.920      2.309
REMARK SMILES CC(=O)CCc1ccc2c(c1)OCO2
REMARK SMILES IDX 4 1 2 2 1 3 3 4 5 5 6 6 7 7 11 8 8 9 10 10 9 11 12 12 14 13
REMARK SMILES IDX 13 14
REMARK H PARENT
REMARK Flexibility Score: inf
ROOT
ATOM      1  C   UNL     1       5.811   1.497  -0.058  1.00  0.00     0.080 C 
ENDROOT
BRANCH   1   2
ATOM      2  C   UNL     1       5.046   1.256   1.197  1.00  0.00     0.130 C 
ATOM      3  C   UNL     1       5.334   0.090   2.075  1.00  0.00     0.087 C 
ATOM      4  O   UNL     1       4.155   2.014   1.543  1.00  0.00    -0.300 OA
ENDBRANCH   1   2
BRANCH   1   5
ATOM      5  C   UNL     1       7.273   1.135   0.110  1.00  0.00     0.043 C 
BRANCH   5   6
ATOM      6  C   UNL     1       7.607  -0.125  -0.578  1.00  0.00    -0.044 A 
ATOM      7  C   UNL     1       7.595  -0.224  -1.974  1.00  0.00     0.008 A 
ATOM      8  C   UNL     1       7.943  -1.237   0.161  1.00  0.00     0.054 A 
ATOM      9  C   UNL     1       7.918  -1.433  -2.564  1.00  0.00     0.051 A 
ATOM     10  C   UNL     1       8.270  -2.456  -0.441  1.00  0.00     0.166 A 
ATOM     11  C   UNL     1       8.256  -2.555  -1.814  1.00  0.00     0.165 A 
ATOM     12  O   UNL     1       8.631  -3.687   0.066  1.00  0.00    -0.454 OA
ATOM     13  O   UNL     1       8.615  -3.857  -2.126  1.00  0.00    -0.454 OA
ATOM     14  C   UNL     1       8.949  -4.583  -0.968  1.00  0.00     0.468 C 
ENDBRANCH   5   6
ENDBRANCH   1   5
TORSDOF 3
ENDMDL
MODEL 3
REMARK VINA RESULT:      -7.2      2.046      2.620
REMARK SMILES CC(=O)CCc1ccc2c(c1)OCO2
REMARK SMILES IDX 4 1 2 2 1 3 3 4 5 5 6 6 7 7 11 8 8 9 10 10 9 11 12 12 14 13
REMARK SMILES IDX 13 14
REMARK H PARENT
REMARK Flexibility Score: inf
ROOT
ATOM      1  C   UNL     1       5.373  -0.091   2.019  1.00  0.00     0.080 C 
ENDROOT
BRANCH   1   2
ATOM      2  C   UNL     1       4.542   1.120   1.773  1.00  0.00     0.130 C 
ATOM      3  C   UNL     1       4.895   2.108   0.718  1.00  0.00     0.087 C 
ATOM      4  O   UNL     1       3.541   1.339   2.435  1.00  0.00    -0.300 OA
ENDBRANCH   1   2
BRANCH   1   5
ATOM      5  C   UNL     1       6.820   0.147   1.638  1.00  0.00     0.043 C 
BRANCH   5   6
ATOM      6  C   UNL     1       7.260  -0.764   0.566  1.00  0.00    -0.044 A 
ATOM      7  C   UNL     1       7.146  -0.415  -0.785  1.00  0.00     0.008 A 
ATOM      8  C   UNL     1       7.799  -1.988   0.889  1.00  0.00     0.054 A 
ATOM      9  C   UNL     1       7.576  -1.309  -1.747  1.00  0.00     0.051 A 
ATOM     10  C   UNL     1       8.233  -2.889  -0.088  1.00  0.00     0.166 A 
ATOM     11  C   UNL     1       8.120  -2.547  -1.417  1.00  0.00     0.165 A 
ATOM     12  O   UNL     1       8.794  -4.147  -0.024  1.00  0.00    -0.454 OA
ATOM     13  O   UNL     1       8.621  -3.612  -2.149  1.00  0.00    -0.454 OA
ATOM     14  C   UNL     1       9.142  -4.610  -1.304  1.00  0.00     0.468 C 
ENDBRANCH   5   6
ENDBRANCH   1   5
TORSDOF 3
ENDMDL
MODEL 4
REMARK VINA RESULT:      -7.1      1.231      1.422
REMARK SMILES CC(=O)CCc1ccc2c(c1)OCO2
REMARK SMILES IDX 4 1 2 2 1 3 3 4 5 5 6 6 7 7 11 8 8 9 10 10 9 11 12 12 14 13
REMARK SMILES IDX 13 14
REMARK H PARENT
REMARK Flexibility Score: inf
ROOT
ATOM      1  C   UNL     1       6.377   1.191   0.932  1.00  0.00     0.080 C 
ENDROOT
BRANCH   1   2
ATOM      2  C   UNL     1       5.658   0.370   1.946  1.00  0.00     0.130 C 
ATOM      3  C   UNL     1       6.262  -0.858   2.527  1.00  0.00     0.087 C 
ATOM      4  O   UNL     1       4.543   0.685   2.330  1.00  0.00    -0.300 OA
ENDBRANCH   1   2
BRANCH   1   5
ATOM      5  C   UNL     1       5.864   0.913  -0.467  1.00  0.00     0.043 C 
BRANCH   5   6
ATOM      6  C   UNL     1       6.812   0.096  -1.244  1.00  0.00    -0.044 A 
ATOM      7  C   UNL     1       7.491   0.616  -2.352  1.00  0.00     0.008 A 
ATOM      8  C   UNL     1       7.046  -1.211  -0.880  1.00  0.00     0.054 A 
ATOM      9  C   UNL     1       8.370  -0.198  -3.043  1.00  0.00     0.051 A 
ATOM     10  C   UNL     1       7.936  -2.029  -1.582  1.00  0.00     0.166 A 
ATOM     11  C   UNL     1       8.603  -1.518  -2.673  1.00  0.00     0.165 A 
ATOM     12  O   UNL     1       8.333  -3.340  -1.421  1.00  0.00    -0.454 OA
ATOM     13  O   UNL     1       9.406  -2.536  -3.164  1.00  0.00    -0.454 OA
ATOM     14  C   UNL     1       9.334  -3.680  -2.347  1.00  0.00     0.468 C 
ENDBRANCH   5   6
ENDBRANCH   1   5
TORSDOF 3
ENDMDL
MODEL 5
REMARK VINA RESULT:      -7.1      1.973      2.521
REMARK SMILES CC(=O)CCc1ccc2c(c1)OCO2
REMARK SMILES IDX 4 1 2 2 1 3 3 4 5 5 6 6 7 7 11 8 8 9 10 10 9 11 12 12 14 13
REMARK SMILES IDX 13 14
REMARK H PARENT
REMARK Flexibility Score: inf
ROOT
ATOM      1  C   UNL     1       6.811   0.705   1.437  1.00  0.00     0.080 C 
ENDROOT
BRANCH   1   2
ATOM      2  C   UNL     1       5.373   1.085   1.522  1.00  0.00     0.130 C 
ATOM      3  C   UNL     1       4.786   2.122   0.632  1.00  0.00     0.087 C 
ATOM      4  O   UNL     1       4.631   0.552   2.331  1.00  0.00    -0.300 OA
ENDBRANCH   1   2
BRANCH   1   5
ATOM      5  C   UNL     1       7.364   0.949   0.047  1.00  0.00     0.043 C 
BRANCH   5   6
ATOM      6  C   UNL     1       7.675  -0.314  -0.646  1.00  0.00    -0.044 A 
ATOM      7  C   UNL     1       7.651  -0.409  -2.042  1.00  0.00     0.008 A 
ATOM      8  C   UNL     1       8.002  -1.432   0.087  1.00  0.00     0.054 A 
ATOM      9  C   UNL     1       7.954  -1.620  -2.638  1.00  0.00     0.051 A 
ATOM     10  C   UNL     1       8.307  -2.654  -0.520  1.00  0.00     0.166 A 
ATOM     11  C   UNL     1       8.283  -2.748  -1.894  1.00  0.00     0.165 A 
ATOM     12  O   UNL     1       8.656  -3.890  -0.020  1.00  0.00    -0.454 OA
ATOM     13  O   UNL     1       8.622  -4.054  -2.212  1.00  0.00    -0.454 OA
ATOM     14  C   UNL     1       8.955  -4.788  -1.058  1.00  0.00     0.468 C 
ENDBRANCH   5   6
ENDBRANCH   1   5
TORSDOF 3
ENDMDL
