@<TRIPOS>MOLECULE
/home/cewinharhar/GITHUB/reincatalyze/data/processed/docking_pred/2023-May-24-1506_sub9_nm5_bs15_s42_ex16_mel10_mts10000_k50_ec02_g099_lra3e-4_lrc3e-3/9e6208548f5309b91e7f4e881f40d3475c8e3dc2_ligand_9.pdbqt
 14 15 0 0 0
SMALL
GASTEIGER

@<TRIPOS>ATOM
      1  C          8.3170    0.1630   -2.7210 C.3     1  UNL1        0.0800
      2  C          8.0650   -1.3030   -2.7970 C.2     1  UNL1        0.1300
      3  C          9.1700   -2.2750   -3.0140 C.3     1  UNL1        0.0870
      4  O          6.9360   -1.7520   -2.6830 O.2     1  UNL1       -0.3000
      5  C          8.8550    0.5590   -1.3600 C.3     1  UNL1        0.0430
      6  C          7.8320    0.4260   -0.3080 C.2     1  UNL1       -0.0440
      7  C          7.9480   -0.5250    0.7120 C.2     1  UNL1        0.0080
      8  C          6.7320    1.2540   -0.3180 C.2     1  UNL1        0.0540
      9  C          6.9570   -0.6030    1.6730 C.2     1  UNL1        0.0510
     10  C          5.7330    1.1720    0.6560 C.2     1  UNL1        0.1660
     11  C          5.8460    0.2350    1.6600 C.2     1  UNL1        0.1650
     12  O          4.5610    1.8690    0.8620 O.2     1  UNL1       -0.4540
     13  O          4.7300    0.3790    2.4700 O.2     1  UNL1       -0.4540
     14  C          3.9350    1.4630    2.0520 C.3     1  UNL1        0.4680
@<TRIPOS>BOND
     1     3     2    1
     2     2     1    1
     3     2     4    2
     4     1     5    1
     5     5     6    1
     6     8     6    2
     7     8    10    1
     8     6     7    1
     9    10    12    1
    10    10    11    2
    11     7     9    2
    12    12    14    1
    13    11     9    1
    14    11    13    1
    15    14    13    1
