@<TRIPOS>MOLECULE
/home/cewinharhar/GITHUB/reincatalyze/data/processed/docking_pred/2023-May-24-1506_sub9_nm5_bs15_s42_ex16_mel10_mts10000_k50_ec02_g099_lra3e-4_lrc3e-3/9f92c22f58037dfd31510195396f5f62a4e9f4e3_ligand_9.pdbqt
 14 15 0 0 0
SMALL
GASTEIGER

@<TRIPOS>ATOM
      1  C          8.2750    0.1520   -2.6060 C.3     1  UNL1        0.0800
      2  C          8.0370   -1.3130   -2.7250 C.2     1  UNL1        0.1300
      3  C          9.1510   -2.2680   -2.9690 C.3     1  UNL1        0.0870
      4  O          6.9120   -1.7750   -2.6240 O.2     1  UNL1       -0.3000
      5  C          8.7940    0.5160   -1.2290 C.3     1  UNL1        0.0430
      6  C          7.7240    0.4840   -0.2160 C.2     1  UNL1       -0.0440
      7  C          7.7480   -0.4260    0.8470 C.2     1  UNL1        0.0080
      8  C          6.6730    1.3680   -0.3060 C.2     1  UNL1        0.0540
      9  C          6.7170   -0.4090    1.7690 C.2     1  UNL1        0.0510
     10  C          5.6330    1.3810    0.6290 C.2     1  UNL1        0.1660
     11  C          5.6550    0.4850    1.6740 C.2     1  UNL1        0.1650
     12  O          4.4940    2.1480    0.7560 O.2     1  UNL1       -0.4540
     13  O          4.5180    0.7230    2.4300 O.2     1  UNL1       -0.4540
     14  C          3.8010    1.8290    1.9350 C.3     1  UNL1        0.4680
@<TRIPOS>BOND
     1     3     2    1
     2     2     4    2
     3     2     1    1
     4     1     5    1
     5     5     6    1
     6     8     6    2
     7     8    10    1
     8     6     7    1
     9    10    12    1
    10    10    11    2
    11    12    14    1
    12     7     9    2
    13    11     9    1
    14    11    13    1
    15    14    13    1
