@<TRIPOS>MOLECULE
/home/cewinharhar/GITHUB/reincatalyze/data/processed/docking_pred/2023-May-24-1506_sub9_nm5_bs15_s42_ex16_mel10_mts10000_k50_ec02_g099_lra3e-4_lrc3e-3/9f92c22f58037dfd31510195396f5f62a4e9f4e3_ligand_9.pdbqt
 14 15 0 0 0
SMALL
GASTEIGER

@<TRIPOS>ATOM
      1  C          5.7420    1.3750   -0.2830 C.3     1  UNL1        0.0800
      2  C          5.1330    1.2700    1.0730 C.2     1  UNL1        0.1300
      3  C          5.3850    0.0990    1.9540 C.3     1  UNL1        0.0870
      4  O          4.4030    2.1500    1.5020 O.2     1  UNL1       -0.3000
      5  C          7.2380    1.1380   -0.2340 C.3     1  UNL1        0.0430
      6  C          7.6070   -0.1510   -0.8460 C.2     1  UNL1       -0.0440
      7  C          7.6810   -0.3090   -2.2340 C.2     1  UNL1        0.0080
      8  C          7.8910   -1.2320   -0.0420 C.2     1  UNL1        0.0540
      9  C          8.0330   -1.5420   -2.7520 C.2     1  UNL1        0.0510
     10  C          8.2480   -2.4760   -0.5700 C.2     1  UNL1        0.1660
     11  C          8.3190   -2.6320   -1.9360 C.2     1  UNL1        0.1650
     12  O          8.5710   -3.6850    0.0090 O.2     1  UNL1       -0.4540
     13  O          8.6900   -3.9470   -2.1700 O.2     1  UNL1       -0.4540
     14  C          8.9480   -4.6250   -0.9640 C.3     1  UNL1        0.4680
@<TRIPOS>BOND
     1     9     7    1
     2     9    11    2
     3     7     6    2
     4    13    11    1
     5    13    14    1
     6    11    10    1
     7    14    12    1
     8     6     5    1
     9     6     8    1
    10    10     8    2
    11    10    12    1
    12     1     5    1
    13     1     2    1
    14     2     4    2
    15     2     3    1
