@<TRIPOS>MOLECULE
/home/cewinharhar/GITHUB/reincatalyze/data/processed/docking_pred/2023-May-24-1506_sub9_nm5_bs15_s42_ex16_mel10_mts10000_k50_ec02_g099_lra3e-4_lrc3e-3/9f92c22f58037dfd31510195396f5f62a4e9f4e3_ligand_9.pdbqt
 14 15 0 0 0
SMALL
GASTEIGER

@<TRIPOS>ATOM
      1  C          6.9120    0.8310    1.3250 C.3     1  UNL1        0.0800
      2  C          5.4610    1.0940    1.5350 C.2     1  UNL1        0.1300
      3  C          4.7410    2.1500    0.7740 C.3     1  UNL1        0.0870
      4  O          4.8170    0.4460    2.3440 O.2     1  UNL1       -0.3000
      5  C          7.3000    1.0140   -0.1290 C.3     1  UNL1        0.0430
      6  C          7.6290   -0.2710   -0.7720 C.2     1  UNL1       -0.0440
      7  C          7.6220   -0.4170   -2.1640 C.2     1  UNL1        0.0080
      8  C          7.9550   -1.3590    0.0050 C.2     1  UNL1        0.0540
      9  C          7.9400   -1.6470   -2.7110 C.2     1  UNL1        0.0510
     10  C          8.2760   -2.6000   -0.5530 C.2     1  UNL1        0.1660
     11  C          8.2680   -2.7450   -1.9220 C.2     1  UNL1        0.1650
     12  O          8.6280   -3.8150   -0.0040 O.2     1  UNL1       -0.4540
     13  O          8.6200   -4.0590   -2.1880 O.2     1  UNL1       -0.4540
     14  C          8.9450   -4.7480   -1.0040 C.3     1  UNL1        0.4680
@<TRIPOS>BOND
     1     9     7    1
     2     9    11    2
     3    13    11    1
     4    13    14    1
     5     7     6    2
     6    11    10    1
     7    14    12    1
     8     6     5    1
     9     6     8    1
    10    10    12    1
    11    10     8    2
    12     5     1    1
    13     3     2    1
    14     1     2    1
    15     2     4    2
