@<TRIPOS>MOLECULE
/home/cewinharhar/GITHUB/reincatalyze/data/processed/docking_pred/2023-May-24-1506_sub9_nm5_bs15_s42_ex16_mel10_mts10000_k50_ec02_g099_lra3e-4_lrc3e-3/9f92c22f58037dfd31510195396f5f62a4e9f4e3_ligand_9.pdbqt
 14 15 0 0 0
SMALL
GASTEIGER

@<TRIPOS>ATOM
      1  C          6.3270    1.2810    0.8550 C.3     1  UNL1        0.0800
      2  C          5.6610    0.4440    1.8920 C.2     1  UNL1        0.1300
      3  C          6.3190   -0.7620    2.4630 C.3     1  UNL1        0.0870
      4  O          4.5480    0.7260    2.3050 O.2     1  UNL1       -0.3000
      5  C          5.8230    0.9420   -0.5330 C.3     1  UNL1        0.0430
      6  C          6.7940    0.1270   -1.2840 C.2     1  UNL1       -0.0440
      7  C          7.5280    0.6590   -2.3510 C.2     1  UNL1        0.0080
      8  C          6.9950   -1.1890   -0.9350 C.2     1  UNL1        0.0540
      9  C          8.4260   -0.1530   -3.0180 C.2     1  UNL1        0.0510
     10  C          7.9050   -2.0060   -1.6130 C.2     1  UNL1        0.1660
     11  C          8.6270   -1.4840   -2.6630 C.2     1  UNL1        0.1650
     12  O          8.2790   -3.3240   -1.4600 O.2     1  UNL1       -0.4540
     13  O          9.4370   -2.5030   -3.1380 O.2     1  UNL1       -0.4540
     14  C          9.3150   -3.6600   -2.3470 C.3     1  UNL1        0.4680
@<TRIPOS>BOND
     1    13    11    1
     2    13    14    1
     3     9    11    2
     4     9     7    1
     5    11    10    1
     6     7     6    2
     7    14    12    1
     8    10    12    1
     9    10     8    2
    10     6     8    1
    11     6     5    1
    12     5     1    1
    13     1     2    1
    14     2     4    2
    15     2     3    1
