MODEL 1
REMARK VINA RESULT:      -7.5      0.000      0.000
REMARK SMILES CC(=O)CCc1ccc2c(c1)OCO2
REMARK SMILES IDX 4 1 2 2 1 3 3 4 5 5 6 6 7 7 11 8 8 9 10 10 9 11 12 12 14 13
REMARK SMILES IDX 13 14
REMARK H PARENT
REMARK Flexibility Score: inf
ROOT
ATOM      1  C   UNL     1       5.562   1.889   1.284  1.00  0.00     0.080 C 
ENDROOT
BRANCH   1   2
ATOM      2  C   UNL     1       5.139   0.663   2.018  1.00  0.00     0.130 C 
ATOM      3  C   UNL     1       6.059  -0.491   2.205  1.00  0.00     0.087 C 
ATOM      4  O   UNL     1       4.018   0.570   2.489  1.00  0.00    -0.300 OA
ENDBRANCH   1   2
BRANCH   1   5
ATOM      5  C   UNL     1       5.424   1.708  -0.214  1.00  0.00     0.043 C 
BRANCH   5   6
ATOM      6  C   UNL     1       6.584   1.004  -0.789  1.00  0.00    -0.044 A 
ATOM      7  C   UNL     1       7.894   1.439  -0.559  1.00  0.00     0.008 A 
ATOM      8  C   UNL     1       6.386  -0.112  -1.571  1.00  0.00     0.054 A 
ATOM      9  C   UNL     1       8.943   0.738  -1.123  1.00  0.00     0.051 A 
ATOM     10  C   UNL     1       7.450  -0.818  -2.139  1.00  0.00     0.166 A 
ATOM     11  C   UNL     1       8.740  -0.389  -1.914  1.00  0.00     0.165 A 
ATOM     12  O   UNL     1       7.514  -1.938  -2.941  1.00  0.00    -0.454 OA
ATOM     13  O   UNL     1       9.576  -1.265  -2.588  1.00  0.00    -0.454 OA
ATOM     14  C   UNL     1       8.846  -2.314  -3.178  1.00  0.00     0.468 C 
ENDBRANCH   5   6
ENDBRANCH   1   5
TORSDOF 3
ENDMDL
MODEL 2
REMARK VINA RESULT:      -7.2      1.903      2.350
REMARK SMILES CC(=O)CCc1ccc2c(c1)OCO2
REMARK SMILES IDX 4 1 2 2 1 3 3 4 5 5 6 6 7 7 11 8 8 9 10 10 9 11 12 12 14 13
REMARK SMILES IDX 13 14
REMARK H PARENT
REMARK Flexibility Score: inf
ROOT
ATOM      1  C   UNL     1       5.742   1.375  -0.283  1.00  0.00     0.080 C 
ENDROOT
BRANCH   1   2
ATOM      2  C   UNL     1       5.133   1.270   1.073  1.00  0.00     0.130 C 
ATOM      3  C   UNL     1       5.385   0.099   1.954  1.00  0.00     0.087 C 
ATOM      4  O   UNL     1       4.403   2.150   1.502  1.00  0.00    -0.300 OA
ENDBRANCH   1   2
BRANCH   1   5
ATOM      5  C   UNL     1       7.238   1.138  -0.234  1.00  0.00     0.043 C 
BRANCH   5   6
ATOM      6  C   UNL     1       7.607  -0.151  -0.846  1.00  0.00    -0.044 A 
ATOM      7  C   UNL     1       7.681  -0.309  -2.234  1.00  0.00     0.008 A 
ATOM      8  C   UNL     1       7.891  -1.232  -0.042  1.00  0.00     0.054 A 
ATOM      9  C   UNL     1       8.033  -1.542  -2.752  1.00  0.00     0.051 A 
ATOM     10  C   UNL     1       8.248  -2.476  -0.570  1.00  0.00     0.166 A 
ATOM     11  C   UNL     1       8.319  -2.632  -1.936  1.00  0.00     0.165 A 
ATOM     12  O   UNL     1       8.571  -3.685   0.009  1.00  0.00    -0.454 OA
ATOM     13  O   UNL     1       8.690  -3.947  -2.170  1.00  0.00    -0.454 OA
ATOM     14  C   UNL     1       8.948  -4.625  -0.964  1.00  0.00     0.468 C 
ENDBRANCH   5   6
ENDBRANCH   1   5
TORSDOF 3
ENDMDL
MODEL 3
REMARK VINA RESULT:      -7.0      1.954      2.515
REMARK SMILES CC(=O)CCc1ccc2c(c1)OCO2
REMARK SMILES IDX 4 1 2 2 1 3 3 4 5 5 6 6 7 7 11 8 8 9 10 10 9 11 12 12 14 13
REMARK SMILES IDX 13 14
REMARK H PARENT
REMARK Flexibility Score: inf
ROOT
ATOM      1  C   UNL     1       6.912   0.831   1.325  1.00  0.00     0.080 C 
ENDROOT
BRANCH   1   2
ATOM      2  C   UNL     1       5.461   1.094   1.535  1.00  0.00     0.130 C 
ATOM      3  C   UNL     1       4.741   2.150   0.774  1.00  0.00     0.087 C 
ATOM      4  O   UNL     1       4.817   0.446   2.344  1.00  0.00    -0.300 OA
ENDBRANCH   1   2
BRANCH   1   5
ATOM      5  C   UNL     1       7.300   1.014  -0.129  1.00  0.00     0.043 C 
BRANCH   5   6
ATOM      6  C   UNL     1       7.629  -0.271  -0.772  1.00  0.00    -0.044 A 
ATOM      7  C   UNL     1       7.622  -0.417  -2.164  1.00  0.00     0.008 A 
ATOM      8  C   UNL     1       7.955  -1.359   0.005  1.00  0.00     0.054 A 
ATOM      9  C   UNL     1       7.940  -1.647  -2.711  1.00  0.00     0.051 A 
ATOM     10  C   UNL     1       8.276  -2.600  -0.553  1.00  0.00     0.166 A 
ATOM     11  C   UNL     1       8.268  -2.745  -1.922  1.00  0.00     0.165 A 
ATOM     12  O   UNL     1       8.628  -3.815  -0.004  1.00  0.00    -0.454 OA
ATOM     13  O   UNL     1       8.620  -4.059  -2.188  1.00  0.00    -0.454 OA
ATOM     14  C   UNL     1       8.945  -4.748  -1.004  1.00  0.00     0.468 C 
ENDBRANCH   5   6
ENDBRANCH   1   5
TORSDOF 3
ENDMDL
MODEL 4
REMARK VINA RESULT:      -7.0      1.221      1.399
REMARK SMILES CC(=O)CCc1ccc2c(c1)OCO2
REMARK SMILES IDX 4 1 2 2 1 3 3 4 5 5 6 6 7 7 11 8 8 9 10 10 9 11 12 12 14 13
REMARK SMILES IDX 13 14
REMARK H PARENT
REMARK Flexibility Score: inf
ROOT
ATOM      1  C   UNL     1       6.327   1.281   0.855  1.00  0.00     0.080 C 
ENDROOT
BRANCH   1   2
ATOM      2  C   UNL     1       5.661   0.444   1.892  1.00  0.00     0.130 C 
ATOM      3  C   UNL     1       6.319  -0.762   2.463  1.00  0.00     0.087 C 
ATOM      4  O   UNL     1       4.548   0.726   2.305  1.00  0.00    -0.300 OA
ENDBRANCH   1   2
BRANCH   1   5
ATOM      5  C   UNL     1       5.823   0.942  -0.533  1.00  0.00     0.043 C 
BRANCH   5   6
ATOM      6  C   UNL     1       6.794   0.127  -1.284  1.00  0.00    -0.044 A 
ATOM      7  C   UNL     1       7.528   0.659  -2.351  1.00  0.00     0.008 A 
ATOM      8  C   UNL     1       6.995  -1.189  -0.935  1.00  0.00     0.054 A 
ATOM      9  C   UNL     1       8.426  -0.153  -3.018  1.00  0.00     0.051 A 
ATOM     10  C   UNL     1       7.905  -2.006  -1.613  1.00  0.00     0.166 A 
ATOM     11  C   UNL     1       8.627  -1.484  -2.663  1.00  0.00     0.165 A 
ATOM     12  O   UNL     1       8.279  -3.324  -1.460  1.00  0.00    -0.454 OA
ATOM     13  O   UNL     1       9.437  -2.503  -3.138  1.00  0.00    -0.454 OA
ATOM     14  C   UNL     1       9.315  -3.660  -2.347  1.00  0.00     0.468 C 
ENDBRANCH   5   6
ENDBRANCH   1   5
TORSDOF 3
ENDMDL
MODEL 5
REMARK VINA RESULT:      -6.8      1.185      5.220
REMARK SMILES CC(=O)CCc1ccc2c(c1)OCO2
REMARK SMILES IDX 4 1 2 2 1 3 3 4 5 5 6 6 7 7 11 8 8 9 10 10 9 11 12 12 14 13
REMARK SMILES IDX 13 14
REMARK H PARENT
REMARK Flexibility Score: inf
ROOT
ATOM      1  C   UNL     1       8.275   0.152  -2.606  1.00  0.00     0.080 C 
ENDROOT
BRANCH   1   2
ATOM      2  C   UNL     1       8.037  -1.313  -2.725  1.00  0.00     0.130 C 
ATOM      3  C   UNL     1       9.151  -2.268  -2.969  1.00  0.00     0.087 C 
ATOM      4  O   UNL     1       6.912  -1.775  -2.624  1.00  0.00    -0.300 OA
ENDBRANCH   1   2
BRANCH   1   5
ATOM      5  C   UNL     1       8.794   0.516  -1.229  1.00  0.00     0.043 C 
BRANCH   5   6
ATOM      6  C   UNL     1       7.724   0.484  -0.216  1.00  0.00    -0.044 A 
ATOM      7  C   UNL     1       7.748  -0.426   0.847  1.00  0.00     0.008 A 
ATOM      8  C   UNL     1       6.673   1.368  -0.306  1.00  0.00     0.054 A 
ATOM      9  C   UNL     1       6.717  -0.409   1.769  1.00  0.00     0.051 A 
ATOM     10  C   UNL     1       5.633   1.381   0.629  1.00  0.00     0.166 A 
ATOM     11  C   UNL     1       5.655   0.485   1.674  1.00  0.00     0.165 A 
ATOM     12  O   UNL     1       4.494   2.148   0.756  1.00  0.00    -0.454 OA
ATOM     13  O   UNL     1       4.518   0.723   2.430  1.00  0.00    -0.454 OA
ATOM     14  C   UNL     1       3.801   1.829   1.935  1.00  0.00     0.468 C 
ENDBRANCH   5   6
ENDBRANCH   1   5
TORSDOF 3
ENDMDL
