@<TRIPOS>MOLECULE
/home/cewinharhar/GITHUB/reincatalyze/data/processed/docking_pred/2023-May-24-1506_sub9_nm5_bs15_s42_ex16_mel10_mts10000_k50_ec02_g099_lra3e-4_lrc3e-3/9f92c22f58037dfd31510195396f5f62a4e9f4e3_ligand_9.pdbqt
 14 15 0 0 0
SMALL
GASTEIGER

@<TRIPOS>ATOM
      1  C          5.5620    1.8890    1.2840 C.3     1  UNL1        0.0800
      2  C          5.1390    0.6630    2.0180 C.2     1  UNL1        0.1300
      3  C          6.0590   -0.4910    2.2050 C.3     1  UNL1        0.0870
      4  O          4.0180    0.5700    2.4890 O.2     1  UNL1       -0.3000
      5  C          5.4240    1.7080   -0.2140 C.3     1  UNL1        0.0430
      6  C          6.5840    1.0040   -0.7890 C.2     1  UNL1       -0.0440
      7  C          7.8940    1.4390   -0.5590 C.2     1  UNL1        0.0080
      8  C          6.3860   -0.1120   -1.5710 C.2     1  UNL1        0.0540
      9  C          8.9430    0.7380   -1.1230 C.2     1  UNL1        0.0510
     10  C          7.4500   -0.8180   -2.1390 C.2     1  UNL1        0.1660
     11  C          8.7400   -0.3890   -1.9140 C.2     1  UNL1        0.1650
     12  O          7.5140   -1.9380   -2.9410 O.2     1  UNL1       -0.4540
     13  O          9.5760   -1.2650   -2.5880 O.2     1  UNL1       -0.4540
     14  C          8.8460   -2.3140   -3.1780 C.3     1  UNL1        0.4680
@<TRIPOS>BOND
     1    14    12    1
     2    14    13    1
     3    12    10    1
     4    13    11    1
     5    10    11    2
     6    10     8    1
     7    11     9    1
     8     8     6    2
     9     9     7    2
    10     6     7    1
    11     6     5    1
    12     5     1    1
    13     1     2    1
    14     2     3    1
    15     2     4    2
