MODEL 1
REMARK VINA RESULT:      -7.6      0.000      0.000
REMARK SMILES CC(=O)CCc1ccc2c(c1)OCO2
REMARK SMILES IDX 4 1 2 2 1 3 3 4 5 5 6 6 7 7 11 8 8 9 10 10 9 11 12 12 14 13
REMARK SMILES IDX 13 14
REMARK H PARENT
REMARK Flexibility Score: inf
ROOT
ATOM      1  C   UNL     1       5.567   1.912   1.290  1.00  0.00     0.080 C 
ENDROOT
BRANCH   1   2
ATOM      2  C   UNL     1       5.116   0.696   2.023  1.00  0.00     0.130 C 
ATOM      3  C   UNL     1       6.005  -0.482   2.205  1.00  0.00     0.087 C 
ATOM      4  O   UNL     1       3.994   0.632   2.499  1.00  0.00    -0.300 OA
ENDBRANCH   1   2
BRANCH   1   5
ATOM      5  C   UNL     1       5.433   1.732  -0.209  1.00  0.00     0.043 C 
BRANCH   5   6
ATOM      6  C   UNL     1       6.593   1.026  -0.781  1.00  0.00    -0.044 A 
ATOM      7  C   UNL     1       7.903   1.463  -0.552  1.00  0.00     0.008 A 
ATOM      8  C   UNL     1       6.396  -0.092  -1.559  1.00  0.00     0.054 A 
ATOM      9  C   UNL     1       8.953   0.759  -1.114  1.00  0.00     0.051 A 
ATOM     10  C   UNL     1       7.460  -0.800  -2.124  1.00  0.00     0.166 A 
ATOM     11  C   UNL     1       8.749  -0.370  -1.900  1.00  0.00     0.165 A 
ATOM     12  O   UNL     1       7.524  -1.923  -2.922  1.00  0.00    -0.454 OA
ATOM     13  O   UNL     1       9.587  -1.248  -2.572  1.00  0.00    -0.454 OA
ATOM     14  C   UNL     1       8.857  -2.299  -3.158  1.00  0.00     0.468 C 
ENDBRANCH   5   6
ENDBRANCH   1   5
TORSDOF 3
ENDMDL
MODEL 2
REMARK VINA RESULT:      -7.5      1.899      2.363
REMARK SMILES CC(=O)CCc1ccc2c(c1)OCO2
REMARK SMILES IDX 4 1 2 2 1 3 3 4 5 5 6 6 7 7 11 8 8 9 10 10 9 11 12 12 14 13
REMARK SMILES IDX 13 14
REMARK H PARENT
REMARK Flexibility Score: inf
ROOT
ATOM      1  C   UNL     1       5.769   1.418  -0.348  1.00  0.00     0.080 C 
ENDROOT
BRANCH   1   2
ATOM      2  C   UNL     1       5.096   1.309   0.976  1.00  0.00     0.130 C 
ATOM      3  C   UNL     1       5.374   0.180   1.903  1.00  0.00     0.087 C 
ATOM      4  O   UNL     1       4.290   2.150   1.340  1.00  0.00    -0.300 OA
ENDBRANCH   1   2
BRANCH   1   5
ATOM      5  C   UNL     1       7.255   1.142  -0.234  1.00  0.00     0.043 C 
BRANCH   5   6
ATOM      6  C   UNL     1       7.620  -0.147  -0.850  1.00  0.00    -0.044 A 
ATOM      7  C   UNL     1       7.676  -0.306  -2.239  1.00  0.00     0.008 A 
ATOM      8  C   UNL     1       7.918  -1.225  -0.048  1.00  0.00     0.054 A 
ATOM      9  C   UNL     1       8.026  -1.539  -2.760  1.00  0.00     0.051 A 
ATOM     10  C   UNL     1       8.272  -2.469  -0.579  1.00  0.00     0.166 A 
ATOM     11  C   UNL     1       8.326  -2.627  -1.946  1.00  0.00     0.165 A 
ATOM     12  O   UNL     1       8.607  -3.676  -0.003  1.00  0.00    -0.454 OA
ATOM     13  O   UNL     1       8.697  -3.941  -2.183  1.00  0.00    -0.454 OA
ATOM     14  C   UNL     1       8.974  -4.616  -0.980  1.00  0.00     0.468 C 
ENDBRANCH   5   6
ENDBRANCH   1   5
TORSDOF 3
ENDMDL
MODEL 3
REMARK VINA RESULT:      -7.2      2.078      2.638
REMARK SMILES CC(=O)CCc1ccc2c(c1)OCO2
REMARK SMILES IDX 4 1 2 2 1 3 3 4 5 5 6 6 7 7 11 8 8 9 10 10 9 11 12 12 14 13
REMARK SMILES IDX 13 14
REMARK H PARENT
REMARK Flexibility Score: inf
ROOT
ATOM      1  C   UNL     1       5.505  -0.048   1.952  1.00  0.00     0.080 C 
ENDROOT
BRANCH   1   2
ATOM      2  C   UNL     1       4.655   1.138   1.655  1.00  0.00     0.130 C 
ATOM      3  C   UNL     1       5.014   2.109   0.587  1.00  0.00     0.087 C 
ATOM      4  O   UNL     1       3.632   1.350   2.286  1.00  0.00    -0.300 OA
ENDBRANCH   1   2
BRANCH   1   5
ATOM      5  C   UNL     1       6.940   0.181   1.521  1.00  0.00     0.043 C 
BRANCH   5   6
ATOM      6  C   UNL     1       7.352  -0.765   0.469  1.00  0.00    -0.044 A 
ATOM      7  C   UNL     1       7.227  -0.451  -0.890  1.00  0.00     0.008 A 
ATOM      8  C   UNL     1       7.877  -1.988   0.819  1.00  0.00     0.054 A 
ATOM      9  C   UNL     1       7.631  -1.378  -1.833  1.00  0.00     0.051 A 
ATOM     10  C   UNL     1       8.285  -2.922  -0.139  1.00  0.00     0.166 A 
ATOM     11  C   UNL     1       8.161  -2.615  -1.475  1.00  0.00     0.165 A 
ATOM     12  O   UNL     1       8.828  -4.186  -0.047  1.00  0.00    -0.454 OA
ATOM     13  O   UNL     1       8.636  -3.707  -2.184  1.00  0.00    -0.454 OA
ATOM     14  C   UNL     1       9.152  -4.689  -1.317  1.00  0.00     0.468 C 
ENDBRANCH   5   6
ENDBRANCH   1   5
TORSDOF 3
ENDMDL
MODEL 4
REMARK VINA RESULT:      -7.1      1.248      1.455
REMARK SMILES CC(=O)CCc1ccc2c(c1)OCO2
REMARK SMILES IDX 4 1 2 2 1 3 3 4 5 5 6 6 7 7 11 8 8 9 10 10 9 11 12 12 14 13
REMARK SMILES IDX 13 14
REMARK H PARENT
REMARK Flexibility Score: inf
ROOT
ATOM      1  C   UNL     1       6.376   1.169   0.955  1.00  0.00     0.080 C 
ENDROOT
BRANCH   1   2
ATOM      2  C   UNL     1       5.637   0.355   1.961  1.00  0.00     0.130 C 
ATOM      3  C   UNL     1       6.226  -0.876   2.554  1.00  0.00     0.087 C 
ATOM      4  O   UNL     1       4.519   0.677   2.329  1.00  0.00    -0.300 OA
ENDBRANCH   1   2
BRANCH   1   5
ATOM      5  C   UNL     1       5.867   0.904  -0.448  1.00  0.00     0.043 C 
BRANCH   5   6
ATOM      6  C   UNL     1       6.812   0.086  -1.228  1.00  0.00    -0.044 A 
ATOM      7  C   UNL     1       7.484   0.603  -2.342  1.00  0.00     0.008 A 
ATOM      8  C   UNL     1       7.051  -1.219  -0.859  1.00  0.00     0.054 A 
ATOM      9  C   UNL     1       8.361  -0.212  -3.034  1.00  0.00     0.051 A 
ATOM     10  C   UNL     1       7.939  -2.038  -1.562  1.00  0.00     0.166 A 
ATOM     11  C   UNL     1       8.599  -1.531  -2.658  1.00  0.00     0.165 A 
ATOM     12  O   UNL     1       8.340  -3.347  -1.398  1.00  0.00    -0.454 OA
ATOM     13  O   UNL     1       9.401  -2.549  -3.150  1.00  0.00    -0.454 OA
ATOM     14  C   UNL     1       9.336  -3.689  -2.327  1.00  0.00     0.468 C 
ENDBRANCH   5   6
ENDBRANCH   1   5
TORSDOF 3
ENDMDL
MODEL 5
REMARK VINA RESULT:      -7.0      1.939      2.526
REMARK SMILES CC(=O)CCc1ccc2c(c1)OCO2
REMARK SMILES IDX 4 1 2 2 1 3 3 4 5 5 6 6 7 7 11 8 8 9 10 10 9 11 12 12 14 13
REMARK SMILES IDX 13 14
REMARK H PARENT
REMARK Flexibility Score: inf
ROOT
ATOM      1  C   UNL     1       6.968   0.941   1.237  1.00  0.00     0.080 C 
ENDROOT
BRANCH   1   2
ATOM      2  C   UNL     1       5.515   1.210   1.423  1.00  0.00     0.130 C 
ATOM      3  C   UNL     1       4.775   2.150   0.539  1.00  0.00     0.087 C 
ATOM      4  O   UNL     1       4.885   0.663   2.314  1.00  0.00    -0.300 OA
ENDBRANCH   1   2
BRANCH   1   5
ATOM      5  C   UNL     1       7.373   1.088  -0.216  1.00  0.00     0.043 C 
BRANCH   5   6
ATOM      6  C   UNL     1       7.679  -0.215  -0.833  1.00  0.00    -0.044 A 
ATOM      7  C   UNL     1       7.657  -0.392  -2.221  1.00  0.00     0.008 A 
ATOM      8  C   UNL     1       7.997  -1.290  -0.034  1.00  0.00     0.054 A 
ATOM      9  C   UNL     1       7.953  -1.638  -2.744  1.00  0.00     0.051 A 
ATOM     10  C   UNL     1       8.296  -2.547  -0.568  1.00  0.00     0.166 A 
ATOM     11  C   UNL     1       8.274  -2.723  -1.933  1.00  0.00     0.165 A 
ATOM     12  O   UNL     1       8.636  -3.754   0.006  1.00  0.00    -0.454 OA
ATOM     13  O   UNL     1       8.605  -4.047  -2.173  1.00  0.00    -0.454 OA
ATOM     14  C   UNL     1       8.931  -4.714  -0.977  1.00  0.00     0.468 C 
ENDBRANCH   5   6
ENDBRANCH   1   5
TORSDOF 3
ENDMDL
