@<TRIPOS>MOLECULE
/home/cewinharhar/GITHUB/reincatalyze/data/processed/docking_pred/2023-May-24-1506_sub9_nm5_bs15_s42_ex16_mel10_mts10000_k50_ec02_g099_lra3e-4_lrc3e-3/a027351e9022af1b82e1e615341a78a8d8671440_ligand_9.pdbqt
 14 15 0 0 0
SMALL
GASTEIGER

@<TRIPOS>ATOM
      1  C          5.7690    1.4180   -0.3480 C.3     1  UNL1        0.0800
      2  C          5.0960    1.3090    0.9760 C.2     1  UNL1        0.1300
      3  C          5.3740    0.1800    1.9030 C.3     1  UNL1        0.0870
      4  O          4.2900    2.1500    1.3400 O.2     1  UNL1       -0.3000
      5  C          7.2550    1.1420   -0.2340 C.3     1  UNL1        0.0430
      6  C          7.6200   -0.1470   -0.8500 C.2     1  UNL1       -0.0440
      7  C          7.6760   -0.3060   -2.2390 C.2     1  UNL1        0.0080
      8  C          7.9180   -1.2250   -0.0480 C.2     1  UNL1        0.0540
      9  C          8.0260   -1.5390   -2.7600 C.2     1  UNL1        0.0510
     10  C          8.2720   -2.4690   -0.5790 C.2     1  UNL1        0.1660
     11  C          8.3260   -2.6270   -1.9460 C.2     1  UNL1        0.1650
     12  O          8.6070   -3.6760   -0.0030 O.2     1  UNL1       -0.4540
     13  O          8.6970   -3.9410   -2.1830 O.2     1  UNL1       -0.4540
     14  C          8.9740   -4.6160   -0.9800 C.3     1  UNL1        0.4680
@<TRIPOS>BOND
     1     9     7    1
     2     9    11    2
     3     7     6    2
     4    13    11    1
     5    13    14    1
     6    11    10    1
     7    14    12    1
     8     6     5    1
     9     6     8    1
    10    10     8    2
    11    10    12    1
    12     1     5    1
    13     1     2    1
    14     2     4    2
    15     2     3    1
