@<TRIPOS>MOLECULE
/home/cewinharhar/GITHUB/reincatalyze/data/processed/docking_pred/2023-May-24-1506_sub9_nm5_bs15_s42_ex16_mel10_mts10000_k50_ec02_g099_lra3e-4_lrc3e-3/a450f47ca4f24610d4ad642e19216dd37a68a7e2_ligand_9.pdbqt
 14 15 0 0 0
SMALL
GASTEIGER

@<TRIPOS>ATOM
      1  C          5.3860   -0.0860    2.0120 C.3     1  UNL1        0.0800
      2  C          4.5450    1.1190    1.7680 C.2     1  UNL1        0.1300
      3  C          4.8810    2.1040    0.7060 C.3     1  UNL1        0.0870
      4  O          3.5490    1.3350    2.4400 O.2     1  UNL1       -0.3000
      5  C          6.8280    0.1600    1.6150 C.3     1  UNL1        0.0430
      6  C          7.2630   -0.7530    0.5430 C.2     1  UNL1       -0.0440
      7  C          7.1400   -0.4090   -0.8080 C.2     1  UNL1        0.0080
      8  C          7.8060   -1.9760    0.8670 C.2     1  UNL1        0.0540
      9  C          7.5660   -1.3060   -1.7710 C.2     1  UNL1        0.0510
     10  C          8.2360   -2.8790   -0.1100 C.2     1  UNL1        0.1660
     11  C          8.1140   -2.5410   -1.4400 C.2     1  UNL1        0.1650
     12  O          8.7990   -4.1360   -0.0460 O.2     1  UNL1       -0.4540
     13  O          8.6120   -3.6080   -2.1710 O.2     1  UNL1       -0.4540
     14  C          9.1400   -4.6020   -1.3260 C.3     1  UNL1        0.4680
@<TRIPOS>BOND
     1    13    11    1
     2    13    14    1
     3     9    11    2
     4     9     7    1
     5    11    10    1
     6    14    12    1
     7     7     6    2
     8    10    12    1
     9    10     8    2
    10     6     8    1
    11     6     5    1
    12     3     2    1
    13     5     1    1
    14     2     1    1
    15     2     4    2
