@<TRIPOS>MOLECULE
/home/cewinharhar/GITHUB/reincatalyze/data/processed/docking_pred/2023-May-24-1506_sub9_nm5_bs15_s42_ex16_mel10_mts10000_k50_ec02_g099_lra3e-4_lrc3e-3/a450f47ca4f24610d4ad642e19216dd37a68a7e2_ligand_9.pdbqt
 14 15 0 0 0
SMALL
GASTEIGER

@<TRIPOS>ATOM
      1  C          5.7800    1.5100   -0.2340 C.3     1  UNL1        0.0800
      2  C          5.1220    1.3230    1.0890 C.2     1  UNL1        0.1300
      3  C          5.5140    0.2210    2.0070 C.3     1  UNL1        0.0870
      4  O          4.2350    2.0750    1.4590 O.2     1  UNL1       -0.3000
      5  C          7.2660    1.2200   -0.1550 C.3     1  UNL1        0.0430
      6  C          7.6120   -0.0470   -0.8240 C.2     1  UNL1       -0.0440
      7  C          7.6370   -0.1560   -2.2190 C.2     1  UNL1        0.0080
      8  C          7.9230   -1.1540   -0.0680 C.2     1  UNL1        0.0540
      9  C          7.9700   -1.3700   -2.7910 C.2     1  UNL1        0.0510
     10  C          8.2590   -2.3800   -0.6510 C.2     1  UNL1        0.1660
     11  C          8.2830   -2.4880   -2.0240 C.2     1  UNL1        0.1650
     12  O          8.6010   -3.6080   -0.1260 O.2     1  UNL1       -0.4540
     13  O          8.6440   -3.7950   -2.3160 O.2     1  UNL1       -0.4540
     14  C          8.9430   -4.5140   -1.1440 C.3     1  UNL1        0.4680
@<TRIPOS>BOND
     1     9     7    1
     2     9    11    2
     3    13    11    1
     4    13    14    1
     5     7     6    2
     6    11    10    1
     7    14    12    1
     8     6     5    1
     9     6     8    1
    10    10    12    1
    11    10     8    2
    12     1     5    1
    13     1     2    1
    14     2     4    2
    15     2     3    1
