MODEL 1
REMARK VINA RESULT:      -7.7      0.000      0.000
REMARK SMILES CC(=O)CCc1ccc2c(c1)OCO2
REMARK SMILES IDX 4 1 2 2 1 3 3 4 5 5 6 6 7 7 11 8 8 9 10 10 9 11 12 12 14 13
REMARK SMILES IDX 13 14
REMARK H PARENT
REMARK Flexibility Score: inf
ROOT
ATOM      1  C   UNL     1       5.509   1.926   1.249  1.00  0.00     0.080 C 
ENDROOT
BRANCH   1   2
ATOM      2  C   UNL     1       5.026   0.727   1.990  1.00  0.00     0.130 C 
ATOM      3  C   UNL     1       5.856  -0.500   2.116  1.00  0.00     0.087 C 
ATOM      4  O   UNL     1       3.925   0.718   2.518  1.00  0.00    -0.300 OA
ENDBRANCH   1   2
BRANCH   1   5
ATOM      5  C   UNL     1       5.390   1.731  -0.249  1.00  0.00     0.043 C 
BRANCH   5   6
ATOM      6  C   UNL     1       6.562   1.030  -0.804  1.00  0.00    -0.044 A 
ATOM      7  C   UNL     1       7.867   1.460  -0.540  1.00  0.00     0.008 A 
ATOM      8  C   UNL     1       6.379  -0.078  -1.600  1.00  0.00     0.054 A 
ATOM      9  C   UNL     1       8.928   0.762  -1.087  1.00  0.00     0.051 A 
ATOM     10  C   UNL     1       7.455  -0.781  -2.151  1.00  0.00     0.166 A 
ATOM     11  C   UNL     1       8.740  -0.358  -1.893  1.00  0.00     0.165 A 
ATOM     12  O   UNL     1       7.534  -1.894  -2.962  1.00  0.00    -0.454 OA
ATOM     13  O   UNL     1       9.590  -1.229  -2.556  1.00  0.00    -0.454 OA
ATOM     14  C   UNL     1       8.871  -2.271  -3.171  1.00  0.00     0.468 C 
ENDBRANCH   5   6
ENDBRANCH   1   5
TORSDOF 3
ENDMDL
MODEL 2
REMARK VINA RESULT:      -7.4      1.827      2.270
REMARK SMILES CC(=O)CCc1ccc2c(c1)OCO2
REMARK SMILES IDX 4 1 2 2 1 3 3 4 5 5 6 6 7 7 11 8 8 9 10 10 9 11 12 12 14 13
REMARK SMILES IDX 13 14
REMARK H PARENT
REMARK Flexibility Score: inf
ROOT
ATOM      1  C   UNL     1       5.780   1.510  -0.234  1.00  0.00     0.080 C 
ENDROOT
BRANCH   1   2
ATOM      2  C   UNL     1       5.122   1.323   1.089  1.00  0.00     0.130 C 
ATOM      3  C   UNL     1       5.514   0.221   2.007  1.00  0.00     0.087 C 
ATOM      4  O   UNL     1       4.235   2.075   1.459  1.00  0.00    -0.300 OA
ENDBRANCH   1   2
BRANCH   1   5
ATOM      5  C   UNL     1       7.266   1.220  -0.155  1.00  0.00     0.043 C 
BRANCH   5   6
ATOM      6  C   UNL     1       7.612  -0.047  -0.824  1.00  0.00    -0.044 A 
ATOM      7  C   UNL     1       7.637  -0.156  -2.219  1.00  0.00     0.008 A 
ATOM      8  C   UNL     1       7.923  -1.154  -0.068  1.00  0.00     0.054 A 
ATOM      9  C   UNL     1       7.970  -1.370  -2.791  1.00  0.00     0.051 A 
ATOM     10  C   UNL     1       8.259  -2.380  -0.651  1.00  0.00     0.166 A 
ATOM     11  C   UNL     1       8.283  -2.488  -2.024  1.00  0.00     0.165 A 
ATOM     12  O   UNL     1       8.601  -3.608  -0.126  1.00  0.00    -0.454 OA
ATOM     13  O   UNL     1       8.644  -3.795  -2.316  1.00  0.00    -0.454 OA
ATOM     14  C   UNL     1       8.943  -4.514  -1.144  1.00  0.00     0.468 C 
ENDBRANCH   5   6
ENDBRANCH   1   5
TORSDOF 3
ENDMDL
MODEL 3
REMARK VINA RESULT:      -7.2      2.055      2.627
REMARK SMILES CC(=O)CCc1ccc2c(c1)OCO2
REMARK SMILES IDX 4 1 2 2 1 3 3 4 5 5 6 6 7 7 11 8 8 9 10 10 9 11 12 12 14 13
REMARK SMILES IDX 13 14
REMARK H PARENT
REMARK Flexibility Score: inf
ROOT
ATOM      1  C   UNL     1       5.386  -0.086   2.012  1.00  0.00     0.080 C 
ENDROOT
BRANCH   1   2
ATOM      2  C   UNL     1       4.545   1.119   1.768  1.00  0.00     0.130 C 
ATOM      3  C   UNL     1       4.881   2.104   0.706  1.00  0.00     0.087 C 
ATOM      4  O   UNL     1       3.549   1.335   2.440  1.00  0.00    -0.300 OA
ENDBRANCH   1   2
BRANCH   1   5
ATOM      5  C   UNL     1       6.828   0.160   1.615  1.00  0.00     0.043 C 
BRANCH   5   6
ATOM      6  C   UNL     1       7.263  -0.753   0.543  1.00  0.00    -0.044 A 
ATOM      7  C   UNL     1       7.140  -0.409  -0.808  1.00  0.00     0.008 A 
ATOM      8  C   UNL     1       7.806  -1.976   0.867  1.00  0.00     0.054 A 
ATOM      9  C   UNL     1       7.566  -1.306  -1.771  1.00  0.00     0.051 A 
ATOM     10  C   UNL     1       8.236  -2.879  -0.110  1.00  0.00     0.166 A 
ATOM     11  C   UNL     1       8.114  -2.541  -1.440  1.00  0.00     0.165 A 
ATOM     12  O   UNL     1       8.799  -4.136  -0.046  1.00  0.00    -0.454 OA
ATOM     13  O   UNL     1       8.612  -3.608  -2.171  1.00  0.00    -0.454 OA
ATOM     14  C   UNL     1       9.140  -4.602  -1.326  1.00  0.00     0.468 C 
ENDBRANCH   5   6
ENDBRANCH   1   5
TORSDOF 3
ENDMDL
MODEL 4
REMARK VINA RESULT:      -7.1      1.268      1.481
REMARK SMILES CC(=O)CCc1ccc2c(c1)OCO2
REMARK SMILES IDX 4 1 2 2 1 3 3 4 5 5 6 6 7 7 11 8 8 9 10 10 9 11 12 12 14 13
REMARK SMILES IDX 13 14
REMARK H PARENT
REMARK Flexibility Score: inf
ROOT
ATOM      1  C   UNL     1       6.378   1.186   0.944  1.00  0.00     0.080 C 
ENDROOT
BRANCH   1   2
ATOM      2  C   UNL     1       5.651   0.365   1.952  1.00  0.00     0.130 C 
ATOM      3  C   UNL     1       6.251  -0.863   2.538  1.00  0.00     0.087 C 
ATOM      4  O   UNL     1       4.533   0.680   2.327  1.00  0.00    -0.300 OA
ENDBRANCH   1   2
BRANCH   1   5
ATOM      5  C   UNL     1       5.870   0.914  -0.458  1.00  0.00     0.043 C 
BRANCH   5   6
ATOM      6  C   UNL     1       6.817   0.092  -1.233  1.00  0.00    -0.044 A 
ATOM      7  C   UNL     1       7.496   0.607  -2.343  1.00  0.00     0.008 A 
ATOM      8  C   UNL     1       7.048  -1.213  -0.864  1.00  0.00     0.054 A 
ATOM      9  C   UNL     1       8.373  -0.210  -3.032  1.00  0.00     0.051 A 
ATOM     10  C   UNL     1       7.937  -2.036  -1.563  1.00  0.00     0.166 A 
ATOM     11  C   UNL     1       8.605  -1.530  -2.656  1.00  0.00     0.165 A 
ATOM     12  O   UNL     1       8.333  -3.346  -1.398  1.00  0.00    -0.454 OA
ATOM     13  O   UNL     1       9.406  -2.551  -3.144  1.00  0.00    -0.454 OA
ATOM     14  C   UNL     1       9.332  -3.691  -2.322  1.00  0.00     0.468 C 
ENDBRANCH   5   6
ENDBRANCH   1   5
TORSDOF 3
ENDMDL
MODEL 5
REMARK VINA RESULT:      -6.8      1.195      5.175
REMARK SMILES CC(=O)CCc1ccc2c(c1)OCO2
REMARK SMILES IDX 4 1 2 2 1 3 3 4 5 5 6 6 7 7 11 8 8 9 10 10 9 11 12 12 14 13
REMARK SMILES IDX 13 14
REMARK H PARENT
REMARK Flexibility Score: inf
ROOT
ATOM      1  C   UNL     1       8.348   0.189  -2.676  1.00  0.00     0.080 C 
ENDROOT
BRANCH   1   2
ATOM      2  C   UNL     1       8.058  -1.270  -2.766  1.00  0.00     0.130 C 
ATOM      3  C   UNL     1       9.131  -2.264  -3.032  1.00  0.00     0.087 C 
ATOM      4  O   UNL     1       6.922  -1.693  -2.622  1.00  0.00    -0.300 OA
ENDBRANCH   1   2
BRANCH   1   5
ATOM      5  C   UNL     1       8.876   0.561  -1.305  1.00  0.00     0.043 C 
BRANCH   5   6
ATOM      6  C   UNL     1       7.843   0.420  -0.264  1.00  0.00    -0.044 A 
ATOM      7  C   UNL     1       7.951  -0.537   0.752  1.00  0.00     0.008 A 
ATOM      8  C   UNL     1       6.742   1.246  -0.279  1.00  0.00     0.054 A 
ATOM      9  C   UNL     1       6.950  -0.623   1.703  1.00  0.00     0.051 A 
ATOM     10  C   UNL     1       5.733   1.156   0.685  1.00  0.00     0.166 A 
ATOM     11  C   UNL     1       5.838   0.213   1.684  1.00  0.00     0.165 A 
ATOM     12  O   UNL     1       4.558   1.849   0.883  1.00  0.00    -0.454 OA
ATOM     13  O   UNL     1       4.714   0.350   2.484  1.00  0.00    -0.454 OA
ATOM     14  C   UNL     1       3.921   1.435   2.065  1.00  0.00     0.468 C 
ENDBRANCH   5   6
ENDBRANCH   1   5
TORSDOF 3
ENDMDL
