@<TRIPOS>MOLECULE
/home/cewinharhar/GITHUB/reincatalyze/data/processed/docking_pred/2023-May-24-1506_sub9_nm5_bs15_s42_ex16_mel10_mts10000_k50_ec02_g099_lra3e-4_lrc3e-3/a5b16c92fd7591d551db5a31bdb9c28d24e6a5b8_ligand_9.pdbqt
 14 15 0 0 0
SMALL
GASTEIGER

@<TRIPOS>ATOM
      1  C          5.4040   -0.0540    2.0240 C.3     1  UNL1        0.0800
      2  C          4.5580    1.1440    1.7690 C.2     1  UNL1        0.1300
      3  C          4.9020    2.1310    0.7100 C.3     1  UNL1        0.0870
      4  O          3.5510    1.3530    2.4260 O.2     1  UNL1       -0.3000
      5  C          6.8440    0.1910    1.6160 C.3     1  UNL1        0.0430
      6  C          7.2730   -0.7300    0.5490 C.2     1  UNL1       -0.0440
      7  C          7.1520   -0.3910   -0.8040 C.2     1  UNL1        0.0080
      8  C          7.8110   -1.9530    0.8780 C.2     1  UNL1        0.0540
      9  C          7.5730   -1.2950   -1.7620 C.2     1  UNL1        0.0510
     10  C          8.2360   -2.8630   -0.0940 C.2     1  UNL1        0.1660
     11  C          8.1150   -2.5310   -1.4260 C.2     1  UNL1        0.1650
     12  O          8.7940   -4.1220   -0.0240 O.2     1  UNL1       -0.4540
     13  O          8.6080   -3.6040   -2.1520 O.2     1  UNL1       -0.4540
     14  C          9.1320   -4.5960   -1.3020 C.3     1  UNL1        0.4680
@<TRIPOS>BOND
     1    13    11    1
     2    13    14    1
     3     9    11    2
     4     9     7    1
     5    11    10    1
     6    14    12    1
     7     7     6    2
     8    10    12    1
     9    10     8    2
    10     6     8    1
    11     6     5    1
    12     3     2    1
    13     5     1    1
    14     2     1    1
    15     2     4    2
