@<TRIPOS>MOLECULE
/home/cewinharhar/GITHUB/reincatalyze/data/processed/docking_pred/2023-May-24-1506_sub9_nm5_bs15_s42_ex16_mel10_mts10000_k50_ec02_g099_lra3e-4_lrc3e-3/a614218f6e6a1b7d791f470f20b1a009abdeaae3_ligand_9.pdbqt
 14 15 0 0 0
SMALL
GASTEIGER

@<TRIPOS>ATOM
      1  C          5.5170    0.0040    1.9610 C.3     1  UNL1        0.0800
      2  C          4.6450    1.1720    1.6500 C.2     1  UNL1        0.1300
      3  C          4.9720    2.1200    0.5520 C.3     1  UNL1        0.0870
      4  O          3.6310    1.3840    2.2940 O.2     1  UNL1       -0.3000
      5  C          6.9430    0.2460    1.5050 C.3     1  UNL1        0.0430
      6  C          7.3520   -0.7100    0.4610 C.2     1  UNL1       -0.0440
      7  C          7.2360   -0.4030   -0.9000 C.2     1  UNL1        0.0080
      8  C          7.8640   -1.9350    0.8200 C.2     1  UNL1        0.0540
      9  C          7.6370   -1.3390   -1.8360 C.2     1  UNL1        0.0510
     10  C          8.2690   -2.8780   -0.1290 C.2     1  UNL1        0.1660
     11  C          8.1540   -2.5770   -1.4680 C.2     1  UNL1        0.1650
     12  O          8.8010   -4.1460   -0.0270 O.2     1  UNL1       -0.4540
     13  O          8.6230   -3.6780   -2.1680 O.2     1  UNL1       -0.4540
     14  C          9.1270   -4.6590   -1.2940 C.3     1  UNL1        0.4680
@<TRIPOS>BOND
     1    13    11    1
     2    13    14    1
     3     9    11    2
     4     9     7    1
     5    11    10    1
     6    14    12    1
     7     7     6    2
     8    10    12    1
     9    10     8    2
    10     6     8    1
    11     6     5    1
    12     3     2    1
    13     5     1    1
    14     2     1    1
    15     2     4    2
