@<TRIPOS>MOLECULE
/home/cewinharhar/GITHUB/reincatalyze/data/processed/docking_pred/2023-May-24-1506_sub9_nm5_bs15_s42_ex16_mel10_mts10000_k50_ec02_g099_lra3e-4_lrc3e-3/a614218f6e6a1b7d791f470f20b1a009abdeaae3_ligand_9.pdbqt
 14 15 0 0 0
SMALL
GASTEIGER

@<TRIPOS>ATOM
      1  C          5.6860    1.3880   -0.3290 C.3     1  UNL1        0.0800
      2  C          5.1130    1.2810    1.0410 C.2     1  UNL1        0.1300
      3  C          5.4080    0.1200    1.9230 C.3     1  UNL1        0.0870
      4  O          4.3780    2.1500    1.4830 O.2     1  UNL1       -0.3000
      5  C          7.1870    1.1790   -0.3160 C.3     1  UNL1        0.0430
      6  C          7.5650   -0.1110   -0.9210 C.2     1  UNL1       -0.0440
      7  C          7.6140   -0.2840   -2.3090 C.2     1  UNL1        0.0080
      8  C          7.8820   -1.1770   -0.1100 C.2     1  UNL1        0.0540
      9  C          7.9760   -1.5170   -2.8190 C.2     1  UNL1        0.0510
     10  C          8.2480   -2.4220   -0.6310 C.2     1  UNL1        0.1660
     11  C          8.2950   -2.5930   -1.9970 C.2     1  UNL1        0.1650
     12  O          8.6020   -3.6190   -0.0450 O.2     1  UNL1       -0.4540
     13  O          8.6810   -3.9050   -2.2240 O.2     1  UNL1       -0.4540
     14  C          8.9740   -4.5640   -1.0150 C.3     1  UNL1        0.4680
@<TRIPOS>BOND
     1     9     7    1
     2     9    11    2
     3     7     6    2
     4    13    11    1
     5    13    14    1
     6    11    10    1
     7    14    12    1
     8     6     5    1
     9     6     8    1
    10    10     8    2
    11    10    12    1
    12     1     5    1
    13     1     2    1
    14     2     4    2
    15     2     3    1
