@<TRIPOS>MOLECULE
/home/cewinharhar/GITHUB/reincatalyze/data/processed/docking_pred/2023-May-24-1506_sub9_nm5_bs15_s42_ex16_mel10_mts10000_k50_ec02_g099_lra3e-4_lrc3e-3/a7c8c9f10e55c2841f25afbe7e611a3f864293db_ligand_9.pdbqt
 14 15 0 0 0
SMALL
GASTEIGER

@<TRIPOS>ATOM
      1  C          6.8040    0.7060    1.4460 C.3     1  UNL1        0.0800
      2  C          5.3870    1.1650    1.4900 C.2     1  UNL1        0.1300
      3  C          4.8550    2.1500    0.5110 C.3     1  UNL1        0.0870
      4  O          4.6180    0.7440    2.3390 O.2     1  UNL1       -0.3000
      5  C          7.4180    0.9490    0.0810 C.3     1  UNL1        0.0430
      6  C          7.7110   -0.3140   -0.6190 C.2     1  UNL1       -0.0440
      7  C          7.6820   -0.4020   -2.0150 C.2     1  UNL1        0.0080
      8  C          8.0240   -1.4410    0.1080 C.2     1  UNL1        0.0540
      9  C          7.9670   -1.6140   -2.6180 C.2     1  UNL1        0.0510
     10  C          8.3110   -2.6640   -0.5060 C.2     1  UNL1        0.1660
     11  C          8.2820   -2.7510   -1.8800 C.2     1  UNL1        0.1650
     12  O          8.6440   -3.9070   -0.0120 O.2     1  UNL1       -0.4540
     13  O          8.6020   -4.0600   -2.2050 O.2     1  UNL1       -0.4540
     14  C          8.9280   -4.8040   -1.0550 C.3     1  UNL1        0.4680
@<TRIPOS>BOND
     1     9     7    1
     2     9    11    2
     3    13    11    1
     4    13    14    1
     5     7     6    2
     6    11    10    1
     7    14    12    1
     8     6     5    1
     9     6     8    1
    10    10    12    1
    11    10     8    2
    12     5     1    1
    13     3     2    1
    14     1     2    1
    15     2     4    2
