@<TRIPOS>MOLECULE
/home/cewinharhar/GITHUB/reincatalyze/data/processed/docking_pred/2023-May-24-1506_sub9_nm5_bs15_s42_ex16_mel10_mts10000_k50_ec02_g099_lra3e-4_lrc3e-3/a7c8c9f10e55c2841f25afbe7e611a3f864293db_ligand_9.pdbqt
 14 15 0 0 0
SMALL
GASTEIGER

@<TRIPOS>ATOM
      1  C          5.5620    1.9130    1.2900 C.3     1  UNL1        0.0800
      2  C          5.1110    0.6950    2.0190 C.2     1  UNL1        0.1300
      3  C          6.0000   -0.4850    2.1930 C.3     1  UNL1        0.0870
      4  O          3.9900    0.6300    2.4990 O.2     1  UNL1       -0.3000
      5  C          5.4270    1.7370   -0.2100 C.3     1  UNL1        0.0430
      6  C          6.5870    1.0330   -0.7840 C.2     1  UNL1       -0.0440
      7  C          7.8970    1.4660   -0.5500 C.2     1  UNL1        0.0080
      8  C          6.3900   -0.0810   -1.5690 C.2     1  UNL1        0.0540
      9  C          8.9470    0.7650   -1.1140 C.2     1  UNL1        0.0510
     10  C          7.4540   -0.7870   -2.1360 C.2     1  UNL1        0.1660
     11  C          8.7440   -0.3600   -1.9080 C.2     1  UNL1        0.1650
     12  O          7.5180   -1.9050   -2.9410 O.2     1  UNL1       -0.4540
     13  O          9.5810   -1.2350   -2.5820 O.2     1  UNL1       -0.4540
     14  C          8.8500   -2.2820   -3.1760 C.3     1  UNL1        0.4680
@<TRIPOS>BOND
     1    14    12    1
     2    14    13    1
     3    12    10    1
     4    13    11    1
     5    10    11    2
     6    10     8    1
     7    11     9    1
     8     8     6    2
     9     9     7    2
    10     6     7    1
    11     6     5    1
    12     5     1    1
    13     1     2    1
    14     2     3    1
    15     2     4    2
