@<TRIPOS>MOLECULE
/home/cewinharhar/GITHUB/reincatalyze/data/processed/docking_pred/2023-May-24-1506_sub9_nm5_bs15_s42_ex16_mel10_mts10000_k50_ec02_g099_lra3e-4_lrc3e-3/a7c8c9f10e55c2841f25afbe7e611a3f864293db_ligand_9.pdbqt
 14 15 0 0 0
SMALL
GASTEIGER

@<TRIPOS>ATOM
      1  C          5.4320   -0.0430    2.0130 C.3     1  UNL1        0.0800
      2  C          4.5710    1.1480    1.7670 C.2     1  UNL1        0.1300
      3  C          4.8890    2.1350    0.7010 C.3     1  UNL1        0.0870
      4  O          3.5720    1.3480    2.4390 O.2     1  UNL1       -0.3000
      5  C          6.8610    0.2130    1.5790 C.3     1  UNL1        0.0430
      6  C          7.2840   -0.7160    0.5160 C.2     1  UNL1       -0.0440
      7  C          7.1590   -0.3860   -0.8390 C.2     1  UNL1        0.0080
      8  C          7.8190   -1.9390    0.8520 C.2     1  UNL1        0.0540
      9  C          7.5740   -1.2980   -1.7920 C.2     1  UNL1        0.0510
     10  C          8.2370   -2.8570   -0.1160 C.2     1  UNL1        0.1660
     11  C          8.1130   -2.5340   -1.4490 C.2     1  UNL1        0.1650
     12  O          8.7910   -4.1170   -0.0390 O.2     1  UNL1       -0.4540
     13  O          8.6000   -3.6130   -2.1700 O.2     1  UNL1       -0.4540
     14  C          9.1230   -4.6010   -1.3150 C.3     1  UNL1        0.4680
@<TRIPOS>BOND
     1    13    11    1
     2    13    14    1
     3     9    11    2
     4     9     7    1
     5    11    10    1
     6    14    12    1
     7     7     6    2
     8    10    12    1
     9    10     8    2
    10     6     8    1
    11     6     5    1
    12     3     2    1
    13     5     1    1
    14     2     1    1
    15     2     4    2
