@<TRIPOS>MOLECULE
/home/cewinharhar/GITHUB/reincatalyze/data/processed/docking_pred/2023-May-24-1506_sub9_nm5_bs15_s42_ex16_mel10_mts10000_k50_ec02_g099_lra3e-4_lrc3e-3/a7c8c9f10e55c2841f25afbe7e611a3f864293db_ligand_9.pdbqt
 14 15 0 0 0
SMALL
GASTEIGER

@<TRIPOS>ATOM
      1  C          6.3560    1.2030    0.9330 C.3     1  UNL1        0.0800
      2  C          5.6490    0.3690    1.9450 C.2     1  UNL1        0.1300
      3  C          6.2720   -0.8510    2.5250 C.3     1  UNL1        0.0870
      4  O          4.5290    0.6660    2.3300 O.2     1  UNL1       -0.3000
      5  C          5.8450    0.9210   -0.4660 C.3     1  UNL1        0.0430
      6  C          6.7970    0.1040   -1.2400 C.2     1  UNL1       -0.0440
      7  C          7.4800    0.6240   -2.3460 C.2     1  UNL1        0.0080
      8  C          7.0290   -1.2030   -0.8750 C.2     1  UNL1        0.0540
      9  C          8.3610   -0.1890   -3.0340 C.2     1  UNL1        0.0510
     10  C          7.9220   -2.0210   -1.5740 C.2     1  UNL1        0.1660
     11  C          8.5930   -1.5100   -2.6620 C.2     1  UNL1        0.1650
     12  O          8.3180   -3.3320   -1.4130 O.2     1  UNL1       -0.4540
     13  O          9.3970   -2.5280   -3.1510 O.2     1  UNL1       -0.4540
     14  C          9.3220   -3.6720   -2.3340 C.3     1  UNL1        0.4680
@<TRIPOS>BOND
     1    13    11    1
     2    13    14    1
     3     9    11    2
     4     9     7    1
     5    11    10    1
     6     7     6    2
     7    14    12    1
     8    10    12    1
     9    10     8    2
    10     6     8    1
    11     6     5    1
    12     5     1    1
    13     1     2    1
    14     2     4    2
    15     2     3    1
