@<TRIPOS>MOLECULE
/home/cewinharhar/GITHUB/reincatalyze/data/processed/docking_pred/2023-May-24-1506_sub9_nm5_bs15_s42_ex16_mel10_mts10000_k50_ec02_g099_lra3e-4_lrc3e-3/a8cbf1bb962d04eb60783bb2dc55df042853f03a_ligand_9.pdbqt
 14 15 0 0 0
SMALL
GASTEIGER

@<TRIPOS>ATOM
      1  C          5.5470    1.8970    1.2870 C.3     1  UNL1        0.0800
      2  C          5.0950    0.6790    2.0160 C.2     1  UNL1        0.1300
      3  C          5.9820   -0.5030    2.1870 C.3     1  UNL1        0.0870
      4  O          3.9760    0.6160    2.4970 O.2     1  UNL1       -0.3000
      5  C          5.4140    1.7210   -0.2130 C.3     1  UNL1        0.0430
      6  C          6.5770    1.0200   -0.7860 C.2     1  UNL1       -0.0440
      7  C          7.8860    1.4560   -0.5500 C.2     1  UNL1        0.0080
      8  C          6.3820   -0.0930   -1.5730 C.2     1  UNL1        0.0540
      9  C          8.9380    0.7570   -1.1140 C.2     1  UNL1        0.0510
     10  C          7.4490   -0.7960   -2.1400 C.2     1  UNL1        0.1660
     11  C          8.7370   -0.3680   -1.9090 C.2     1  UNL1        0.1650
     12  O          7.5160   -1.9130   -2.9450 O.2     1  UNL1       -0.4540
     13  O          9.5770   -1.2400   -2.5830 O.2     1  UNL1       -0.4540
     14  C          8.8500   -2.2880   -3.1790 C.3     1  UNL1        0.4680
@<TRIPOS>BOND
     1    14    12    1
     2    14    13    1
     3    12    10    1
     4    13    11    1
     5    10    11    2
     6    10     8    1
     7    11     9    1
     8     8     6    2
     9     9     7    2
    10     6     7    1
    11     6     5    1
    12     5     1    1
    13     1     2    1
    14     2     3    1
    15     2     4    2
