@<TRIPOS>MOLECULE
/home/cewinharhar/GITHUB/reincatalyze/data/processed/docking_pred/2023-May-24-1506_sub9_nm5_bs15_s42_ex16_mel10_mts10000_k50_ec02_g099_lra3e-4_lrc3e-3/a991e05863b38587be5f018959c733685726fb49_ligand_9.pdbqt
 14 15 0 0 0
SMALL
GASTEIGER

@<TRIPOS>ATOM
      1  C          5.3790   -0.0910    1.9960 C.3     1  UNL1        0.0800
      2  C          4.5840    1.1460    1.7580 C.2     1  UNL1        0.1300
      3  C          4.9540    2.1190    0.6950 C.3     1  UNL1        0.0870
      4  O          3.5990    1.3990    2.4330 O.2     1  UNL1       -0.3000
      5  C          6.8380    0.1150    1.6420 C.3     1  UNL1        0.0430
      6  C          7.2740   -0.7960    0.5690 C.2     1  UNL1       -0.0440
      7  C          7.1370   -0.4570   -0.7820 C.2     1  UNL1        0.0080
      8  C          7.8320   -2.0120    0.8920 C.2     1  UNL1        0.0540
      9  C          7.5650   -1.3520   -1.7450 C.2     1  UNL1        0.0510
     10  C          8.2640   -2.9130   -0.0860 C.2     1  UNL1        0.1660
     11  C          8.1280   -2.5810   -1.4150 C.2     1  UNL1        0.1650
     12  O          8.8410   -4.1640   -0.0220 O.2     1  UNL1       -0.4540
     13  O          8.6320   -3.6440   -2.1480 O.2     1  UNL1       -0.4540
     14  C          9.1770   -4.6300   -1.3040 C.3     1  UNL1        0.4680
@<TRIPOS>BOND
     1    13    11    1
     2    13    14    1
     3     9    11    2
     4     9     7    1
     5    11    10    1
     6    14    12    1
     7     7     6    2
     8    10    12    1
     9    10     8    2
    10     6     8    1
    11     6     5    1
    12     3     2    1
    13     5     1    1
    14     2     1    1
    15     2     4    2
