@<TRIPOS>MOLECULE
/home/cewinharhar/GITHUB/reincatalyze/data/processed/docking_pred/2023-May-24-1506_sub9_nm5_bs15_s42_ex16_mel10_mts10000_k50_ec02_g099_lra3e-4_lrc3e-3/a991e05863b38587be5f018959c733685726fb49_ligand_9.pdbqt
 14 15 0 0 0
SMALL
GASTEIGER

@<TRIPOS>ATOM
      1  C          5.7200    1.2570   -0.3070 C.3     1  UNL1        0.0800
      2  C          5.2280    1.2240    1.0990 C.2     1  UNL1        0.1300
      3  C          5.5040    0.0700    1.9960 C.3     1  UNL1        0.0870
      4  O          4.5790    2.1500    1.5580 O.2     1  UNL1       -0.3000
      5  C          7.2270    1.1000   -0.3670 C.3     1  UNL1        0.0430
      6  C          7.6180   -0.1910   -0.9590 C.2     1  UNL1       -0.0440
      7  C          7.6640   -0.3780   -2.3460 C.2     1  UNL1        0.0080
      8  C          7.9510   -1.2460   -0.1400 C.2     1  UNL1        0.0540
      9  C          8.0390   -1.6120   -2.8450 C.2     1  UNL1        0.0510
     10  C          8.3310   -2.4910   -0.6490 C.2     1  UNL1        0.1660
     11  C          8.3750   -2.6750   -2.0130 C.2     1  UNL1        0.1650
     12  O          8.7010   -3.6770   -0.0520 O.2     1  UNL1       -0.4540
     13  O          8.7770   -3.9840   -2.2280 O.2     1  UNL1       -0.4540
     14  C          9.0820   -4.6280   -1.0140 C.3     1  UNL1        0.4680
@<TRIPOS>BOND
     1     9     7    1
     2     9    11    2
     3     7     6    2
     4    13    11    1
     5    13    14    1
     6    11    10    1
     7    14    12    1
     8     6     5    1
     9     6     8    1
    10    10     8    2
    11    10    12    1
    12     5     1    1
    13     1     2    1
    14     2     4    2
    15     2     3    1
