@<TRIPOS>MOLECULE
/home/cewinharhar/GITHUB/reincatalyze/data/processed/docking_pred/2023-May-24-1506_sub9_nm5_bs15_s42_ex16_mel10_mts10000_k50_ec02_g099_lra3e-4_lrc3e-3/a9d08a951453574d65a810177cdd831b7fbb923c_ligand_9.pdbqt
 14 15 0 0 0
SMALL
GASTEIGER

@<TRIPOS>ATOM
      1  C          6.7740    0.8590    1.3830 C.3     1  UNL1        0.0800
      2  C          5.3200    1.1730    1.4490 C.2     1  UNL1        0.1300
      3  C          4.6900    2.1500    0.5210 C.3     1  UNL1        0.0870
      4  O          4.5990    0.6350    2.2730 O.2     1  UNL1       -0.3000
      5  C          7.3230    1.0800   -0.0120 C.3     1  UNL1        0.0430
      6  C          7.6570   -0.1930   -0.6760 C.2     1  UNL1       -0.0440
      7  C          7.6810   -0.3090   -2.0700 C.2     1  UNL1        0.0080
      8  C          7.9570   -1.3010    0.0840 C.2     1  UNL1        0.0540
      9  C          8.0030   -1.5280   -2.6370 C.2     1  UNL1        0.0510
     10  C          8.2820   -2.5320   -0.4940 C.2     1  UNL1        0.1660
     11  C          8.3050   -2.6460   -1.8660 C.2     1  UNL1        0.1650
     12  O          8.6120   -3.7610    0.0370 O.2     1  UNL1       -0.4540
     13  O          8.6530   -3.9570   -2.1530 O.2     1  UNL1       -0.4540
     14  C          8.9460   -4.6740   -0.9770 C.3     1  UNL1        0.4680
@<TRIPOS>BOND
     1     9     7    1
     2     9    11    2
     3    13    11    1
     4    13    14    1
     5     7     6    2
     6    11    10    1
     7    14    12    1
     8     6     5    1
     9     6     8    1
    10    10    12    1
    11    10     8    2
    12     5     1    1
    13     3     2    1
    14     1     2    1
    15     2     4    2
