@<TRIPOS>MOLECULE
/home/cewinharhar/GITHUB/reincatalyze/data/processed/docking_pred/2023-May-24-1506_sub9_nm5_bs15_s42_ex16_mel10_mts10000_k50_ec02_g099_lra3e-4_lrc3e-3/ab317eb7565d030be4138c7249420e244018cf00_ligand_9.pdbqt
 14 15 0 0 0
SMALL
GASTEIGER

@<TRIPOS>ATOM
      1  C          8.3270    0.2120   -2.6000 C.3     1  UNL1        0.0800
      2  C          8.0370   -1.2450   -2.7140 C.2     1  UNL1        0.1300
      3  C          9.1080   -2.2330   -3.0130 C.3     1  UNL1        0.0870
      4  O          6.9040   -1.6720   -2.5630 O.2     1  UNL1       -0.3000
      5  C          8.8380    0.5660   -1.2180 C.3     1  UNL1        0.0430
      6  C          7.7840    0.4350   -0.1960 C.2     1  UNL1       -0.0440
      7  C          7.8580   -0.5300    0.8150 C.2     1  UNL1        0.0080
      8  C          6.6960    1.2790   -0.2250 C.2     1  UNL1        0.0540
      9  C          6.8400   -0.6050    1.7480 C.2     1  UNL1        0.0510
     10  C          5.6700    1.1990    0.7200 C.2     1  UNL1        0.1660
     11  C          5.7420    0.2490    1.7140 C.2     1  UNL1        0.1650
     12  O          4.5030    1.9110    0.9020 O.2     1  UNL1       -0.4540
     13  O          4.6060    0.3990    2.4950 O.2     1  UNL1       -0.4540
     14  C          3.8390    1.5000    2.0700 C.3     1  UNL1        0.4680
@<TRIPOS>BOND
     1     3     2    1
     2     2     1    1
     3     2     4    2
     4     1     5    1
     5     5     6    1
     6     8     6    2
     7     8    10    1
     8     6     7    1
     9    10    12    1
    10    10    11    2
    11     7     9    2
    12    12    14    1
    13    11     9    1
    14    11    13    1
    15    14    13    1
