@<TRIPOS>MOLECULE
/home/cewinharhar/GITHUB/reincatalyze/data/processed/docking_pred/2023-May-24-1506_sub9_nm5_bs15_s42_ex16_mel10_mts10000_k50_ec02_g099_lra3e-4_lrc3e-3/ab5903e155d5198269deee73f32ad6fb308dffee_ligand_9.pdbqt
 14 15 0 0 0
SMALL
GASTEIGER

@<TRIPOS>ATOM
      1  C          5.5200    1.9070    1.2680 C.3     1  UNL1        0.0800
      2  C          5.0800    0.6870    1.9990 C.2     1  UNL1        0.1300
      3  C          5.9730   -0.4920    2.1600 C.3     1  UNL1        0.0870
      4  O          3.9650    0.6190    2.4910 O.2     1  UNL1       -0.3000
      5  C          5.3970    1.7250   -0.2320 C.3     1  UNL1        0.0430
      6  C          6.5650    1.0250   -0.7950 C.2     1  UNL1       -0.0440
      7  C          7.8710    1.4640   -0.5490 C.2     1  UNL1        0.0080
      8  C          6.3790   -0.0890   -1.5810 C.2     1  UNL1        0.0540
      9  C          8.9290    0.7670   -1.1030 C.2     1  UNL1        0.0510
     10  C          7.4520   -0.7910   -2.1390 C.2     1  UNL1        0.1660
     11  C          8.7380   -0.3590   -1.8980 C.2     1  UNL1        0.1650
     12  O          7.5280   -1.9090   -2.9420 O.2     1  UNL1       -0.4540
     13  O          9.5850   -1.2310   -2.5650 O.2     1  UNL1       -0.4540
     14  C          8.8640   -2.2810   -3.1650 C.3     1  UNL1        0.4680
@<TRIPOS>BOND
     1    14    12    1
     2    14    13    1
     3    12    10    1
     4    13    11    1
     5    10    11    2
     6    10     8    1
     7    11     9    1
     8     8     6    2
     9     9     7    2
    10     6     7    1
    11     6     5    1
    12     5     1    1
    13     1     2    1
    14     2     3    1
    15     2     4    2
