@<TRIPOS>MOLECULE
/home/cewinharhar/GITHUB/reincatalyze/data/processed/docking_pred/2023-May-24-1506_sub9_nm5_bs15_s42_ex16_mel10_mts10000_k50_ec02_g099_lra3e-4_lrc3e-3/ab955c776f37f5544fae82246801d9a2769dfb79_ligand_9.pdbqt
 14 15 0 0 0
SMALL
GASTEIGER

@<TRIPOS>ATOM
      1  C          5.4960   -0.0620    1.9440 C.3     1  UNL1        0.0800
      2  C          4.6650    1.1420    1.6620 C.2     1  UNL1        0.1300
      3  C          5.0370    2.1150    0.6000 C.3     1  UNL1        0.0870
      4  O          3.6480    1.3650    2.2980 O.2     1  UNL1       -0.3000
      5  C          6.9390    0.1560    1.5340 C.3     1  UNL1        0.0430
      6  C          7.3550   -0.7850    0.4790 C.2     1  UNL1       -0.0440
      7  C          7.2290   -0.4680   -0.8780 C.2     1  UNL1        0.0080
      8  C          7.8840   -2.0080    0.8260 C.2     1  UNL1        0.0540
      9  C          7.6380   -1.3910   -1.8240 C.2     1  UNL1        0.0510
     10  C          8.2960   -2.9370   -0.1330 C.2     1  UNL1        0.1660
     11  C          8.1710   -2.6270   -1.4690 C.2     1  UNL1        0.1650
     12  O          8.8430   -4.2000   -0.0450 O.2     1  UNL1       -0.4540
     13  O          8.6510   -3.7150   -2.1800 O.2     1  UNL1       -0.4540
     14  C          9.1710   -4.6980   -1.3170 C.3     1  UNL1        0.4680
@<TRIPOS>BOND
     1    13    11    1
     2    13    14    1
     3     9    11    2
     4     9     7    1
     5    11    10    1
     6    14    12    1
     7     7     6    2
     8    10    12    1
     9    10     8    2
    10     6     8    1
    11     6     5    1
    12     3     2    1
    13     5     1    1
    14     2     1    1
    15     2     4    2
