MODEL 1
REMARK VINA RESULT:      -7.6      0.000      0.000
REMARK SMILES CC(=O)CCc1ccc2c(c1)OCO2
REMARK SMILES IDX 4 1 2 2 1 3 3 4 5 5 6 6 7 7 11 8 8 9 10 10 9 11 12 12 14 13
REMARK SMILES IDX 13 14
REMARK H PARENT
REMARK Flexibility Score: inf
ROOT
ATOM      1  C   UNL     1       5.519   1.938   1.250  1.00  0.00     0.080 C 
ENDROOT
BRANCH   1   2
ATOM      2  C   UNL     1       5.093   0.726   2.003  1.00  0.00     0.130 C 
ATOM      3  C   UNL     1       6.003  -0.436   2.191  1.00  0.00     0.087 C 
ATOM      4  O   UNL     1       3.977   0.651   2.490  1.00  0.00    -0.300 OA
ENDBRANCH   1   2
BRANCH   1   5
ATOM      5  C   UNL     1       5.390   1.730  -0.246  1.00  0.00     0.043 C 
BRANCH   5   6
ATOM      6  C   UNL     1       6.561   1.029  -0.803  1.00  0.00    -0.044 A 
ATOM      7  C   UNL     1       7.866   1.463  -0.545  1.00  0.00     0.008 A 
ATOM      8  C   UNL     1       6.378  -0.082  -1.595  1.00  0.00     0.054 A 
ATOM      9  C   UNL     1       8.926   0.765  -1.095  1.00  0.00     0.051 A 
ATOM     10  C   UNL     1       7.453  -0.785  -2.147  1.00  0.00     0.166 A 
ATOM     11  C   UNL     1       8.738  -0.358  -1.895  1.00  0.00     0.165 A 
ATOM     12  O   UNL     1       7.531  -1.900  -2.955  1.00  0.00    -0.454 OA
ATOM     13  O   UNL     1       9.587  -1.229  -2.559  1.00  0.00    -0.454 OA
ATOM     14  C   UNL     1       8.868  -2.275  -3.168  1.00  0.00     0.468 C 
ENDBRANCH   5   6
ENDBRANCH   1   5
TORSDOF 3
ENDMDL
MODEL 2
REMARK VINA RESULT:      -7.4      1.936      2.427
REMARK SMILES CC(=O)CCc1ccc2c(c1)OCO2
REMARK SMILES IDX 4 1 2 2 1 3 3 4 5 5 6 6 7 7 11 8 8 9 10 10 9 11 12 12 14 13
REMARK SMILES IDX 13 14
REMARK H PARENT
REMARK Flexibility Score: inf
ROOT
ATOM      1  C   UNL     1       5.787   1.283  -0.293  1.00  0.00     0.080 C 
ENDROOT
BRANCH   1   2
ATOM      2  C   UNL     1       5.247   1.215   1.094  1.00  0.00     0.130 C 
ATOM      3  C   UNL     1       5.445   0.015   1.950  1.00  0.00     0.087 C 
ATOM      4  O   UNL     1       4.623   2.149   1.570  1.00  0.00    -0.300 OA
ENDBRANCH   1   2
BRANCH   1   5
ATOM      5  C   UNL     1       7.286   1.059  -0.312  1.00  0.00     0.043 C 
BRANCH   5   6
ATOM      6  C   UNL     1       7.636  -0.242  -0.909  1.00  0.00    -0.044 A 
ATOM      7  C   UNL     1       7.700  -0.419  -2.296  1.00  0.00     0.008 A 
ATOM      8  C   UNL     1       7.912  -1.315  -0.092  1.00  0.00     0.054 A 
ATOM      9  C   UNL     1       8.035  -1.663  -2.799  1.00  0.00     0.051 A 
ATOM     10  C   UNL     1       8.251  -2.571  -0.606  1.00  0.00     0.166 A 
ATOM     11  C   UNL     1       8.312  -2.746  -1.970  1.00  0.00     0.165 A 
ATOM     12  O   UNL     1       8.563  -3.775  -0.012  1.00  0.00    -0.454 OA
ATOM     13  O   UNL     1       8.666  -4.068  -2.189  1.00  0.00    -0.454 OA
ATOM     14  C   UNL     1       8.923  -4.733  -0.975  1.00  0.00     0.468 C 
ENDBRANCH   5   6
ENDBRANCH   1   5
TORSDOF 3
ENDMDL
MODEL 3
REMARK VINA RESULT:      -7.2      2.079      2.599
REMARK SMILES CC(=O)CCc1ccc2c(c1)OCO2
REMARK SMILES IDX 4 1 2 2 1 3 3 4 5 5 6 6 7 7 11 8 8 9 10 10 9 11 12 12 14 13
REMARK SMILES IDX 13 14
REMARK H PARENT
REMARK Flexibility Score: inf
ROOT
ATOM      1  C   UNL     1       5.651   0.081   1.936  1.00  0.00     0.080 C 
ENDROOT
BRANCH   1   2
ATOM      2  C   UNL     1       4.713   1.193   1.613  1.00  0.00     0.130 C 
ATOM      3  C   UNL     1       4.987   2.149   0.508  1.00  0.00     0.087 C 
ATOM      4  O   UNL     1       3.686   1.352   2.253  1.00  0.00    -0.300 OA
ENDBRANCH   1   2
BRANCH   1   5
ATOM      5  C   UNL     1       7.038   0.354   1.388  1.00  0.00     0.043 C 
BRANCH   5   6
ATOM      6  C   UNL     1       7.426  -0.634   0.366  1.00  0.00    -0.044 A 
ATOM      7  C   UNL     1       7.333  -0.350  -1.001  1.00  0.00     0.008 A 
ATOM      8  C   UNL     1       7.896  -1.868   0.755  1.00  0.00     0.054 A 
ATOM      9  C   UNL     1       7.713  -1.316  -1.914  1.00  0.00     0.051 A 
ATOM     10  C   UNL     1       8.279  -2.842  -0.173  1.00  0.00     0.166 A 
ATOM     11  C   UNL     1       8.186  -2.563  -1.519  1.00  0.00     0.165 A 
ATOM     12  O   UNL     1       8.769  -4.124  -0.042  1.00  0.00    -0.454 OA
ATOM     13  O   UNL     1       8.627  -3.692  -2.192  1.00  0.00    -0.454 OA
ATOM     14  C   UNL     1       9.091  -4.671  -1.294  1.00  0.00     0.468 C 
ENDBRANCH   5   6
ENDBRANCH   1   5
TORSDOF 3
ENDMDL
MODEL 4
REMARK VINA RESULT:      -7.1      1.254      1.476
REMARK SMILES CC(=O)CCc1ccc2c(c1)OCO2
REMARK SMILES IDX 4 1 2 2 1 3 3 4 5 5 6 6 7 7 11 8 8 9 10 10 9 11 12 12 14 13
REMARK SMILES IDX 13 14
REMARK H PARENT
REMARK Flexibility Score: inf
ROOT
ATOM      1  C   UNL     1       6.379   1.190   0.904  1.00  0.00     0.080 C 
ENDROOT
BRANCH   1   2
ATOM      2  C   UNL     1       5.664   0.374   1.924  1.00  0.00     0.130 C 
ATOM      3  C   UNL     1       6.261  -0.863   2.494  1.00  0.00     0.087 C 
ATOM      4  O   UNL     1       4.557   0.699   2.323  1.00  0.00    -0.300 OA
ENDBRANCH   1   2
BRANCH   1   5
ATOM      5  C   UNL     1       5.871   0.895  -0.493  1.00  0.00     0.043 C 
BRANCH   5   6
ATOM      6  C   UNL     1       6.827   0.077  -1.261  1.00  0.00    -0.044 A 
ATOM      7  C   UNL     1       7.528   0.600  -2.353  1.00  0.00     0.008 A 
ATOM      8  C   UNL     1       7.045  -1.234  -0.902  1.00  0.00     0.054 A 
ATOM      9  C   UNL     1       8.413  -0.215  -3.035  1.00  0.00     0.051 A 
ATOM     10  C   UNL     1       7.941  -2.054  -1.595  1.00  0.00     0.166 A 
ATOM     11  C   UNL     1       8.631  -1.540  -2.670  1.00  0.00     0.165 A 
ATOM     12  O   UNL     1       8.327  -3.368  -1.437  1.00  0.00    -0.454 OA
ATOM     13  O   UNL     1       9.434  -2.559  -3.156  1.00  0.00    -0.454 OA
ATOM     14  C   UNL     1       9.341  -3.709  -2.348  1.00  0.00     0.468 C 
ENDBRANCH   5   6
ENDBRANCH   1   5
TORSDOF 3
ENDMDL
MODEL 5
REMARK VINA RESULT:      -7.0      1.986      2.576
REMARK SMILES CC(=O)CCc1ccc2c(c1)OCO2
REMARK SMILES IDX 4 1 2 2 1 3 3 4 5 5 6 6 7 7 11 8 8 9 10 10 9 11 12 12 14 13
REMARK SMILES IDX 13 14
REMARK H PARENT
REMARK Flexibility Score: inf
ROOT
ATOM      1  C   UNL     1       6.999   0.832   1.148  1.00  0.00     0.080 C 
ENDROOT
BRANCH   1   2
ATOM      2  C   UNL     1       5.569   1.117   1.450  1.00  0.00     0.130 C 
ATOM      3  C   UNL     1       4.803   2.150   0.702  1.00  0.00     0.087 C 
ATOM      4  O   UNL     1       4.981   0.508   2.329  1.00  0.00    -0.300 OA
ENDBRANCH   1   2
BRANCH   1   5
ATOM      5  C   UNL     1       7.283   0.955  -0.336  1.00  0.00     0.043 C 
BRANCH   5   6
ATOM      6  C   UNL     1       7.685  -0.335  -0.925  1.00  0.00    -0.044 A 
ATOM      7  C   UNL     1       7.810  -0.502  -2.309  1.00  0.00     0.008 A 
ATOM      8  C   UNL     1       7.949  -1.407  -0.103  1.00  0.00     0.054 A 
ATOM      9  C   UNL     1       8.192  -1.736  -2.803  1.00  0.00     0.051 A 
ATOM     10  C   UNL     1       8.335  -2.652  -0.608  1.00  0.00     0.166 A 
ATOM     11  C   UNL     1       8.457  -2.818  -1.970  1.00  0.00     0.165 A 
ATOM     12  O   UNL     1       8.648  -3.853  -0.008  1.00  0.00    -0.454 OA
ATOM     13  O   UNL     1       8.847  -4.131  -2.180  1.00  0.00    -0.454 OA
ATOM     14  C   UNL     1       9.068  -4.798  -0.960  1.00  0.00     0.468 C 
ENDBRANCH   5   6
ENDBRANCH   1   5
TORSDOF 3
ENDMDL
