@<TRIPOS>MOLECULE
/home/cewinharhar/GITHUB/reincatalyze/data/processed/docking_pred/2023-May-24-1506_sub9_nm5_bs15_s42_ex16_mel10_mts10000_k50_ec02_g099_lra3e-4_lrc3e-3/ae2b7ca0e57384ee3cd7889808440c06f68d274f_ligand_9.pdbqt
 14 15 0 0 0
SMALL
GASTEIGER

@<TRIPOS>ATOM
      1  C          6.9990    0.8320    1.1480 C.3     1  UNL1        0.0800
      2  C          5.5690    1.1170    1.4500 C.2     1  UNL1        0.1300
      3  C          4.8030    2.1500    0.7020 C.3     1  UNL1        0.0870
      4  O          4.9810    0.5080    2.3290 O.2     1  UNL1       -0.3000
      5  C          7.2830    0.9550   -0.3360 C.3     1  UNL1        0.0430
      6  C          7.6850   -0.3350   -0.9250 C.2     1  UNL1       -0.0440
      7  C          7.8100   -0.5020   -2.3090 C.2     1  UNL1        0.0080
      8  C          7.9490   -1.4070   -0.1030 C.2     1  UNL1        0.0540
      9  C          8.1920   -1.7360   -2.8030 C.2     1  UNL1        0.0510
     10  C          8.3350   -2.6520   -0.6080 C.2     1  UNL1        0.1660
     11  C          8.4570   -2.8180   -1.9700 C.2     1  UNL1        0.1650
     12  O          8.6480   -3.8530   -0.0080 O.2     1  UNL1       -0.4540
     13  O          8.8470   -4.1310   -2.1800 O.2     1  UNL1       -0.4540
     14  C          9.0680   -4.7980   -0.9600 C.3     1  UNL1        0.4680
@<TRIPOS>BOND
     1     9     7    1
     2     9    11    2
     3     7     6    2
     4    13    11    1
     5    13    14    1
     6    11    10    1
     7    14    12    1
     8     6     5    1
     9     6     8    1
    10    10     8    2
    11    10    12    1
    12     5     1    1
    13     3     2    1
    14     1     2    1
    15     2     4    2
