@<TRIPOS>MOLECULE
/home/cewinharhar/GITHUB/reincatalyze/data/processed/docking_pred/2023-May-24-1506_sub9_nm5_bs15_s42_ex16_mel10_mts10000_k50_ec02_g099_lra3e-4_lrc3e-3/ae2b7ca0e57384ee3cd7889808440c06f68d274f_ligand_9.pdbqt
 14 15 0 0 0
SMALL
GASTEIGER

@<TRIPOS>ATOM
      1  C          6.3790    1.1900    0.9040 C.3     1  UNL1        0.0800
      2  C          5.6640    0.3740    1.9240 C.2     1  UNL1        0.1300
      3  C          6.2610   -0.8630    2.4940 C.3     1  UNL1        0.0870
      4  O          4.5570    0.6990    2.3230 O.2     1  UNL1       -0.3000
      5  C          5.8710    0.8950   -0.4930 C.3     1  UNL1        0.0430
      6  C          6.8270    0.0770   -1.2610 C.2     1  UNL1       -0.0440
      7  C          7.5280    0.6000   -2.3530 C.2     1  UNL1        0.0080
      8  C          7.0450   -1.2340   -0.9020 C.2     1  UNL1        0.0540
      9  C          8.4130   -0.2150   -3.0350 C.2     1  UNL1        0.0510
     10  C          7.9410   -2.0540   -1.5950 C.2     1  UNL1        0.1660
     11  C          8.6310   -1.5400   -2.6700 C.2     1  UNL1        0.1650
     12  O          8.3270   -3.3680   -1.4370 O.2     1  UNL1       -0.4540
     13  O          9.4340   -2.5590   -3.1560 O.2     1  UNL1       -0.4540
     14  C          9.3410   -3.7090   -2.3480 C.3     1  UNL1        0.4680
@<TRIPOS>BOND
     1    13    11    1
     2    13    14    1
     3     9    11    2
     4     9     7    1
     5    11    10    1
     6     7     6    2
     7    14    12    1
     8    10    12    1
     9    10     8    2
    10     6     8    1
    11     6     5    1
    12     5     1    1
    13     1     2    1
    14     2     4    2
    15     2     3    1
