@<TRIPOS>MOLECULE
/home/cewinharhar/GITHUB/reincatalyze/data/processed/docking_pred/2023-May-24-1506_sub9_nm5_bs15_s42_ex16_mel10_mts10000_k50_ec02_g099_lra3e-4_lrc3e-3/ae2b7ca0e57384ee3cd7889808440c06f68d274f_ligand_9.pdbqt
 14 15 0 0 0
SMALL
GASTEIGER

@<TRIPOS>ATOM
      1  C          5.7870    1.2830   -0.2930 C.3     1  UNL1        0.0800
      2  C          5.2470    1.2150    1.0940 C.2     1  UNL1        0.1300
      3  C          5.4450    0.0150    1.9500 C.3     1  UNL1        0.0870
      4  O          4.6230    2.1490    1.5700 O.2     1  UNL1       -0.3000
      5  C          7.2860    1.0590   -0.3120 C.3     1  UNL1        0.0430
      6  C          7.6360   -0.2420   -0.9090 C.2     1  UNL1       -0.0440
      7  C          7.7000   -0.4190   -2.2960 C.2     1  UNL1        0.0080
      8  C          7.9120   -1.3150   -0.0920 C.2     1  UNL1        0.0540
      9  C          8.0350   -1.6630   -2.7990 C.2     1  UNL1        0.0510
     10  C          8.2510   -2.5710   -0.6060 C.2     1  UNL1        0.1660
     11  C          8.3120   -2.7460   -1.9700 C.2     1  UNL1        0.1650
     12  O          8.5630   -3.7750   -0.0120 O.2     1  UNL1       -0.4540
     13  O          8.6660   -4.0680   -2.1890 O.2     1  UNL1       -0.4540
     14  C          8.9230   -4.7330   -0.9750 C.3     1  UNL1        0.4680
@<TRIPOS>BOND
     1     9     7    1
     2     9    11    2
     3     7     6    2
     4    13    11    1
     5    13    14    1
     6    11    10    1
     7    14    12    1
     8     6     5    1
     9     6     8    1
    10    10     8    2
    11    10    12    1
    12     5     1    1
    13     1     2    1
    14     2     4    2
    15     2     3    1
