@<TRIPOS>MOLECULE
/home/cewinharhar/GITHUB/reincatalyze/data/processed/docking_pred/2023-May-24-1506_sub9_nm5_bs15_s42_ex16_mel10_mts10000_k50_ec02_g099_lra3e-4_lrc3e-3/ae2b7ca0e57384ee3cd7889808440c06f68d274f_ligand_9.pdbqt
 14 15 0 0 0
SMALL
GASTEIGER

@<TRIPOS>ATOM
      1  C          5.5190    1.9380    1.2500 C.3     1  UNL1        0.0800
      2  C          5.0930    0.7260    2.0030 C.2     1  UNL1        0.1300
      3  C          6.0030   -0.4360    2.1910 C.3     1  UNL1        0.0870
      4  O          3.9770    0.6510    2.4900 O.2     1  UNL1       -0.3000
      5  C          5.3900    1.7300   -0.2460 C.3     1  UNL1        0.0430
      6  C          6.5610    1.0290   -0.8030 C.2     1  UNL1       -0.0440
      7  C          7.8660    1.4630   -0.5450 C.2     1  UNL1        0.0080
      8  C          6.3780   -0.0820   -1.5950 C.2     1  UNL1        0.0540
      9  C          8.9260    0.7650   -1.0950 C.2     1  UNL1        0.0510
     10  C          7.4530   -0.7850   -2.1470 C.2     1  UNL1        0.1660
     11  C          8.7380   -0.3580   -1.8950 C.2     1  UNL1        0.1650
     12  O          7.5310   -1.9000   -2.9550 O.2     1  UNL1       -0.4540
     13  O          9.5870   -1.2290   -2.5590 O.2     1  UNL1       -0.4540
     14  C          8.8680   -2.2750   -3.1680 C.3     1  UNL1        0.4680
@<TRIPOS>BOND
     1    14    12    1
     2    14    13    1
     3    12    10    1
     4    13    11    1
     5    10    11    2
     6    10     8    1
     7    11     9    1
     8     8     6    2
     9     9     7    2
    10     6     7    1
    11     6     5    1
    12     5     1    1
    13     1     2    1
    14     2     3    1
    15     2     4    2
