@<TRIPOS>MOLECULE
/home/cewinharhar/GITHUB/reincatalyze/data/processed/docking_pred/2023-May-24-1506_sub9_nm5_bs15_s42_ex16_mel10_mts10000_k50_ec02_g099_lra3e-4_lrc3e-3/ae2b7ca0e57384ee3cd7889808440c06f68d274f_ligand_9.pdbqt
 14 15 0 0 0
SMALL
GASTEIGER

@<TRIPOS>ATOM
      1  C          5.6510    0.0810    1.9360 C.3     1  UNL1        0.0800
      2  C          4.7130    1.1930    1.6130 C.2     1  UNL1        0.1300
      3  C          4.9870    2.1490    0.5080 C.3     1  UNL1        0.0870
      4  O          3.6860    1.3520    2.2530 O.2     1  UNL1       -0.3000
      5  C          7.0380    0.3540    1.3880 C.3     1  UNL1        0.0430
      6  C          7.4260   -0.6340    0.3660 C.2     1  UNL1       -0.0440
      7  C          7.3330   -0.3500   -1.0010 C.2     1  UNL1        0.0080
      8  C          7.8960   -1.8680    0.7550 C.2     1  UNL1        0.0540
      9  C          7.7130   -1.3160   -1.9140 C.2     1  UNL1        0.0510
     10  C          8.2790   -2.8420   -0.1730 C.2     1  UNL1        0.1660
     11  C          8.1860   -2.5630   -1.5190 C.2     1  UNL1        0.1650
     12  O          8.7690   -4.1240   -0.0420 O.2     1  UNL1       -0.4540
     13  O          8.6270   -3.6920   -2.1920 O.2     1  UNL1       -0.4540
     14  C          9.0910   -4.6710   -1.2940 C.3     1  UNL1        0.4680
@<TRIPOS>BOND
     1    13    11    1
     2    13    14    1
     3     9    11    2
     4     9     7    1
     5    11    10    1
     6    14    12    1
     7     7     6    2
     8    10    12    1
     9    10     8    2
    10     6     8    1
    11     6     5    1
    12     3     2    1
    13     5     1    1
    14     2     1    1
    15     2     4    2
