@<TRIPOS>MOLECULE
/home/cewinharhar/GITHUB/reincatalyze/data/processed/docking_pred/2023-May-24-1506_sub9_nm5_bs15_s42_ex16_mel10_mts10000_k50_ec02_g099_lra3e-4_lrc3e-3/ae45d061dddc84380b8ad6f9293329cc64ca5b9d_ligand_9.pdbqt
 14 15 0 0 0
SMALL
GASTEIGER

@<TRIPOS>ATOM
      1  C          8.3150    0.1540   -2.7100 C.3     1  UNL1        0.0800
      2  C          8.0730   -1.3120   -2.8070 C.2     1  UNL1        0.1300
      3  C          9.1870   -2.2760   -3.0100 C.3     1  UNL1        0.0870
      4  O          6.9440   -1.7680   -2.7230 O.2     1  UNL1       -0.3000
      5  C          8.8590    0.5330   -1.3470 C.3     1  UNL1        0.0430
      6  C          7.8380    0.3970   -0.2940 C.2     1  UNL1       -0.0440
      7  C          7.9590   -0.5540    0.7260 C.2     1  UNL1        0.0080
      8  C          6.7350    1.2210   -0.3010 C.2     1  UNL1        0.0540
      9  C          6.9690   -0.6360    1.6880 C.2     1  UNL1        0.0510
     10  C          5.7380    1.1350    0.6750 C.2     1  UNL1        0.1660
     11  C          5.8550    0.1990    1.6770 C.2     1  UNL1        0.1650
     12  O          4.5640    1.8290    0.8820 O.2     1  UNL1       -0.4540
     13  O          4.7410    0.3390    2.4890 O.2     1  UNL1       -0.4540
     14  C          3.9420    1.4210    2.0730 C.3     1  UNL1        0.4680
@<TRIPOS>BOND
     1     3     2    1
     2     2     4    2
     3     2     1    1
     4     1     5    1
     5     5     6    1
     6     8     6    2
     7     8    10    1
     8     6     7    1
     9    10    12    1
    10    10    11    2
    11     7     9    2
    12    12    14    1
    13    11     9    1
    14    11    13    1
    15    14    13    1
