@<TRIPOS>MOLECULE
/home/cewinharhar/GITHUB/reincatalyze/data/processed/docking_pred/2023-May-24-1506_sub9_nm5_bs15_s42_ex16_mel10_mts10000_k50_ec02_g099_lra3e-4_lrc3e-3/ae45d061dddc84380b8ad6f9293329cc64ca5b9d_ligand_9.pdbqt
 14 15 0 0 0
SMALL
GASTEIGER

@<TRIPOS>ATOM
      1  C          5.5070    1.9270    1.2690 C.3     1  UNL1        0.0800
      2  C          5.0550    0.7100    2.0010 C.2     1  UNL1        0.1300
      3  C          5.9310   -0.4830    2.1480 C.3     1  UNL1        0.0870
      4  O          3.9450    0.6580    2.5050 O.2     1  UNL1       -0.3000
      5  C          5.3850    1.7430   -0.2310 C.3     1  UNL1        0.0430
      6  C          6.5540    1.0420   -0.7910 C.2     1  UNL1       -0.0440
      7  C          7.8600    1.4780   -0.5410 C.2     1  UNL1        0.0080
      8  C          6.3680   -0.0700   -1.5800 C.2     1  UNL1        0.0540
      9  C          8.9180    0.7790   -1.0930 C.2     1  UNL1        0.0510
     10  C          7.4420   -0.7730   -2.1360 C.2     1  UNL1        0.1660
     11  C          8.7270   -0.3450   -1.8910 C.2     1  UNL1        0.1650
     12  O          7.5170   -1.8900   -2.9410 O.2     1  UNL1       -0.4540
     13  O          9.5740   -1.2170   -2.5560 O.2     1  UNL1       -0.4540
     14  C          8.8530   -2.2640   -3.1610 C.3     1  UNL1        0.4680
@<TRIPOS>BOND
     1    14    12    1
     2    14    13    1
     3    12    10    1
     4    13    11    1
     5    10    11    2
     6    10     8    1
     7    11     9    1
     8     8     6    2
     9     9     7    2
    10     6     7    1
    11     6     5    1
    12     5     1    1
    13     1     2    1
    14     2     3    1
    15     2     4    2
