MODEL 1
REMARK VINA RESULT:      -7.7      0.000      0.000
REMARK SMILES CC(=O)CCc1ccc2c(c1)OCO2
REMARK SMILES IDX 4 1 2 2 1 3 3 4 5 5 6 6 7 7 11 8 8 9 10 10 9 11 12 12 14 13
REMARK SMILES IDX 13 14
REMARK H PARENT
REMARK Flexibility Score: inf
ROOT
ATOM      1  C   UNL     1       5.507   1.927   1.269  1.00  0.00     0.080 C 
ENDROOT
BRANCH   1   2
ATOM      2  C   UNL     1       5.055   0.710   2.001  1.00  0.00     0.130 C 
ATOM      3  C   UNL     1       5.931  -0.483   2.148  1.00  0.00     0.087 C 
ATOM      4  O   UNL     1       3.945   0.658   2.505  1.00  0.00    -0.300 OA
ENDBRANCH   1   2
BRANCH   1   5
ATOM      5  C   UNL     1       5.385   1.743  -0.231  1.00  0.00     0.043 C 
BRANCH   5   6
ATOM      6  C   UNL     1       6.554   1.042  -0.791  1.00  0.00    -0.044 A 
ATOM      7  C   UNL     1       7.860   1.478  -0.541  1.00  0.00     0.008 A 
ATOM      8  C   UNL     1       6.368  -0.070  -1.580  1.00  0.00     0.054 A 
ATOM      9  C   UNL     1       8.918   0.779  -1.093  1.00  0.00     0.051 A 
ATOM     10  C   UNL     1       7.442  -0.773  -2.136  1.00  0.00     0.166 A 
ATOM     11  C   UNL     1       8.727  -0.345  -1.891  1.00  0.00     0.165 A 
ATOM     12  O   UNL     1       7.517  -1.890  -2.941  1.00  0.00    -0.454 OA
ATOM     13  O   UNL     1       9.574  -1.217  -2.556  1.00  0.00    -0.454 OA
ATOM     14  C   UNL     1       8.853  -2.264  -3.161  1.00  0.00     0.468 C 
ENDBRANCH   5   6
ENDBRANCH   1   5
TORSDOF 3
ENDMDL
MODEL 2
REMARK VINA RESULT:      -7.4      1.931      2.402
REMARK SMILES CC(=O)CCc1ccc2c(c1)OCO2
REMARK SMILES IDX 4 1 2 2 1 3 3 4 5 5 6 6 7 7 11 8 8 9 10 10 9 11 12 12 14 13
REMARK SMILES IDX 13 14
REMARK H PARENT
REMARK Flexibility Score: inf
ROOT
ATOM      1  C   UNL     1       5.714   1.201  -0.314  1.00  0.00     0.080 C 
ENDROOT
BRANCH   1   2
ATOM      2  C   UNL     1       5.176   1.203   1.075  1.00  0.00     0.130 C 
ATOM      3  C   UNL     1       5.402   0.061   2.001  1.00  0.00     0.087 C 
ATOM      4  O   UNL     1       4.530   2.149   1.496  1.00  0.00    -0.300 OA
ENDBRANCH   1   2
BRANCH   1   5
ATOM      5  C   UNL     1       7.222   1.050  -0.320  1.00  0.00     0.043 C 
BRANCH   5   6
ATOM      6  C   UNL     1       7.641  -0.232  -0.914  1.00  0.00    -0.044 A 
ATOM      7  C   UNL     1       7.830  -0.373  -2.294  1.00  0.00     0.008 A 
ATOM      8  C   UNL     1       7.857  -1.322  -0.102  1.00  0.00     0.054 A 
ATOM      9  C   UNL     1       8.224  -1.601  -2.794  1.00  0.00     0.051 A 
ATOM     10  C   UNL     1       8.256  -2.560  -0.613  1.00  0.00     0.166 A 
ATOM     11  C   UNL     1       8.441  -2.701  -1.970  1.00  0.00     0.165 A 
ATOM     12  O   UNL     1       8.529  -3.776  -0.023  1.00  0.00    -0.454 OA
ATOM     13  O   UNL     1       8.829  -4.014  -2.188  1.00  0.00    -0.454 OA
ATOM     14  C   UNL     1       8.986  -4.706  -0.972  1.00  0.00     0.468 C 
ENDBRANCH   5   6
ENDBRANCH   1   5
TORSDOF 3
ENDMDL
MODEL 3
REMARK VINA RESULT:      -7.2      2.063      2.632
REMARK SMILES CC(=O)CCc1ccc2c(c1)OCO2
REMARK SMILES IDX 4 1 2 2 1 3 3 4 5 5 6 6 7 7 11 8 8 9 10 10 9 11 12 12 14 13
REMARK SMILES IDX 13 14
REMARK H PARENT
REMARK Flexibility Score: inf
ROOT
ATOM      1  C   UNL     1       5.451  -0.036   2.004  1.00  0.00     0.080 C 
ENDROOT
BRANCH   1   2
ATOM      2  C   UNL     1       4.589   1.149   1.738  1.00  0.00     0.130 C 
ATOM      3  C   UNL     1       4.899   2.111   0.646  1.00  0.00     0.087 C 
ATOM      4  O   UNL     1       3.596   1.366   2.413  1.00  0.00    -0.300 OA
ENDBRANCH   1   2
BRANCH   1   5
ATOM      5  C   UNL     1       6.880   0.213   1.563  1.00  0.00     0.043 C 
BRANCH   5   6
ATOM      6  C   UNL     1       7.297  -0.725   0.505  1.00  0.00    -0.044 A 
ATOM      7  C   UNL     1       7.148  -0.412  -0.851  1.00  0.00     0.008 A 
ATOM      8  C   UNL     1       7.849  -1.938   0.847  1.00  0.00     0.054 A 
ATOM      9  C   UNL     1       7.558  -1.331  -1.800  1.00  0.00     0.051 A 
ATOM     10  C   UNL     1       8.262  -2.863  -0.117  1.00  0.00     0.166 A 
ATOM     11  C   UNL     1       8.115  -2.557  -1.451  1.00  0.00     0.165 A 
ATOM     12  O   UNL     1       8.830  -4.117  -0.033  1.00  0.00    -0.454 OA
ATOM     13  O   UNL     1       8.602  -3.639  -2.167  1.00  0.00    -0.454 OA
ATOM     14  C   UNL     1       9.148  -4.612  -1.308  1.00  0.00     0.468 C 
ENDBRANCH   5   6
ENDBRANCH   1   5
TORSDOF 3
ENDMDL
MODEL 4
REMARK VINA RESULT:      -7.1      1.269      1.486
REMARK SMILES CC(=O)CCc1ccc2c(c1)OCO2
REMARK SMILES IDX 4 1 2 2 1 3 3 4 5 5 6 6 7 7 11 8 8 9 10 10 9 11 12 12 14 13
REMARK SMILES IDX 13 14
REMARK H PARENT
REMARK Flexibility Score: inf
ROOT
ATOM      1  C   UNL     1       6.386   1.205   0.940  1.00  0.00     0.080 C 
ENDROOT
BRANCH   1   2
ATOM      2  C   UNL     1       5.645   0.386   1.940  1.00  0.00     0.130 C 
ATOM      3  C   UNL     1       6.237  -0.841   2.536  1.00  0.00     0.087 C 
ATOM      4  O   UNL     1       4.523   0.701   2.300  1.00  0.00    -0.300 OA
ENDBRANCH   1   2
BRANCH   1   5
ATOM      5  C   UNL     1       5.892   0.936  -0.467  1.00  0.00     0.043 C 
BRANCH   5   6
ATOM      6  C   UNL     1       6.838   0.099  -1.227  1.00  0.00    -0.044 A 
ATOM      7  C   UNL     1       7.532   0.600  -2.335  1.00  0.00     0.008 A 
ATOM      8  C   UNL     1       7.053  -1.206  -0.847  1.00  0.00     0.054 A 
ATOM      9  C   UNL     1       8.408  -0.232  -3.009  1.00  0.00     0.051 A 
ATOM     10  C   UNL     1       7.939  -2.042  -1.531  1.00  0.00     0.166 A 
ATOM     11  C   UNL     1       8.622  -1.551  -2.622  1.00  0.00     0.165 A 
ATOM     12  O   UNL     1       8.320  -3.355  -1.353  1.00  0.00    -0.454 OA
ATOM     13  O   UNL     1       9.417  -2.583  -3.095  1.00  0.00    -0.454 OA
ATOM     14  C   UNL     1       9.325  -3.717  -2.266  1.00  0.00     0.468 C 
ENDBRANCH   5   6
ENDBRANCH   1   5
TORSDOF 3
ENDMDL
MODEL 5
REMARK VINA RESULT:      -6.8      1.197      5.174
REMARK SMILES CC(=O)CCc1ccc2c(c1)OCO2
REMARK SMILES IDX 4 1 2 2 1 3 3 4 5 5 6 6 7 7 11 8 8 9 10 10 9 11 12 12 14 13
REMARK SMILES IDX 13 14
REMARK H PARENT
REMARK Flexibility Score: inf
ROOT
ATOM      1  C   UNL     1       8.315   0.154  -2.710  1.00  0.00     0.080 C 
ENDROOT
BRANCH   1   2
ATOM      2  C   UNL     1       8.073  -1.312  -2.807  1.00  0.00     0.130 C 
ATOM      3  C   UNL     1       9.187  -2.276  -3.010  1.00  0.00     0.087 C 
ATOM      4  O   UNL     1       6.944  -1.768  -2.723  1.00  0.00    -0.300 OA
ENDBRANCH   1   2
BRANCH   1   5
ATOM      5  C   UNL     1       8.859   0.533  -1.347  1.00  0.00     0.043 C 
BRANCH   5   6
ATOM      6  C   UNL     1       7.838   0.397  -0.294  1.00  0.00    -0.044 A 
ATOM      7  C   UNL     1       7.959  -0.554   0.726  1.00  0.00     0.008 A 
ATOM      8  C   UNL     1       6.735   1.221  -0.301  1.00  0.00     0.054 A 
ATOM      9  C   UNL     1       6.969  -0.636   1.688  1.00  0.00     0.051 A 
ATOM     10  C   UNL     1       5.738   1.135   0.675  1.00  0.00     0.166 A 
ATOM     11  C   UNL     1       5.855   0.199   1.677  1.00  0.00     0.165 A 
ATOM     12  O   UNL     1       4.564   1.829   0.882  1.00  0.00    -0.454 OA
ATOM     13  O   UNL     1       4.741   0.339   2.489  1.00  0.00    -0.454 OA
ATOM     14  C   UNL     1       3.942   1.421   2.073  1.00  0.00     0.468 C 
ENDBRANCH   5   6
ENDBRANCH   1   5
TORSDOF 3
ENDMDL
