@<TRIPOS>MOLECULE
/home/cewinharhar/GITHUB/reincatalyze/data/processed/docking_pred/2023-May-24-1506_sub9_nm5_bs15_s42_ex16_mel10_mts10000_k50_ec02_g099_lra3e-4_lrc3e-3/ae45d061dddc84380b8ad6f9293329cc64ca5b9d_ligand_9.pdbqt
 14 15 0 0 0
SMALL
GASTEIGER

@<TRIPOS>ATOM
      1  C          5.4510   -0.0360    2.0040 C.3     1  UNL1        0.0800
      2  C          4.5890    1.1490    1.7380 C.2     1  UNL1        0.1300
      3  C          4.8990    2.1110    0.6460 C.3     1  UNL1        0.0870
      4  O          3.5960    1.3660    2.4130 O.2     1  UNL1       -0.3000
      5  C          6.8800    0.2130    1.5630 C.3     1  UNL1        0.0430
      6  C          7.2970   -0.7250    0.5050 C.2     1  UNL1       -0.0440
      7  C          7.1480   -0.4120   -0.8510 C.2     1  UNL1        0.0080
      8  C          7.8490   -1.9380    0.8470 C.2     1  UNL1        0.0540
      9  C          7.5580   -1.3310   -1.8000 C.2     1  UNL1        0.0510
     10  C          8.2620   -2.8630   -0.1170 C.2     1  UNL1        0.1660
     11  C          8.1150   -2.5570   -1.4510 C.2     1  UNL1        0.1650
     12  O          8.8300   -4.1170   -0.0330 O.2     1  UNL1       -0.4540
     13  O          8.6020   -3.6390   -2.1670 O.2     1  UNL1       -0.4540
     14  C          9.1480   -4.6120   -1.3080 C.3     1  UNL1        0.4680
@<TRIPOS>BOND
     1    13    11    1
     2    13    14    1
     3     9    11    2
     4     9     7    1
     5    11    10    1
     6    14    12    1
     7     7     6    2
     8    10    12    1
     9    10     8    2
    10     6     8    1
    11     6     5    1
    12     3     2    1
    13     5     1    1
    14     2     1    1
    15     2     4    2
