@<TRIPOS>MOLECULE
/home/cewinharhar/GITHUB/reincatalyze/data/processed/docking_pred/2023-May-24-1506_sub9_nm5_bs15_s42_ex16_mel10_mts10000_k50_ec02_g099_lra3e-4_lrc3e-3/ae62664a3c9eef67376bdc077c2faa7ac5a69a78_ligand_9.pdbqt
 14 15 0 0 0
SMALL
GASTEIGER

@<TRIPOS>ATOM
      1  C          5.7420    1.5600   -0.1940 C.3     1  UNL1        0.0800
      2  C          5.0540    1.3220    1.1050 C.2     1  UNL1        0.1300
      3  C          5.4560    0.2130    2.0110 C.3     1  UNL1        0.0870
      4  O          4.1330    2.0370    1.4660 O.2     1  UNL1       -0.3000
      5  C          7.2260    1.2650   -0.0940 C.3     1  UNL1        0.0430
      6  C          7.5820    0.0100   -0.7790 C.2     1  UNL1       -0.0440
      7  C          7.5990   -0.0840   -2.1750 C.2     1  UNL1        0.0080
      8  C          7.9080   -1.1030   -0.0380 C.2     1  UNL1        0.0540
      9  C          7.9420   -1.2880   -2.7630 C.2     1  UNL1        0.0510
     10  C          8.2550   -2.3180   -0.6370 C.2     1  UNL1        0.1660
     11  C          8.2710   -2.4110   -2.0100 C.2     1  UNL1        0.1650
     12  O          8.6130   -3.5480   -0.1270 O.2     1  UNL1       -0.4540
     13  O          8.6440   -3.7100   -2.3200 O.2     1  UNL1       -0.4540
     14  C          8.9580   -4.4390   -1.1570 C.3     1  UNL1        0.4680
@<TRIPOS>BOND
     1     9     7    1
     2     9    11    2
     3    13    11    1
     4    13    14    1
     5     7     6    2
     6    11    10    1
     7    14    12    1
     8     6     5    1
     9     6     8    1
    10    10    12    1
    11    10     8    2
    12     1     5    1
    13     1     2    1
    14     2     4    2
    15     2     3    1
