@<TRIPOS>MOLECULE
/home/cewinharhar/GITHUB/reincatalyze/data/processed/docking_pred/2023-May-24-1506_sub9_nm5_bs15_s42_ex16_mel10_mts10000_k50_ec02_g099_lra3e-4_lrc3e-3/ae62664a3c9eef67376bdc077c2faa7ac5a69a78_ligand_9.pdbqt
 14 15 0 0 0
SMALL
GASTEIGER

@<TRIPOS>ATOM
      1  C          6.9710    1.0130    1.2090 C.3     1  UNL1        0.0800
      2  C          5.5020    1.1970    1.3740 C.2     1  UNL1        0.1300
      3  C          4.7350    2.1490    0.5270 C.3     1  UNL1        0.0870
      4  O          4.8820    0.5680    2.2160 O.2     1  UNL1       -0.3000
      5  C          7.3820    1.1380   -0.2450 C.3     1  UNL1        0.0430
      6  C          7.7130   -0.1720   -0.8340 C.2     1  UNL1       -0.0440
      7  C          7.7740   -0.3590   -2.2190 C.2     1  UNL1        0.0080
      8  C          7.9720   -1.2440   -0.0100 C.2     1  UNL1        0.0540
      9  C          8.0900   -1.6110   -2.7140 C.2     1  UNL1        0.0510
     10  C          8.2920   -2.5080   -0.5150 C.2     1  UNL1        0.1660
     11  C          8.3510   -2.6930   -1.8790 C.2     1  UNL1        0.1650
     12  O          8.5860   -3.7130    0.0860 O.2     1  UNL1       -0.4540
     13  O          8.6850   -4.0220   -2.0890 O.2     1  UNL1       -0.4540
     14  C          8.9320   -4.6820   -0.8710 C.3     1  UNL1        0.4680
@<TRIPOS>BOND
     1     9     7    1
     2     9    11    2
     3     7     6    2
     4    13    11    1
     5    13    14    1
     6    11    10    1
     7    14    12    1
     8     6     5    1
     9     6     8    1
    10    10     8    2
    11    10    12    1
    12     5     1    1
    13     3     2    1
    14     1     2    1
    15     2     4    2
