@<TRIPOS>MOLECULE
/home/cewinharhar/GITHUB/reincatalyze/data/processed/docking_pred/2023-May-24-1506_sub9_nm5_bs15_s42_ex16_mel10_mts10000_k50_ec02_g099_lra3e-4_lrc3e-3/ae62664a3c9eef67376bdc077c2faa7ac5a69a78_ligand_9.pdbqt
 14 15 0 0 0
SMALL
GASTEIGER

@<TRIPOS>ATOM
      1  C          6.3630    1.2010    0.9060 C.3     1  UNL1        0.0800
      2  C          5.6620    0.3830    1.9350 C.2     1  UNL1        0.1300
      3  C          6.2750   -0.8460    2.5060 C.3     1  UNL1        0.0870
      4  O          4.5560    0.7010    2.3410 O.2     1  UNL1       -0.3000
      5  C          5.8490    0.8920   -0.4870 C.3     1  UNL1        0.0430
      6  C          6.8110    0.0830   -1.2570 C.2     1  UNL1       -0.0440
      7  C          7.5140    0.6170   -2.3430 C.2     1  UNL1        0.0080
      8  C          7.0330   -1.2290   -0.9060 C.2     1  UNL1        0.0540
      9  C          8.4040   -0.1900   -3.0280 C.2     1  UNL1        0.0510
     10  C          7.9350   -2.0410   -1.6010 C.2     1  UNL1        0.1660
     11  C          8.6260   -1.5170   -2.6710 C.2     1  UNL1        0.1650
     12  O          8.3240   -3.3550   -1.4520 O.2     1  UNL1       -0.4540
     13  O          9.4350   -2.5300   -3.1610 O.2     1  UNL1       -0.4540
     14  C          9.3420   -3.6850   -2.3610 C.3     1  UNL1        0.4680
@<TRIPOS>BOND
     1    13    11    1
     2    13    14    1
     3     9    11    2
     4     9     7    1
     5    11    10    1
     6    14    12    1
     7     7     6    2
     8    10    12    1
     9    10     8    2
    10     6     8    1
    11     6     5    1
    12     5     1    1
    13     1     2    1
    14     2     4    2
    15     2     3    1
