MODEL 1
REMARK VINA RESULT:      -7.6      0.000      0.000
REMARK SMILES CC(=O)CCc1ccc2c(c1)OCO2
REMARK SMILES IDX 4 1 2 2 1 3 3 4 5 5 6 6 7 7 11 8 8 9 10 10 9 11 12 12 14 13
REMARK SMILES IDX 13 14
REMARK H PARENT
REMARK Flexibility Score: inf
ROOT
ATOM      1  C   UNL     1       5.546   1.900   1.281  1.00  0.00     0.080 C 
ENDROOT
BRANCH   1   2
ATOM      2  C   UNL     1       5.099   0.682   2.012  1.00  0.00     0.130 C 
ATOM      3  C   UNL     1       5.989  -0.498   2.179  1.00  0.00     0.087 C 
ATOM      4  O   UNL     1       3.982   0.617   2.498  1.00  0.00    -0.300 OA
ENDBRANCH   1   2
BRANCH   1   5
ATOM      5  C   UNL     1       5.415   1.721  -0.219  1.00  0.00     0.043 C 
BRANCH   5   6
ATOM      6  C   UNL     1       6.580   1.022  -0.790  1.00  0.00    -0.044 A 
ATOM      7  C   UNL     1       7.888   1.456  -0.545  1.00  0.00     0.008 A 
ATOM      8  C   UNL     1       6.389  -0.088  -1.581  1.00  0.00     0.054 A 
ATOM      9  C   UNL     1       8.942   0.760  -1.107  1.00  0.00     0.051 A 
ATOM     10  C   UNL     1       7.459  -0.789  -2.146  1.00  0.00     0.166 A 
ATOM     11  C   UNL     1       8.746  -0.361  -1.907  1.00  0.00     0.165 A 
ATOM     12  O   UNL     1       7.530  -1.903  -2.956  1.00  0.00    -0.454 OA
ATOM     13  O   UNL     1       9.589  -1.231  -2.581  1.00  0.00    -0.454 OA
ATOM     14  C   UNL     1       8.864  -2.276  -3.184  1.00  0.00     0.468 C 
ENDBRANCH   5   6
ENDBRANCH   1   5
TORSDOF 3
ENDMDL
MODEL 2
REMARK VINA RESULT:      -7.3      1.805      2.224
REMARK SMILES CC(=O)CCc1ccc2c(c1)OCO2
REMARK SMILES IDX 4 1 2 2 1 3 3 4 5 5 6 6 7 7 11 8 8 9 10 10 9 11 12 12 14 13
REMARK SMILES IDX 13 14
REMARK H PARENT
REMARK Flexibility Score: inf
ROOT
ATOM      1  C   UNL     1       5.742   1.560  -0.194  1.00  0.00     0.080 C 
ENDROOT
BRANCH   1   2
ATOM      2  C   UNL     1       5.054   1.322   1.105  1.00  0.00     0.130 C 
ATOM      3  C   UNL     1       5.456   0.213   2.011  1.00  0.00     0.087 C 
ATOM      4  O   UNL     1       4.133   2.037   1.466  1.00  0.00    -0.300 OA
ENDBRANCH   1   2
BRANCH   1   5
ATOM      5  C   UNL     1       7.226   1.265  -0.094  1.00  0.00     0.043 C 
BRANCH   5   6
ATOM      6  C   UNL     1       7.582   0.010  -0.779  1.00  0.00    -0.044 A 
ATOM      7  C   UNL     1       7.599  -0.084  -2.175  1.00  0.00     0.008 A 
ATOM      8  C   UNL     1       7.908  -1.103  -0.038  1.00  0.00     0.054 A 
ATOM      9  C   UNL     1       7.942  -1.288  -2.763  1.00  0.00     0.051 A 
ATOM     10  C   UNL     1       8.255  -2.318  -0.637  1.00  0.00     0.166 A 
ATOM     11  C   UNL     1       8.271  -2.411  -2.010  1.00  0.00     0.165 A 
ATOM     12  O   UNL     1       8.613  -3.548  -0.127  1.00  0.00    -0.454 OA
ATOM     13  O   UNL     1       8.644  -3.710  -2.320  1.00  0.00    -0.454 OA
ATOM     14  C   UNL     1       8.958  -4.439  -1.157  1.00  0.00     0.468 C 
ENDBRANCH   5   6
ENDBRANCH   1   5
TORSDOF 3
ENDMDL
MODEL 3
REMARK VINA RESULT:      -7.2      2.053      2.621
REMARK SMILES CC(=O)CCc1ccc2c(c1)OCO2
REMARK SMILES IDX 4 1 2 2 1 3 3 4 5 5 6 6 7 7 11 8 8 9 10 10 9 11 12 12 14 13
REMARK SMILES IDX 13 14
REMARK H PARENT
REMARK Flexibility Score: inf
ROOT
ATOM      1  C   UNL     1       5.435  -0.048   2.010  1.00  0.00     0.080 C 
ENDROOT
BRANCH   1   2
ATOM      2  C   UNL     1       4.578   1.145   1.763  1.00  0.00     0.130 C 
ATOM      3  C   UNL     1       4.893   2.125   0.689  1.00  0.00     0.087 C 
ATOM      4  O   UNL     1       3.585   1.355   2.442  1.00  0.00    -0.300 OA
ENDBRANCH   1   2
BRANCH   1   5
ATOM      5  C   UNL     1       6.866   0.204   1.578  1.00  0.00     0.043 C 
BRANCH   5   6
ATOM      6  C   UNL     1       7.287  -0.725   0.514  1.00  0.00    -0.044 A 
ATOM      7  C   UNL     1       7.152  -0.399  -0.840  1.00  0.00     0.008 A 
ATOM      8  C   UNL     1       7.830  -1.945   0.849  1.00  0.00     0.054 A 
ATOM      9  C   UNL     1       7.566  -1.311  -1.794  1.00  0.00     0.051 A 
ATOM     10  C   UNL     1       8.248  -2.863  -0.119  1.00  0.00     0.166 A 
ATOM     11  C   UNL     1       8.114  -2.543  -1.452  1.00  0.00     0.165 A 
ATOM     12  O   UNL     1       8.809  -4.120  -0.043  1.00  0.00    -0.454 OA
ATOM     13  O   UNL     1       8.601  -3.621  -2.174  1.00  0.00    -0.454 OA
ATOM     14  C   UNL     1       9.135  -4.605  -1.320  1.00  0.00     0.468 C 
ENDBRANCH   5   6
ENDBRANCH   1   5
TORSDOF 3
ENDMDL
MODEL 4
REMARK VINA RESULT:      -7.1      1.246      1.453
REMARK SMILES CC(=O)CCc1ccc2c(c1)OCO2
REMARK SMILES IDX 4 1 2 2 1 3 3 4 5 5 6 6 7 7 11 8 8 9 10 10 9 11 12 12 14 13
REMARK SMILES IDX 13 14
REMARK H PARENT
REMARK Flexibility Score: inf
ROOT
ATOM      1  C   UNL     1       6.363   1.201   0.906  1.00  0.00     0.080 C 
ENDROOT
BRANCH   1   2
ATOM      2  C   UNL     1       5.662   0.383   1.935  1.00  0.00     0.130 C 
ATOM      3  C   UNL     1       6.275  -0.846   2.506  1.00  0.00     0.087 C 
ATOM      4  O   UNL     1       4.556   0.701   2.341  1.00  0.00    -0.300 OA
ENDBRANCH   1   2
BRANCH   1   5
ATOM      5  C   UNL     1       5.849   0.892  -0.487  1.00  0.00     0.043 C 
BRANCH   5   6
ATOM      6  C   UNL     1       6.811   0.083  -1.257  1.00  0.00    -0.044 A 
ATOM      7  C   UNL     1       7.514   0.617  -2.343  1.00  0.00     0.008 A 
ATOM      8  C   UNL     1       7.033  -1.229  -0.906  1.00  0.00     0.054 A 
ATOM      9  C   UNL     1       8.404  -0.190  -3.028  1.00  0.00     0.051 A 
ATOM     10  C   UNL     1       7.935  -2.041  -1.601  1.00  0.00     0.166 A 
ATOM     11  C   UNL     1       8.626  -1.517  -2.671  1.00  0.00     0.165 A 
ATOM     12  O   UNL     1       8.324  -3.355  -1.452  1.00  0.00    -0.454 OA
ATOM     13  O   UNL     1       9.435  -2.530  -3.161  1.00  0.00    -0.454 OA
ATOM     14  C   UNL     1       9.342  -3.685  -2.361  1.00  0.00     0.468 C 
ENDBRANCH   5   6
ENDBRANCH   1   5
TORSDOF 3
ENDMDL
MODEL 5
REMARK VINA RESULT:      -7.0      1.971      2.531
REMARK SMILES CC(=O)CCc1ccc2c(c1)OCO2
REMARK SMILES IDX 4 1 2 2 1 3 3 4 5 5 6 6 7 7 11 8 8 9 10 10 9 11 12 12 14 13
REMARK SMILES IDX 13 14
REMARK H PARENT
REMARK Flexibility Score: inf
ROOT
ATOM      1  C   UNL     1       6.971   1.013   1.209  1.00  0.00     0.080 C 
ENDROOT
BRANCH   1   2
ATOM      2  C   UNL     1       5.502   1.197   1.374  1.00  0.00     0.130 C 
ATOM      3  C   UNL     1       4.735   2.149   0.527  1.00  0.00     0.087 C 
ATOM      4  O   UNL     1       4.882   0.568   2.216  1.00  0.00    -0.300 OA
ENDBRANCH   1   2
BRANCH   1   5
ATOM      5  C   UNL     1       7.382   1.138  -0.245  1.00  0.00     0.043 C 
BRANCH   5   6
ATOM      6  C   UNL     1       7.713  -0.172  -0.834  1.00  0.00    -0.044 A 
ATOM      7  C   UNL     1       7.774  -0.359  -2.219  1.00  0.00     0.008 A 
ATOM      8  C   UNL     1       7.972  -1.244  -0.010  1.00  0.00     0.054 A 
ATOM      9  C   UNL     1       8.090  -1.611  -2.714  1.00  0.00     0.051 A 
ATOM     10  C   UNL     1       8.292  -2.508  -0.515  1.00  0.00     0.166 A 
ATOM     11  C   UNL     1       8.351  -2.693  -1.879  1.00  0.00     0.165 A 
ATOM     12  O   UNL     1       8.586  -3.713   0.086  1.00  0.00    -0.454 OA
ATOM     13  O   UNL     1       8.685  -4.022  -2.089  1.00  0.00    -0.454 OA
ATOM     14  C   UNL     1       8.932  -4.682  -0.871  1.00  0.00     0.468 C 
ENDBRANCH   5   6
ENDBRANCH   1   5
TORSDOF 3
ENDMDL
