@<TRIPOS>MOLECULE
/home/cewinharhar/GITHUB/reincatalyze/data/processed/docking_pred/2023-May-24-1506_sub9_nm5_bs15_s42_ex16_mel10_mts10000_k50_ec02_g099_lra3e-4_lrc3e-3/ae62664a3c9eef67376bdc077c2faa7ac5a69a78_ligand_9.pdbqt
 14 15 0 0 0
SMALL
GASTEIGER

@<TRIPOS>ATOM
      1  C          5.5460    1.9000    1.2810 C.3     1  UNL1        0.0800
      2  C          5.0990    0.6820    2.0120 C.2     1  UNL1        0.1300
      3  C          5.9890   -0.4980    2.1790 C.3     1  UNL1        0.0870
      4  O          3.9820    0.6170    2.4980 O.2     1  UNL1       -0.3000
      5  C          5.4150    1.7210   -0.2190 C.3     1  UNL1        0.0430
      6  C          6.5800    1.0220   -0.7900 C.2     1  UNL1       -0.0440
      7  C          7.8880    1.4560   -0.5450 C.2     1  UNL1        0.0080
      8  C          6.3890   -0.0880   -1.5810 C.2     1  UNL1        0.0540
      9  C          8.9420    0.7600   -1.1070 C.2     1  UNL1        0.0510
     10  C          7.4590   -0.7890   -2.1460 C.2     1  UNL1        0.1660
     11  C          8.7460   -0.3610   -1.9070 C.2     1  UNL1        0.1650
     12  O          7.5300   -1.9030   -2.9560 O.2     1  UNL1       -0.4540
     13  O          9.5890   -1.2310   -2.5810 O.2     1  UNL1       -0.4540
     14  C          8.8640   -2.2760   -3.1840 C.3     1  UNL1        0.4680
@<TRIPOS>BOND
     1    14    12    1
     2    14    13    1
     3    12    10    1
     4    13    11    1
     5    10    11    2
     6    10     8    1
     7    11     9    1
     8     8     6    2
     9     9     7    2
    10     6     7    1
    11     6     5    1
    12     5     1    1
    13     1     2    1
    14     2     3    1
    15     2     4    2
