@<TRIPOS>MOLECULE
/home/cewinharhar/GITHUB/reincatalyze/data/processed/docking_pred/2023-May-24-1506_sub9_nm5_bs15_s42_ex16_mel10_mts10000_k50_ec02_g099_lra3e-4_lrc3e-3/af0dd28332db5651a88784e76b435690c0a42449_ligand_9.pdbqt
 14 15 0 0 0
SMALL
GASTEIGER

@<TRIPOS>ATOM
      1  C          5.7580    1.3420   -0.2950 C.3     1  UNL1        0.0800
      2  C          5.1330    1.2550    1.0550 C.2     1  UNL1        0.1300
      3  C          5.3530    0.0830    1.9430 C.3     1  UNL1        0.0870
      4  O          4.4150    2.1500    1.4720 O.2     1  UNL1       -0.3000
      5  C          7.2500    1.0830   -0.2270 C.3     1  UNL1        0.0430
      6  C          7.6090   -0.2080   -0.8410 C.2     1  UNL1       -0.0440
      7  C          7.6330   -0.3790   -2.2290 C.2     1  UNL1        0.0080
      8  C          7.9310   -1.2790   -0.0370 C.2     1  UNL1        0.0540
      9  C          7.9780   -1.6140   -2.7480 C.2     1  UNL1        0.0510
     10  C          8.2800   -2.5250   -0.5670 C.2     1  UNL1        0.1660
     11  C          8.3030   -2.6940   -1.9330 C.2     1  UNL1        0.1650
     12  O          8.6350   -3.7250    0.0110 O.2     1  UNL1       -0.4540
     13  O          8.6770   -4.0070   -2.1690 O.2     1  UNL1       -0.4540
     14  C          8.9850   -4.6710   -0.9660 C.3     1  UNL1        0.4680
@<TRIPOS>BOND
     1     9     7    1
     2     9    11    2
     3     7     6    2
     4    13    11    1
     5    13    14    1
     6    11    10    1
     7    14    12    1
     8     6     5    1
     9     6     8    1
    10    10     8    2
    11    10    12    1
    12     1     5    1
    13     1     2    1
    14     2     4    2
    15     2     3    1
