@<TRIPOS>MOLECULE
/home/cewinharhar/GITHUB/reincatalyze/data/processed/docking_pred/2023-May-24-1506_sub9_nm5_bs15_s42_ex16_mel10_mts10000_k50_ec02_g099_lra3e-4_lrc3e-3/af0dd28332db5651a88784e76b435690c0a42449_ligand_9.pdbqt
 14 15 0 0 0
SMALL
GASTEIGER

@<TRIPOS>ATOM
      1  C          5.4320   -0.0340    2.0350 C.3     1  UNL1        0.0800
      2  C          4.5660    1.1490    1.7700 C.2     1  UNL1        0.1300
      3  C          4.8940    2.1340    0.7050 C.3     1  UNL1        0.0870
      4  O          3.5550    1.3450    2.4260 O.2     1  UNL1       -0.3000
      5  C          6.8610    0.2220    1.6000 C.3     1  UNL1        0.0430
      6  C          7.2840   -0.7070    0.5370 C.2     1  UNL1       -0.0440
      7  C          7.1590   -0.3770   -0.8170 C.2     1  UNL1        0.0080
      8  C          7.8190   -1.9300    0.8730 C.2     1  UNL1        0.0540
      9  C          7.5740   -1.2890   -1.7710 C.2     1  UNL1        0.0510
     10  C          8.2380   -2.8480   -0.0950 C.2     1  UNL1        0.1660
     11  C          8.1140   -2.5240   -1.4280 C.2     1  UNL1        0.1650
     12  O          8.7920   -4.1080   -0.0180 O.2     1  UNL1       -0.4540
     13  O          8.6000   -3.6040   -2.1490 O.2     1  UNL1       -0.4540
     14  C          9.1240   -4.5920   -1.2940 C.3     1  UNL1        0.4680
@<TRIPOS>BOND
     1    13    11    1
     2    13    14    1
     3     9    11    2
     4     9     7    1
     5    11    10    1
     6    14    12    1
     7     7     6    2
     8    10    12    1
     9    10     8    2
    10     6     8    1
    11     6     5    1
    12     3     2    1
    13     5     1    1
    14     2     1    1
    15     2     4    2
