MODEL 1
REMARK VINA RESULT:      -7.6      0.000      0.000
REMARK SMILES CC(=O)CCc1ccc2c(c1)OCO2
REMARK SMILES IDX 4 1 2 2 1 3 3 4 5 5 6 6 7 7 11 8 8 9 10 10 9 11 12 12 14 13
REMARK SMILES IDX 13 14
REMARK H PARENT
REMARK Flexibility Score: inf
ROOT
ATOM      1  C   UNL     1       5.545   1.892   1.277  1.00  0.00     0.080 C 
ENDROOT
BRANCH   1   2
ATOM      2  C   UNL     1       5.102   0.674   2.009  1.00  0.00     0.130 C 
ATOM      3  C   UNL     1       5.991  -0.508   2.169  1.00  0.00     0.087 C 
ATOM      4  O   UNL     1       3.987   0.609   2.502  1.00  0.00    -0.300 OA
ENDBRANCH   1   2
BRANCH   1   5
ATOM      5  C   UNL     1       5.413   1.712  -0.223  1.00  0.00     0.043 C 
BRANCH   5   6
ATOM      6  C   UNL     1       6.578   1.012  -0.793  1.00  0.00    -0.044 A 
ATOM      7  C   UNL     1       7.886   1.446  -0.549  1.00  0.00     0.008 A 
ATOM      8  C   UNL     1       6.386  -0.097  -1.585  1.00  0.00     0.054 A 
ATOM      9  C   UNL     1       8.940   0.749  -1.111  1.00  0.00     0.051 A 
ATOM     10  C   UNL     1       7.456  -0.799  -2.150  1.00  0.00     0.166 A 
ATOM     11  C   UNL     1       8.743  -0.372  -1.911  1.00  0.00     0.165 A 
ATOM     12  O   UNL     1       7.526  -1.913  -2.960  1.00  0.00    -0.454 OA
ATOM     13  O   UNL     1       9.585  -1.242  -2.586  1.00  0.00    -0.454 OA
ATOM     14  C   UNL     1       8.860  -2.287  -3.189  1.00  0.00     0.468 C 
ENDBRANCH   5   6
ENDBRANCH   1   5
TORSDOF 3
ENDMDL
MODEL 2
REMARK VINA RESULT:      -7.4      1.938      2.402
REMARK SMILES CC(=O)CCc1ccc2c(c1)OCO2
REMARK SMILES IDX 4 1 2 2 1 3 3 4 5 5 6 6 7 7 11 8 8 9 10 10 9 11 12 12 14 13
REMARK SMILES IDX 13 14
REMARK H PARENT
REMARK Flexibility Score: inf
ROOT
ATOM      1  C   UNL     1       5.758   1.342  -0.295  1.00  0.00     0.080 C 
ENDROOT
BRANCH   1   2
ATOM      2  C   UNL     1       5.133   1.255   1.055  1.00  0.00     0.130 C 
ATOM      3  C   UNL     1       5.353   0.083   1.943  1.00  0.00     0.087 C 
ATOM      4  O   UNL     1       4.415   2.150   1.472  1.00  0.00    -0.300 OA
ENDBRANCH   1   2
BRANCH   1   5
ATOM      5  C   UNL     1       7.250   1.083  -0.227  1.00  0.00     0.043 C 
BRANCH   5   6
ATOM      6  C   UNL     1       7.609  -0.208  -0.841  1.00  0.00    -0.044 A 
ATOM      7  C   UNL     1       7.633  -0.379  -2.229  1.00  0.00     0.008 A 
ATOM      8  C   UNL     1       7.931  -1.279  -0.037  1.00  0.00     0.054 A 
ATOM      9  C   UNL     1       7.978  -1.614  -2.748  1.00  0.00     0.051 A 
ATOM     10  C   UNL     1       8.280  -2.525  -0.567  1.00  0.00     0.166 A 
ATOM     11  C   UNL     1       8.303  -2.694  -1.933  1.00  0.00     0.165 A 
ATOM     12  O   UNL     1       8.635  -3.725   0.011  1.00  0.00    -0.454 OA
ATOM     13  O   UNL     1       8.677  -4.007  -2.169  1.00  0.00    -0.454 OA
ATOM     14  C   UNL     1       8.985  -4.671  -0.966  1.00  0.00     0.468 C 
ENDBRANCH   5   6
ENDBRANCH   1   5
TORSDOF 3
ENDMDL
MODEL 3
REMARK VINA RESULT:      -7.2      2.050      2.615
REMARK SMILES CC(=O)CCc1ccc2c(c1)OCO2
REMARK SMILES IDX 4 1 2 2 1 3 3 4 5 5 6 6 7 7 11 8 8 9 10 10 9 11 12 12 14 13
REMARK SMILES IDX 13 14
REMARK H PARENT
REMARK Flexibility Score: inf
ROOT
ATOM      1  C   UNL     1       5.432  -0.034   2.035  1.00  0.00     0.080 C 
ENDROOT
BRANCH   1   2
ATOM      2  C   UNL     1       4.566   1.149   1.770  1.00  0.00     0.130 C 
ATOM      3  C   UNL     1       4.894   2.134   0.705  1.00  0.00     0.087 C 
ATOM      4  O   UNL     1       3.555   1.345   2.426  1.00  0.00    -0.300 OA
ENDBRANCH   1   2
BRANCH   1   5
ATOM      5  C   UNL     1       6.861   0.222   1.600  1.00  0.00     0.043 C 
BRANCH   5   6
ATOM      6  C   UNL     1       7.284  -0.707   0.537  1.00  0.00    -0.044 A 
ATOM      7  C   UNL     1       7.159  -0.377  -0.817  1.00  0.00     0.008 A 
ATOM      8  C   UNL     1       7.819  -1.930   0.873  1.00  0.00     0.054 A 
ATOM      9  C   UNL     1       7.574  -1.289  -1.771  1.00  0.00     0.051 A 
ATOM     10  C   UNL     1       8.238  -2.848  -0.095  1.00  0.00     0.166 A 
ATOM     11  C   UNL     1       8.114  -2.524  -1.428  1.00  0.00     0.165 A 
ATOM     12  O   UNL     1       8.792  -4.108  -0.018  1.00  0.00    -0.454 OA
ATOM     13  O   UNL     1       8.600  -3.604  -2.149  1.00  0.00    -0.454 OA
ATOM     14  C   UNL     1       9.124  -4.592  -1.294  1.00  0.00     0.468 C 
ENDBRANCH   5   6
ENDBRANCH   1   5
TORSDOF 3
ENDMDL
MODEL 4
REMARK VINA RESULT:      -7.1      1.248      1.452
REMARK SMILES CC(=O)CCc1ccc2c(c1)OCO2
REMARK SMILES IDX 4 1 2 2 1 3 3 4 5 5 6 6 7 7 11 8 8 9 10 10 9 11 12 12 14 13
REMARK SMILES IDX 13 14
REMARK H PARENT
REMARK Flexibility Score: inf
ROOT
ATOM      1  C   UNL     1       6.388   1.232   0.909  1.00  0.00     0.080 C 
ENDROOT
BRANCH   1   2
ATOM      2  C   UNL     1       5.691   0.395   1.925  1.00  0.00     0.130 C 
ATOM      3  C   UNL     1       6.341  -0.794   2.537  1.00  0.00     0.087 C 
ATOM      4  O   UNL     1       4.556   0.664   2.286  1.00  0.00    -0.300 OA
ENDBRANCH   1   2
BRANCH   1   5
ATOM      5  C   UNL     1       5.879   0.938  -0.489  1.00  0.00     0.043 C 
BRANCH   5   6
ATOM      6  C   UNL     1       6.828   0.109  -1.253  1.00  0.00    -0.044 A 
ATOM      7  C   UNL     1       7.532   0.621  -2.349  1.00  0.00     0.008 A 
ATOM      8  C   UNL     1       7.036  -1.202  -0.887  1.00  0.00     0.054 A 
ATOM      9  C   UNL     1       8.410  -0.205  -3.028  1.00  0.00     0.051 A 
ATOM     10  C   UNL     1       7.925  -2.032  -1.576  1.00  0.00     0.166 A 
ATOM     11  C   UNL     1       8.617  -1.530  -2.656  1.00  0.00     0.165 A 
ATOM     12  O   UNL     1       8.300  -3.349  -1.413  1.00  0.00    -0.454 OA
ATOM     13  O   UNL     1       9.412  -2.558  -3.136  1.00  0.00    -0.454 OA
ATOM     14  C   UNL     1       9.310  -3.702  -2.322  1.00  0.00     0.468 C 
ENDBRANCH   5   6
ENDBRANCH   1   5
TORSDOF 3
ENDMDL
MODEL 5
REMARK VINA RESULT:      -6.8      1.183      5.172
REMARK SMILES CC(=O)CCc1ccc2c(c1)OCO2
REMARK SMILES IDX 4 1 2 2 1 3 3 4 5 5 6 6 7 7 11 8 8 9 10 10 9 11 12 12 14 13
REMARK SMILES IDX 13 14
REMARK H PARENT
REMARK Flexibility Score: inf
ROOT
ATOM      1  C   UNL     1       8.324   0.200  -2.665  1.00  0.00     0.080 C 
ENDROOT
BRANCH   1   2
ATOM      2  C   UNL     1       8.051  -1.261  -2.759  1.00  0.00     0.130 C 
ATOM      3  C   UNL     1       9.133  -2.242  -3.039  1.00  0.00     0.087 C 
ATOM      4  O   UNL     1       6.921  -1.698  -2.608  1.00  0.00    -0.300 OA
ENDBRANCH   1   2
BRANCH   1   5
ATOM      5  C   UNL     1       8.850   0.575  -1.293  1.00  0.00     0.043 C 
BRANCH   5   6
ATOM      6  C   UNL     1       7.817   0.426  -0.253  1.00  0.00    -0.044 A 
ATOM      7  C   UNL     1       7.924  -0.541   0.753  1.00  0.00     0.008 A 
ATOM      8  C   UNL     1       6.718   1.255  -0.260  1.00  0.00     0.054 A 
ATOM      9  C   UNL     1       6.923  -0.633   1.704  1.00  0.00     0.051 A 
ATOM     10  C   UNL     1       5.710   1.158   0.704  1.00  0.00     0.166 A 
ATOM     11  C   UNL     1       5.813   0.206   1.694  1.00  0.00     0.165 A 
ATOM     12  O   UNL     1       4.536   1.852   0.910  1.00  0.00    -0.454 OA
ATOM     13  O   UNL     1       4.690   0.337   2.496  1.00  0.00    -0.454 OA
ATOM     14  C   UNL     1       3.900   1.429   2.088  1.00  0.00     0.468 C 
ENDBRANCH   5   6
ENDBRANCH   1   5
TORSDOF 3
ENDMDL
