@<TRIPOS>MOLECULE
/home/cewinharhar/GITHUB/reincatalyze/data/processed/docking_pred/2023-May-24-1506_sub9_nm5_bs15_s42_ex16_mel10_mts10000_k50_ec02_g099_lra3e-4_lrc3e-3/af895cae38f50b8ad608cacdd29f7ae1ddca485c_ligand_9.pdbqt
 14 15 0 0 0
SMALL
GASTEIGER

@<TRIPOS>ATOM
      1  C          5.5460    1.9360    1.2700 C.3     1  UNL1        0.0800
      2  C          5.1270    0.7160    2.0160 C.2     1  UNL1        0.1300
      3  C          6.0440   -0.4410    2.1990 C.3     1  UNL1        0.0870
      4  O          4.0110    0.6320    2.5020 O.2     1  UNL1       -0.3000
      5  C          5.4130    1.7390   -0.2270 C.3     1  UNL1        0.0430
      6  C          6.5780    1.0340   -0.7910 C.2     1  UNL1       -0.0440
      7  C          7.8870    1.4610   -0.5350 C.2     1  UNL1        0.0080
      8  C          6.3870   -0.0720   -1.5870 C.2     1  UNL1        0.0540
      9  C          8.9410    0.7600   -1.0910 C.2     1  UNL1        0.0510
     10  C          7.4570   -0.7780   -2.1460 C.2     1  UNL1        0.1660
     11  C          8.7450   -0.3580   -1.8960 C.2     1  UNL1        0.1650
     12  O          7.5270   -1.8890   -2.9590 O.2     1  UNL1       -0.4540
     13  O          9.5880   -1.2300   -2.5670 O.2     1  UNL1       -0.4540
     14  C          8.8610   -2.2690   -3.1790 C.3     1  UNL1        0.4680
@<TRIPOS>BOND
     1    14    12    1
     2    14    13    1
     3    12    10    1
     4    13    11    1
     5    10    11    2
     6    10     8    1
     7    11     9    1
     8     8     6    2
     9     9     7    2
    10     6     7    1
    11     6     5    1
    12     5     1    1
    13     1     2    1
    14     2     3    1
    15     2     4    2
