@<TRIPOS>MOLECULE
/home/cewinharhar/GITHUB/reincatalyze/data/processed/docking_pred/2023-May-24-1506_sub9_nm5_bs15_s42_ex16_mel10_mts10000_k50_ec02_g099_lra3e-4_lrc3e-3/af9628f04dddfdfce7c60ac864c84e5664a7a69f_ligand_9.pdbqt
 14 15 0 0 0
SMALL
GASTEIGER

@<TRIPOS>ATOM
      1  C          6.3630    1.2330    0.9590 C.3     1  UNL1        0.0800
      2  C          5.6590    0.3630    1.9410 C.2     1  UNL1        0.1300
      3  C          6.3000   -0.8530    2.5070 C.3     1  UNL1        0.0870
      4  O          4.5260    0.6270    2.3120 O.2     1  UNL1       -0.3000
      5  C          5.8610    0.9910   -0.4510 C.3     1  UNL1        0.0430
      6  C          6.7980    0.1630   -1.2300 C.2     1  UNL1       -0.0440
      7  C          7.4850    0.6760   -2.3360 C.2     1  UNL1        0.0080
      8  C          7.0130   -1.1480   -0.8690 C.2     1  UNL1        0.0540
      9  C          8.3530   -0.1480   -3.0290 C.2     1  UNL1        0.0510
     10  C          7.8930   -1.9770   -1.5720 C.2     1  UNL1        0.1660
     11  C          8.5680   -1.4720   -2.6620 C.2     1  UNL1        0.1650
     12  O          8.2720   -3.2930   -1.4160 O.2     1  UNL1       -0.4540
     13  O          9.3560   -2.5000   -3.1550 O.2     1  UNL1       -0.4540
     14  C          9.2680   -3.6450   -2.3410 C.3     1  UNL1        0.4680
@<TRIPOS>BOND
     1    13    11    1
     2    13    14    1
     3     9    11    2
     4     9     7    1
     5    11    10    1
     6    14    12    1
     7     7     6    2
     8    10    12    1
     9    10     8    2
    10     6     8    1
    11     6     5    1
    12     5     1    1
    13     1     2    1
    14     2     4    2
    15     2     3    1
