@<TRIPOS>MOLECULE
/home/cewinharhar/GITHUB/reincatalyze/data/processed/docking_pred/2023-May-24-1506_sub9_nm5_bs15_s42_ex16_mel10_mts10000_k50_ec02_g099_lra3e-4_lrc3e-3/af9628f04dddfdfce7c60ac864c84e5664a7a69f_ligand_9.pdbqt
 14 15 0 0 0
SMALL
GASTEIGER

@<TRIPOS>ATOM
      1  C          5.4500   -0.0280    2.0050 C.3     1  UNL1        0.0800
      2  C          4.5800    1.1560    1.7620 C.2     1  UNL1        0.1300
      3  C          4.8870    2.1450    0.6950 C.3     1  UNL1        0.0870
      4  O          3.5820    1.3500    2.4380 O.2     1  UNL1       -0.3000
      5  C          6.8730    0.2330    1.5530 C.3     1  UNL1        0.0430
      6  C          7.2940   -0.7110    0.5020 C.2     1  UNL1       -0.0440
      7  C          7.1630   -0.4020   -0.8560 C.2     1  UNL1        0.0080
      8  C          7.8330   -1.9280    0.8550 C.2     1  UNL1        0.0540
      9  C          7.5760   -1.3270   -1.7980 C.2     1  UNL1        0.0510
     10  C          8.2500   -2.8590   -0.1010 C.2     1  UNL1        0.1660
     11  C          8.1190   -2.5570   -1.4380 C.2     1  UNL1        0.1650
     12  O          8.8070   -4.1170   -0.0070 O.2     1  UNL1       -0.4540
     13  O          8.6050   -3.6460   -2.1450 O.2     1  UNL1       -0.4540
     14  C          9.1350   -4.6190   -1.2770 C.3     1  UNL1        0.4680
@<TRIPOS>BOND
     1    13    11    1
     2    13    14    1
     3     9    11    2
     4     9     7    1
     5    11    10    1
     6    14    12    1
     7     7     6    2
     8    10    12    1
     9    10     8    2
    10     6     8    1
    11     6     5    1
    12     3     2    1
    13     5     1    1
    14     2     1    1
    15     2     4    2
