@<TRIPOS>MOLECULE
/home/cewinharhar/GITHUB/reincatalyze/data/processed/docking_pred/2023-May-24-1506_sub9_nm5_bs15_s42_ex16_mel10_mts10000_k50_ec02_g099_lra3e-4_lrc3e-3/af9628f04dddfdfce7c60ac864c84e5664a7a69f_ligand_9.pdbqt
 14 15 0 0 0
SMALL
GASTEIGER

@<TRIPOS>ATOM
      1  C          6.9400    0.9610    1.1720 C.3     1  UNL1        0.0800
      2  C          5.4830    1.1430    1.4200 C.2     1  UNL1        0.1300
      3  C          4.6840    2.1500    0.6720 C.3     1  UNL1        0.0870
      4  O          4.8990    0.4660    2.2500 O.2     1  UNL1       -0.3000
      5  C          7.2690    1.0910   -0.3020 C.3     1  UNL1        0.0430
      6  C          7.6460   -0.2050   -0.8940 C.2     1  UNL1       -0.0440
      7  C          7.7590   -0.3730   -2.2790 C.2     1  UNL1        0.0080
      8  C          7.8970   -1.2820   -0.0750 C.2     1  UNL1        0.0540
      9  C          8.1180   -1.6120   -2.7780 C.2     1  UNL1        0.0510
     10  C          8.2600   -2.5330   -0.5840 C.2     1  UNL1        0.1660
     11  C          8.3710   -2.6990   -1.9470 C.2     1  UNL1        0.1650
     12  O          8.5560   -3.7400    0.0120 O.2     1  UNL1       -0.4540
     13  O          8.7380   -4.0190   -2.1610 O.2     1  UNL1       -0.4540
     14  C          8.9550   -4.6900   -0.9430 C.3     1  UNL1        0.4680
@<TRIPOS>BOND
     1     9     7    1
     2     9    11    2
     3     7     6    2
     4    13    11    1
     5    13    14    1
     6    11    10    1
     7    14    12    1
     8     6     5    1
     9     6     8    1
    10    10     8    2
    11    10    12    1
    12     5     1    1
    13     3     2    1
    14     1     2    1
    15     2     4    2
