@<TRIPOS>MOLECULE
/home/cewinharhar/GITHUB/reincatalyze/data/processed/docking_pred/2023-May-24-1506_sub9_nm5_bs15_s42_ex16_mel10_mts10000_k50_ec02_g099_lra3e-4_lrc3e-3/b0253e2818c1de1129519fa2afa58b59888d8d60_ligand_9.pdbqt
 14 15 0 0 0
SMALL
GASTEIGER

@<TRIPOS>ATOM
      1  C          6.3320    1.2650    0.8510 C.3     1  UNL1        0.0800
      2  C          5.6590    0.4480    1.8980 C.2     1  UNL1        0.1300
      3  C          6.2960   -0.7690    2.4680 C.3     1  UNL1        0.0870
      4  O          4.5560    0.7560    2.3210 O.2     1  UNL1       -0.3000
      5  C          5.8210    0.9160   -0.5330 C.3     1  UNL1        0.0430
      6  C          6.7960    0.1080   -1.2870 C.2     1  UNL1       -0.0440
      7  C          7.5280    0.6470   -2.3510 C.2     1  UNL1        0.0080
      8  C          7.0000   -1.2090   -0.9440 C.2     1  UNL1        0.0540
      9  C          8.4290   -0.1590   -3.0220 C.2     1  UNL1        0.0510
     10  C          7.9130   -2.0200   -1.6260 C.2     1  UNL1        0.1660
     11  C          8.6330   -1.4910   -2.6730 C.2     1  UNL1        0.1650
     12  O          8.2900   -3.3380   -1.4800 O.2     1  UNL1       -0.4540
     13  O          9.4470   -2.5050   -3.1530 O.2     1  UNL1       -0.4540
     14  C          9.3280   -3.6670   -2.3670 C.3     1  UNL1        0.4680
@<TRIPOS>BOND
     1    13    11    1
     2    13    14    1
     3     9    11    2
     4     9     7    1
     5    11    10    1
     6    14    12    1
     7     7     6    2
     8    10    12    1
     9    10     8    2
    10     6     8    1
    11     6     5    1
    12     5     1    1
    13     1     2    1
    14     2     4    2
    15     2     3    1
