MODEL 1
REMARK VINA RESULT:      -7.6      0.000      0.000
REMARK SMILES CC(=O)CCc1ccc2c(c1)OCO2
REMARK SMILES IDX 4 1 2 2 1 3 3 4 5 5 6 6 7 7 11 8 8 9 10 10 9 11 12 12 14 13
REMARK SMILES IDX 13 14
REMARK H PARENT
REMARK Flexibility Score: inf
ROOT
ATOM      1  C   UNL     1       5.546   1.851   1.312  1.00  0.00     0.080 C 
ENDROOT
BRANCH   1   2
ATOM      2  C   UNL     1       5.087   0.631   2.032  1.00  0.00     0.130 C 
ATOM      3  C   UNL     1       5.959  -0.565   2.176  1.00  0.00     0.087 C 
ATOM      4  O   UNL     1       3.973   0.578   2.528  1.00  0.00    -0.300 OA
ENDBRANCH   1   2
BRANCH   1   5
ATOM      5  C   UNL     1       5.409   1.689  -0.189  1.00  0.00     0.043 C 
BRANCH   5   6
ATOM      6  C   UNL     1       6.575   1.000  -0.773  1.00  0.00    -0.044 A 
ATOM      7  C   UNL     1       7.880   1.456  -0.555  1.00  0.00     0.008 A 
ATOM      8  C   UNL     1       6.386  -0.121  -1.549  1.00  0.00     0.054 A 
ATOM      9  C   UNL     1       8.935   0.768  -1.128  1.00  0.00     0.051 A 
ATOM     10  C   UNL     1       7.456  -0.813  -2.125  1.00  0.00     0.166 A 
ATOM     11  C   UNL     1       8.741  -0.364  -1.913  1.00  0.00     0.165 A 
ATOM     12  O   UNL     1       7.529  -1.934  -2.924  1.00  0.00    -0.454 OA
ATOM     13  O   UNL     1       9.585  -1.229  -2.592  1.00  0.00    -0.454 OA
ATOM     14  C   UNL     1       8.865  -2.290  -3.172  1.00  0.00     0.468 C 
ENDBRANCH   5   6
ENDBRANCH   1   5
TORSDOF 3
ENDMDL
MODEL 2
REMARK VINA RESULT:      -7.2      1.889      2.377
REMARK SMILES CC(=O)CCc1ccc2c(c1)OCO2
REMARK SMILES IDX 4 1 2 2 1 3 3 4 5 5 6 6 7 7 11 8 8 9 10 10 9 11 12 12 14 13
REMARK SMILES IDX 13 14
REMARK H PARENT
REMARK Flexibility Score: inf
ROOT
ATOM      1  C   UNL     1       5.720   1.257  -0.307  1.00  0.00     0.080 C 
ENDROOT
BRANCH   1   2
ATOM      2  C   UNL     1       5.228   1.224   1.099  1.00  0.00     0.130 C 
ATOM      3  C   UNL     1       5.504   0.070   1.996  1.00  0.00     0.087 C 
ATOM      4  O   UNL     1       4.579   2.150   1.558  1.00  0.00    -0.300 OA
ENDBRANCH   1   2
BRANCH   1   5
ATOM      5  C   UNL     1       7.227   1.100  -0.367  1.00  0.00     0.043 C 
BRANCH   5   6
ATOM      6  C   UNL     1       7.618  -0.191  -0.959  1.00  0.00    -0.044 A 
ATOM      7  C   UNL     1       7.664  -0.378  -2.346  1.00  0.00     0.008 A 
ATOM      8  C   UNL     1       7.951  -1.246  -0.140  1.00  0.00     0.054 A 
ATOM      9  C   UNL     1       8.039  -1.612  -2.845  1.00  0.00     0.051 A 
ATOM     10  C   UNL     1       8.331  -2.491  -0.649  1.00  0.00     0.166 A 
ATOM     11  C   UNL     1       8.375  -2.675  -2.013  1.00  0.00     0.165 A 
ATOM     12  O   UNL     1       8.701  -3.677  -0.052  1.00  0.00    -0.454 OA
ATOM     13  O   UNL     1       8.777  -3.984  -2.228  1.00  0.00    -0.454 OA
ATOM     14  C   UNL     1       9.082  -4.628  -1.014  1.00  0.00     0.468 C 
ENDBRANCH   5   6
ENDBRANCH   1   5
TORSDOF 3
ENDMDL
MODEL 3
REMARK VINA RESULT:      -7.2      2.080      2.611
REMARK SMILES CC(=O)CCc1ccc2c(c1)OCO2
REMARK SMILES IDX 4 1 2 2 1 3 3 4 5 5 6 6 7 7 11 8 8 9 10 10 9 11 12 12 14 13
REMARK SMILES IDX 13 14
REMARK H PARENT
REMARK Flexibility Score: inf
ROOT
ATOM      1  C   UNL     1       5.620   0.003   1.970  1.00  0.00     0.080 C 
ENDROOT
BRANCH   1   2
ATOM      2  C   UNL     1       4.695   1.126   1.652  1.00  0.00     0.130 C 
ATOM      3  C   UNL     1       4.950   2.050   0.515  1.00  0.00     0.087 C 
ATOM      4  O   UNL     1       3.693   1.322   2.322  1.00  0.00    -0.300 OA
ENDBRANCH   1   2
BRANCH   1   5
ATOM      5  C   UNL     1       7.016   0.275   1.447  1.00  0.00     0.043 C 
BRANCH   5   6
ATOM      6  C   UNL     1       7.411  -0.698   0.413  1.00  0.00    -0.044 A 
ATOM      7  C   UNL     1       7.294  -0.406  -0.951  1.00  0.00     0.008 A 
ATOM      8  C   UNL     1       7.912  -1.925   0.786  1.00  0.00     0.054 A 
ATOM      9  C   UNL     1       7.681  -1.358  -1.877  1.00  0.00     0.051 A 
ATOM     10  C   UNL     1       8.303  -2.883  -0.154  1.00  0.00     0.166 A 
ATOM     11  C   UNL     1       8.186  -2.598  -1.496  1.00  0.00     0.165 A 
ATOM     12  O   UNL     1       8.821  -4.156  -0.039  1.00  0.00    -0.454 OA
ATOM     13  O   UNL     1       8.641  -3.712  -2.184  1.00  0.00    -0.454 OA
ATOM     14  C   UNL     1       9.137  -4.688  -1.299  1.00  0.00     0.468 C 
ENDBRANCH   5   6
ENDBRANCH   1   5
TORSDOF 3
ENDMDL
MODEL 4
REMARK VINA RESULT:      -7.1      1.239      1.442
REMARK SMILES CC(=O)CCc1ccc2c(c1)OCO2
REMARK SMILES IDX 4 1 2 2 1 3 3 4 5 5 6 6 7 7 11 8 8 9 10 10 9 11 12 12 14 13
REMARK SMILES IDX 13 14
REMARK H PARENT
REMARK Flexibility Score: inf
ROOT
ATOM      1  C   UNL     1       6.377   1.191   0.932  1.00  0.00     0.080 C 
ENDROOT
BRANCH   1   2
ATOM      2  C   UNL     1       5.658   0.370   1.946  1.00  0.00     0.130 C 
ATOM      3  C   UNL     1       6.262  -0.858   2.527  1.00  0.00     0.087 C 
ATOM      4  O   UNL     1       4.543   0.685   2.330  1.00  0.00    -0.300 OA
ENDBRANCH   1   2
BRANCH   1   5
ATOM      5  C   UNL     1       5.864   0.913  -0.467  1.00  0.00     0.043 C 
BRANCH   5   6
ATOM      6  C   UNL     1       6.812   0.096  -1.244  1.00  0.00    -0.044 A 
ATOM      7  C   UNL     1       7.491   0.616  -2.352  1.00  0.00     0.008 A 
ATOM      8  C   UNL     1       7.046  -1.211  -0.880  1.00  0.00     0.054 A 
ATOM      9  C   UNL     1       8.370  -0.198  -3.043  1.00  0.00     0.051 A 
ATOM     10  C   UNL     1       7.936  -2.029  -1.582  1.00  0.00     0.166 A 
ATOM     11  C   UNL     1       8.603  -1.518  -2.673  1.00  0.00     0.165 A 
ATOM     12  O   UNL     1       8.333  -3.340  -1.421  1.00  0.00    -0.454 OA
ATOM     13  O   UNL     1       9.406  -2.536  -3.164  1.00  0.00    -0.454 OA
ATOM     14  C   UNL     1       9.334  -3.680  -2.347  1.00  0.00     0.468 C 
ENDBRANCH   5   6
ENDBRANCH   1   5
TORSDOF 3
ENDMDL
MODEL 5
REMARK VINA RESULT:      -7.0      1.989      2.632
REMARK SMILES CC(=O)CCc1ccc2c(c1)OCO2
REMARK SMILES IDX 4 1 2 2 1 3 3 4 5 5 6 6 7 7 11 8 8 9 10 10 9 11 12 12 14 13
REMARK SMILES IDX 13 14
REMARK H PARENT
REMARK Flexibility Score: inf
ROOT
ATOM      1  C   UNL     1       6.810   0.672   1.136  1.00  0.00     0.080 C 
ENDROOT
BRANCH   1   2
ATOM      2  C   UNL     1       5.428   1.223   1.208  1.00  0.00     0.130 C 
ATOM      3  C   UNL     1       4.902   2.149   0.170  1.00  0.00     0.087 C 
ATOM      4  O   UNL     1       4.683   0.928   2.128  1.00  0.00    -0.300 OA
ENDBRANCH   1   2
BRANCH   1   5
ATOM      5  C   UNL     1       7.411   0.869  -0.241  1.00  0.00     0.043 C 
BRANCH   5   6
ATOM      6  C   UNL     1       7.798  -0.412  -0.858  1.00  0.00    -0.044 A 
ATOM      7  C   UNL     1       7.964  -0.539  -2.242  1.00  0.00     0.008 A 
ATOM      8  C   UNL     1       8.005  -1.516  -0.063  1.00  0.00     0.054 A 
ATOM      9  C   UNL     1       8.329  -1.767  -2.764  1.00  0.00     0.051 A 
ATOM     10  C   UNL     1       8.375  -2.755  -0.595  1.00  0.00     0.166 A 
ATOM     11  C   UNL     1       8.537  -2.882  -1.957  1.00  0.00     0.165 A 
ATOM     12  O   UNL     1       8.635  -3.983  -0.025  1.00  0.00    -0.454 OA
ATOM     13  O   UNL     1       8.899  -4.198  -2.197  1.00  0.00    -0.454 OA
ATOM     14  C   UNL     1       9.060  -4.908  -0.993  1.00  0.00     0.468 C 
ENDBRANCH   5   6
ENDBRANCH   1   5
TORSDOF 3
ENDMDL
