@<TRIPOS>MOLECULE
/home/cewinharhar/GITHUB/reincatalyze/data/processed/docking_pred/2023-May-24-1506_sub9_nm5_bs15_s42_ex16_mel10_mts10000_k50_ec02_g099_lra3e-4_lrc3e-3/b0dbf451e4e891e0fb60bf6ca530f921e690d9da_ligand_9.pdbqt
 14 15 0 0 0
SMALL
GASTEIGER

@<TRIPOS>ATOM
      1  C          5.5460    1.8510    1.3120 C.3     1  UNL1        0.0800
      2  C          5.0870    0.6310    2.0320 C.2     1  UNL1        0.1300
      3  C          5.9590   -0.5650    2.1760 C.3     1  UNL1        0.0870
      4  O          3.9730    0.5780    2.5280 O.2     1  UNL1       -0.3000
      5  C          5.4090    1.6890   -0.1890 C.3     1  UNL1        0.0430
      6  C          6.5750    1.0000   -0.7730 C.2     1  UNL1       -0.0440
      7  C          7.8800    1.4560   -0.5550 C.2     1  UNL1        0.0080
      8  C          6.3860   -0.1210   -1.5490 C.2     1  UNL1        0.0540
      9  C          8.9350    0.7680   -1.1280 C.2     1  UNL1        0.0510
     10  C          7.4560   -0.8130   -2.1250 C.2     1  UNL1        0.1660
     11  C          8.7410   -0.3640   -1.9130 C.2     1  UNL1        0.1650
     12  O          7.5290   -1.9340   -2.9240 O.2     1  UNL1       -0.4540
     13  O          9.5850   -1.2290   -2.5920 O.2     1  UNL1       -0.4540
     14  C          8.8650   -2.2900   -3.1720 C.3     1  UNL1        0.4680
@<TRIPOS>BOND
     1    14    12    1
     2    14    13    1
     3    12    10    1
     4    13    11    1
     5    10    11    2
     6    10     8    1
     7    11     9    1
     8     8     6    2
     9     9     7    2
    10     6     7    1
    11     6     5    1
    12     5     1    1
    13     1     2    1
    14     2     3    1
    15     2     4    2
