@<TRIPOS>MOLECULE
/home/cewinharhar/GITHUB/reincatalyze/data/processed/docking_pred/2023-May-24-1506_sub9_nm5_bs15_s42_ex16_mel10_mts10000_k50_ec02_g099_lra3e-4_lrc3e-3/b0dbf451e4e891e0fb60bf6ca530f921e690d9da_ligand_9.pdbqt
 14 15 0 0 0
SMALL
GASTEIGER

@<TRIPOS>ATOM
      1  C          6.8100    0.6720    1.1360 C.3     1  UNL1        0.0800
      2  C          5.4280    1.2230    1.2080 C.2     1  UNL1        0.1300
      3  C          4.9020    2.1490    0.1700 C.3     1  UNL1        0.0870
      4  O          4.6830    0.9280    2.1280 O.2     1  UNL1       -0.3000
      5  C          7.4110    0.8690   -0.2410 C.3     1  UNL1        0.0430
      6  C          7.7980   -0.4120   -0.8580 C.2     1  UNL1       -0.0440
      7  C          7.9640   -0.5390   -2.2420 C.2     1  UNL1        0.0080
      8  C          8.0050   -1.5160   -0.0630 C.2     1  UNL1        0.0540
      9  C          8.3290   -1.7670   -2.7640 C.2     1  UNL1        0.0510
     10  C          8.3750   -2.7550   -0.5950 C.2     1  UNL1        0.1660
     11  C          8.5370   -2.8820   -1.9570 C.2     1  UNL1        0.1650
     12  O          8.6350   -3.9830   -0.0250 O.2     1  UNL1       -0.4540
     13  O          8.8990   -4.1980   -2.1970 O.2     1  UNL1       -0.4540
     14  C          9.0600   -4.9080   -0.9930 C.3     1  UNL1        0.4680
@<TRIPOS>BOND
     1     9     7    1
     2     9    11    2
     3     7     6    2
     4    13    11    1
     5    13    14    1
     6    11    10    1
     7    14    12    1
     8     6     5    1
     9     6     8    1
    10    10     8    2
    11    10    12    1
    12     5     1    1
    13     3     2    1
    14     1     2    1
    15     2     4    2
