@<TRIPOS>MOLECULE
/home/cewinharhar/GITHUB/reincatalyze/data/processed/docking_pred/2023-May-24-1506_sub9_nm5_bs15_s42_ex16_mel10_mts10000_k50_ec02_g099_lra3e-4_lrc3e-3/b1cc709a4c09585943c6b669d8b61c6b26bf0288_ligand_9.pdbqt
 14 15 0 0 0
SMALL
GASTEIGER

@<TRIPOS>ATOM
      1  C          5.5060    1.9040    1.2760 C.3     1  UNL1        0.0800
      2  C          5.0590    0.6860    2.0090 C.2     1  UNL1        0.1300
      3  C          5.9420   -0.5010    2.1610 C.3     1  UNL1        0.0870
      4  O          3.9470    0.6280    2.5080 O.2     1  UNL1       -0.3000
      5  C          5.3820    1.7210   -0.2230 C.3     1  UNL1        0.0430
      6  C          6.5520    1.0260   -0.7880 C.2     1  UNL1       -0.0440
      7  C          7.8570    1.4660   -0.5370 C.2     1  UNL1        0.0080
      8  C          6.3700   -0.0850   -1.5800 C.2     1  UNL1        0.0540
      9  C          8.9170    0.7730   -1.0930 C.2     1  UNL1        0.0510
     10  C          7.4450   -0.7820   -2.1390 C.2     1  UNL1        0.1660
     11  C          8.7290   -0.3490   -1.8940 C.2     1  UNL1        0.1650
     12  O          7.5240   -1.8950   -2.9480 O.2     1  UNL1       -0.4540
     13  O          9.5790   -1.2160   -2.5630 O.2     1  UNL1       -0.4540
     14  C          8.8610   -2.2640   -3.1700 C.3     1  UNL1        0.4680
@<TRIPOS>BOND
     1    14    12    1
     2    14    13    1
     3    12    10    1
     4    13    11    1
     5    10    11    2
     6    10     8    1
     7    11     9    1
     8     8     6    2
     9     9     7    2
    10     6     7    1
    11     6     5    1
    12     5     1    1
    13     1     2    1
    14     2     3    1
    15     2     4    2
