MODEL 1
REMARK VINA RESULT:      -7.6      0.000      0.000
REMARK SMILES CC(=O)CCc1ccc2c(c1)OCO2
REMARK SMILES IDX 4 1 2 2 1 3 3 4 5 5 6 6 7 7 11 8 8 9 10 10 9 11 12 12 14 13
REMARK SMILES IDX 13 14
REMARK H PARENT
REMARK Flexibility Score: inf
ROOT
ATOM      1  C   UNL     1       5.506   1.904   1.276  1.00  0.00     0.080 C 
ENDROOT
BRANCH   1   2
ATOM      2  C   UNL     1       5.059   0.686   2.009  1.00  0.00     0.130 C 
ATOM      3  C   UNL     1       5.942  -0.501   2.161  1.00  0.00     0.087 C 
ATOM      4  O   UNL     1       3.947   0.628   2.508  1.00  0.00    -0.300 OA
ENDBRANCH   1   2
BRANCH   1   5
ATOM      5  C   UNL     1       5.382   1.721  -0.223  1.00  0.00     0.043 C 
BRANCH   5   6
ATOM      6  C   UNL     1       6.552   1.026  -0.788  1.00  0.00    -0.044 A 
ATOM      7  C   UNL     1       7.857   1.466  -0.537  1.00  0.00     0.008 A 
ATOM      8  C   UNL     1       6.370  -0.085  -1.580  1.00  0.00     0.054 A 
ATOM      9  C   UNL     1       8.917   0.773  -1.093  1.00  0.00     0.051 A 
ATOM     10  C   UNL     1       7.445  -0.782  -2.139  1.00  0.00     0.166 A 
ATOM     11  C   UNL     1       8.729  -0.349  -1.894  1.00  0.00     0.165 A 
ATOM     12  O   UNL     1       7.524  -1.895  -2.948  1.00  0.00    -0.454 OA
ATOM     13  O   UNL     1       9.579  -1.216  -2.563  1.00  0.00    -0.454 OA
ATOM     14  C   UNL     1       8.861  -2.264  -3.170  1.00  0.00     0.468 C 
ENDBRANCH   5   6
ENDBRANCH   1   5
TORSDOF 3
ENDMDL
MODEL 2
REMARK VINA RESULT:      -7.5      1.914      2.368
REMARK SMILES CC(=O)CCc1ccc2c(c1)OCO2
REMARK SMILES IDX 4 1 2 2 1 3 3 4 5 5 6 6 7 7 11 8 8 9 10 10 9 11 12 12 14 13
REMARK SMILES IDX 13 14
REMARK H PARENT
REMARK Flexibility Score: inf
ROOT
ATOM      1  C   UNL     1       5.710   1.371  -0.299  1.00  0.00     0.080 C 
ENDROOT
BRANCH   1   2
ATOM      2  C   UNL     1       5.098   1.283   1.056  1.00  0.00     0.130 C 
ATOM      3  C   UNL     1       5.381   0.142   1.967  1.00  0.00     0.087 C 
ATOM      4  O   UNL     1       4.340   2.150   1.459  1.00  0.00    -0.300 OA
ENDBRANCH   1   2
BRANCH   1   5
ATOM      5  C   UNL     1       7.207   1.142  -0.243  1.00  0.00     0.043 C 
BRANCH   5   6
ATOM      6  C   UNL     1       7.586  -0.146  -0.851  1.00  0.00    -0.044 A 
ATOM      7  C   UNL     1       7.664  -0.306  -2.239  1.00  0.00     0.008 A 
ATOM      8  C   UNL     1       7.875  -1.223  -0.044  1.00  0.00     0.054 A 
ATOM      9  C   UNL     1       8.025  -1.538  -2.753  1.00  0.00     0.051 A 
ATOM     10  C   UNL     1       8.241  -2.466  -0.569  1.00  0.00     0.166 A 
ATOM     11  C   UNL     1       8.316  -2.625  -1.934  1.00  0.00     0.165 A 
ATOM     12  O   UNL     1       8.570  -3.671   0.014  1.00  0.00    -0.454 OA
ATOM     13  O   UNL     1       8.696  -3.938  -2.165  1.00  0.00    -0.454 OA
ATOM     14  C   UNL     1       8.955  -4.612  -0.956  1.00  0.00     0.468 C 
ENDBRANCH   5   6
ENDBRANCH   1   5
TORSDOF 3
ENDMDL
MODEL 3
REMARK VINA RESULT:      -7.1      2.103      2.636
REMARK SMILES CC(=O)CCc1ccc2c(c1)OCO2
REMARK SMILES IDX 4 1 2 2 1 3 3 4 5 5 6 6 7 7 11 8 8 9 10 10 9 11 12 12 14 13
REMARK SMILES IDX 13 14
REMARK H PARENT
REMARK Flexibility Score: inf
ROOT
ATOM      1  C   UNL     1       5.605  -0.026   1.919  1.00  0.00     0.080 C 
ENDROOT
BRANCH   1   2
ATOM      2  C   UNL     1       4.702   1.119   1.614  1.00  0.00     0.130 C 
ATOM      3  C   UNL     1       4.979   2.055   0.492  1.00  0.00     0.087 C 
ATOM      4  O   UNL     1       3.701   1.323   2.282  1.00  0.00    -0.300 OA
ENDBRANCH   1   2
BRANCH   1   5
ATOM      5  C   UNL     1       7.013   0.236   1.420  1.00  0.00     0.043 C 
BRANCH   5   6
ATOM      6  C   UNL     1       7.415  -0.734   0.385  1.00  0.00    -0.044 A 
ATOM      7  C   UNL     1       7.320  -0.432  -0.978  1.00  0.00     0.008 A 
ATOM      8  C   UNL     1       7.899  -1.967   0.757  1.00  0.00     0.054 A 
ATOM      9  C   UNL     1       7.713  -1.381  -1.904  1.00  0.00     0.051 A 
ATOM     10  C   UNL     1       8.295  -2.923  -0.183  1.00  0.00     0.166 A 
ATOM     11  C   UNL     1       8.201  -2.628  -1.525  1.00  0.00     0.165 A 
ATOM     12  O   UNL     1       8.801  -4.201  -0.068  1.00  0.00    -0.454 OA
ATOM     13  O   UNL     1       8.656  -3.741  -2.213  1.00  0.00    -0.454 OA
ATOM     14  C   UNL     1       9.131  -4.727  -1.327  1.00  0.00     0.468 C 
ENDBRANCH   5   6
ENDBRANCH   1   5
TORSDOF 3
ENDMDL
MODEL 4
REMARK VINA RESULT:      -7.1      1.261      1.480
REMARK SMILES CC(=O)CCc1ccc2c(c1)OCO2
REMARK SMILES IDX 4 1 2 2 1 3 3 4 5 5 6 6 7 7 11 8 8 9 10 10 9 11 12 12 14 13
REMARK SMILES IDX 13 14
REMARK H PARENT
REMARK Flexibility Score: inf
ROOT
ATOM      1  C   UNL     1       6.404   1.221   0.920  1.00  0.00     0.080 C 
ENDROOT
BRANCH   1   2
ATOM      2  C   UNL     1       5.693   0.376   1.919  1.00  0.00     0.130 C 
ATOM      3  C   UNL     1       6.313  -0.852   2.485  1.00  0.00     0.087 C 
ATOM      4  O   UNL     1       4.573   0.669   2.305  1.00  0.00    -0.300 OA
ENDBRANCH   1   2
BRANCH   1   5
ATOM      5  C   UNL     1       5.895   0.959  -0.484  1.00  0.00     0.043 C 
BRANCH   5   6
ATOM      6  C   UNL     1       6.830   0.120  -1.256  1.00  0.00    -0.044 A 
ATOM      7  C   UNL     1       7.511   0.617  -2.372  1.00  0.00     0.008 A 
ATOM      8  C   UNL     1       7.047  -1.186  -0.876  1.00  0.00     0.054 A 
ATOM      9  C   UNL     1       8.377  -0.216  -3.057  1.00  0.00     0.051 A 
ATOM     10  C   UNL     1       7.923  -2.024  -1.571  1.00  0.00     0.166 A 
ATOM     11  C   UNL     1       8.594  -1.536  -2.671  1.00  0.00     0.165 A 
ATOM     12  O   UNL     1       8.304  -3.338  -1.397  1.00  0.00    -0.454 OA
ATOM     13  O   UNL     1       9.380  -2.570  -3.153  1.00  0.00    -0.454 OA
ATOM     14  C   UNL     1       9.296  -3.703  -2.322  1.00  0.00     0.468 C 
ENDBRANCH   5   6
ENDBRANCH   1   5
TORSDOF 3
ENDMDL
MODEL 5
REMARK VINA RESULT:      -6.7      1.208      5.201
REMARK SMILES CC(=O)CCc1ccc2c(c1)OCO2
REMARK SMILES IDX 4 1 2 2 1 3 3 4 5 5 6 6 7 7 11 8 8 9 10 10 9 11 12 12 14 13
REMARK SMILES IDX 13 14
REMARK H PARENT
REMARK Flexibility Score: inf
ROOT
ATOM      1  C   UNL     1       8.292   0.111  -2.697  1.00  0.00     0.080 C 
ENDROOT
BRANCH   1   2
ATOM      2  C   UNL     1       8.091  -1.359  -2.832  1.00  0.00     0.130 C 
ATOM      3  C   UNL     1       9.235  -2.289  -3.026  1.00  0.00     0.087 C 
ATOM      4  O   UNL     1       6.972  -1.845  -2.787  1.00  0.00    -0.300 OA
ENDBRANCH   1   2
BRANCH   1   5
ATOM      5  C   UNL     1       8.844   0.468  -1.332  1.00  0.00     0.043 C 
BRANCH   5   6
ATOM      6  C   UNL     1       7.817   0.358  -0.281  1.00  0.00    -0.044 A 
ATOM      7  C   UNL     1       7.920  -0.582   0.751  1.00  0.00     0.008 A 
ATOM      8  C   UNL     1       6.725   1.197  -0.304  1.00  0.00     0.054 A 
ATOM      9  C   UNL     1       6.925  -0.638   1.710  1.00  0.00     0.051 A 
ATOM     10  C   UNL     1       5.722   1.136   0.668  1.00  0.00     0.166 A 
ATOM     11  C   UNL     1       5.823   0.211   1.683  1.00  0.00     0.165 A 
ATOM     12  O   UNL     1       4.557   1.847   0.862  1.00  0.00    -0.454 OA
ATOM     13  O   UNL     1       4.707   0.376   2.488  1.00  0.00    -0.454 OA
ATOM     14  C   UNL     1       3.924   1.463   2.055  1.00  0.00     0.468 C 
ENDBRANCH   5   6
ENDBRANCH   1   5
TORSDOF 3
ENDMDL
