@<TRIPOS>MOLECULE
/home/cewinharhar/GITHUB/reincatalyze/data/processed/docking_pred/2023-May-24-1506_sub9_nm5_bs15_s42_ex16_mel10_mts10000_k50_ec02_g099_lra3e-4_lrc3e-3/b1cc709a4c09585943c6b669d8b61c6b26bf0288_ligand_9.pdbqt
 14 15 0 0 0
SMALL
GASTEIGER

@<TRIPOS>ATOM
      1  C          8.2920    0.1110   -2.6970 C.3     1  UNL1        0.0800
      2  C          8.0910   -1.3590   -2.8320 C.2     1  UNL1        0.1300
      3  C          9.2350   -2.2890   -3.0260 C.3     1  UNL1        0.0870
      4  O          6.9720   -1.8450   -2.7870 O.2     1  UNL1       -0.3000
      5  C          8.8440    0.4680   -1.3320 C.3     1  UNL1        0.0430
      6  C          7.8170    0.3580   -0.2810 C.2     1  UNL1       -0.0440
      7  C          7.9200   -0.5820    0.7510 C.2     1  UNL1        0.0080
      8  C          6.7250    1.1970   -0.3040 C.2     1  UNL1        0.0540
      9  C          6.9250   -0.6380    1.7100 C.2     1  UNL1        0.0510
     10  C          5.7220    1.1360    0.6680 C.2     1  UNL1        0.1660
     11  C          5.8230    0.2110    1.6830 C.2     1  UNL1        0.1650
     12  O          4.5570    1.8470    0.8620 O.2     1  UNL1       -0.4540
     13  O          4.7070    0.3760    2.4880 O.2     1  UNL1       -0.4540
     14  C          3.9240    1.4630    2.0550 C.3     1  UNL1        0.4680
@<TRIPOS>BOND
     1     3     2    1
     2     2     4    2
     3     2     1    1
     4     1     5    1
     5     5     6    1
     6     8     6    2
     7     8    10    1
     8     6     7    1
     9    10    12    1
    10    10    11    2
    11     7     9    2
    12    12    14    1
    13    11     9    1
    14    11    13    1
    15    14    13    1
