@<TRIPOS>MOLECULE
/home/cewinharhar/GITHUB/reincatalyze/data/processed/docking_pred/2023-May-24-1506_sub9_nm5_bs15_s42_ex16_mel10_mts10000_k50_ec02_g099_lra3e-4_lrc3e-3/b1cc709a4c09585943c6b669d8b61c6b26bf0288_ligand_9.pdbqt
 14 15 0 0 0
SMALL
GASTEIGER

@<TRIPOS>ATOM
      1  C          5.7100    1.3710   -0.2990 C.3     1  UNL1        0.0800
      2  C          5.0980    1.2830    1.0560 C.2     1  UNL1        0.1300
      3  C          5.3810    0.1420    1.9670 C.3     1  UNL1        0.0870
      4  O          4.3400    2.1500    1.4590 O.2     1  UNL1       -0.3000
      5  C          7.2070    1.1420   -0.2430 C.3     1  UNL1        0.0430
      6  C          7.5860   -0.1460   -0.8510 C.2     1  UNL1       -0.0440
      7  C          7.6640   -0.3060   -2.2390 C.2     1  UNL1        0.0080
      8  C          7.8750   -1.2230   -0.0440 C.2     1  UNL1        0.0540
      9  C          8.0250   -1.5380   -2.7530 C.2     1  UNL1        0.0510
     10  C          8.2410   -2.4660   -0.5690 C.2     1  UNL1        0.1660
     11  C          8.3160   -2.6250   -1.9340 C.2     1  UNL1        0.1650
     12  O          8.5700   -3.6710    0.0140 O.2     1  UNL1       -0.4540
     13  O          8.6960   -3.9380   -2.1650 O.2     1  UNL1       -0.4540
     14  C          8.9550   -4.6120   -0.9560 C.3     1  UNL1        0.4680
@<TRIPOS>BOND
     1     9     7    1
     2     9    11    2
     3     7     6    2
     4    13    11    1
     5    13    14    1
     6    11    10    1
     7    14    12    1
     8     6     5    1
     9     6     8    1
    10    10     8    2
    11    10    12    1
    12     1     5    1
    13     1     2    1
    14     2     4    2
    15     2     3    1
