@<TRIPOS>MOLECULE
/home/cewinharhar/GITHUB/reincatalyze/data/processed/docking_pred/2023-May-24-1506_sub9_nm5_bs15_s42_ex16_mel10_mts10000_k50_ec02_g099_lra3e-4_lrc3e-3/b1cc709a4c09585943c6b669d8b61c6b26bf0288_ligand_9.pdbqt
 14 15 0 0 0
SMALL
GASTEIGER

@<TRIPOS>ATOM
      1  C          6.4040    1.2210    0.9200 C.3     1  UNL1        0.0800
      2  C          5.6930    0.3760    1.9190 C.2     1  UNL1        0.1300
      3  C          6.3130   -0.8520    2.4850 C.3     1  UNL1        0.0870
      4  O          4.5730    0.6690    2.3050 O.2     1  UNL1       -0.3000
      5  C          5.8950    0.9590   -0.4840 C.3     1  UNL1        0.0430
      6  C          6.8300    0.1200   -1.2560 C.2     1  UNL1       -0.0440
      7  C          7.5110    0.6170   -2.3720 C.2     1  UNL1        0.0080
      8  C          7.0470   -1.1860   -0.8760 C.2     1  UNL1        0.0540
      9  C          8.3770   -0.2160   -3.0570 C.2     1  UNL1        0.0510
     10  C          7.9230   -2.0240   -1.5710 C.2     1  UNL1        0.1660
     11  C          8.5940   -1.5360   -2.6710 C.2     1  UNL1        0.1650
     12  O          8.3040   -3.3380   -1.3970 O.2     1  UNL1       -0.4540
     13  O          9.3800   -2.5700   -3.1530 O.2     1  UNL1       -0.4540
     14  C          9.2960   -3.7030   -2.3220 C.3     1  UNL1        0.4680
@<TRIPOS>BOND
     1    13    11    1
     2    13    14    1
     3     9    11    2
     4     9     7    1
     5    11    10    1
     6     7     6    2
     7    14    12    1
     8    10    12    1
     9    10     8    2
    10     6     8    1
    11     6     5    1
    12     5     1    1
    13     1     2    1
    14     2     4    2
    15     2     3    1
