MODEL 1
REMARK VINA RESULT:      -7.6      0.000      0.000
REMARK SMILES CC(=O)CCc1ccc2c(c1)OCO2
REMARK SMILES IDX 4 1 2 2 1 3 3 4 5 5 6 6 7 7 11 8 8 9 10 10 9 11 12 12 14 13
REMARK SMILES IDX 13 14
REMARK H PARENT
REMARK Flexibility Score: inf
ROOT
ATOM      1  C   UNL     1       5.602   1.854   1.303  1.00  0.00     0.080 C 
ENDROOT
BRANCH   1   2
ATOM      2  C   UNL     1       5.142   0.643   2.038  1.00  0.00     0.130 C 
ATOM      3  C   UNL     1       6.024  -0.540   2.224  1.00  0.00     0.087 C 
ATOM      4  O   UNL     1       4.018   0.586   2.511  1.00  0.00    -0.300 OA
ENDBRANCH   1   2
BRANCH   1   5
ATOM      5  C   UNL     1       5.452   1.679  -0.195  1.00  0.00     0.043 C 
BRANCH   5   6
ATOM      6  C   UNL     1       6.611   0.984  -0.783  1.00  0.00    -0.044 A 
ATOM      7  C   UNL     1       7.920   1.430  -0.567  1.00  0.00     0.008 A 
ATOM      8  C   UNL     1       6.413  -0.133  -1.563  1.00  0.00     0.054 A 
ATOM      9  C   UNL     1       8.969   0.737  -1.144  1.00  0.00     0.051 A 
ATOM     10  C   UNL     1       7.477  -0.830  -2.143  1.00  0.00     0.166 A 
ATOM     11  C   UNL     1       8.765  -0.391  -1.932  1.00  0.00     0.165 A 
ATOM     12  O   UNL     1       7.540  -1.950  -2.945  1.00  0.00    -0.454 OA
ATOM     13  O   UNL     1       9.601  -1.260  -2.616  1.00  0.00    -0.454 OA
ATOM     14  C   UNL     1       8.873  -2.315  -3.197  1.00  0.00     0.468 C 
ENDBRANCH   5   6
ENDBRANCH   1   5
TORSDOF 3
ENDMDL
MODEL 2
REMARK VINA RESULT:      -7.3      1.812      2.266
REMARK SMILES CC(=O)CCc1ccc2c(c1)OCO2
REMARK SMILES IDX 4 1 2 2 1 3 3 4 5 5 6 6 7 7 11 8 8 9 10 10 9 11 12 12 14 13
REMARK SMILES IDX 13 14
REMARK H PARENT
REMARK Flexibility Score: inf
ROOT
ATOM      1  C   UNL     1       5.784   1.524  -0.204  1.00  0.00     0.080 C 
ENDROOT
BRANCH   1   2
ATOM      2  C   UNL     1       5.118   1.321   1.113  1.00  0.00     0.130 C 
ATOM      3  C   UNL     1       5.513   0.215   2.026  1.00  0.00     0.087 C 
ATOM      4  O   UNL     1       4.222   2.063   1.482  1.00  0.00    -0.300 OA
ENDBRANCH   1   2
BRANCH   1   5
ATOM      5  C   UNL     1       7.263   1.202  -0.128  1.00  0.00     0.043 C 
BRANCH   5   6
ATOM      6  C   UNL     1       7.582  -0.068  -0.804  1.00  0.00    -0.044 A 
ATOM      7  C   UNL     1       7.541  -0.187  -2.198  1.00  0.00     0.008 A 
ATOM      8  C   UNL     1       7.933  -1.169  -0.056  1.00  0.00     0.054 A 
ATOM      9  C   UNL     1       7.851  -1.404  -2.776  1.00  0.00     0.051 A 
ATOM     10  C   UNL     1       8.246  -2.397  -0.646  1.00  0.00     0.166 A 
ATOM     11  C   UNL     1       8.204  -2.516  -2.018  1.00  0.00     0.165 A 
ATOM     12  O   UNL     1       8.618  -3.621  -0.130  1.00  0.00    -0.454 OA
ATOM     13  O   UNL     1       8.556  -3.823  -2.318  1.00  0.00    -0.454 OA
ATOM     14  C   UNL     1       8.914  -4.532  -1.156  1.00  0.00     0.468 C 
ENDBRANCH   5   6
ENDBRANCH   1   5
TORSDOF 3
ENDMDL
MODEL 3
REMARK VINA RESULT:      -7.1      2.083      2.606
REMARK SMILES CC(=O)CCc1ccc2c(c1)OCO2
REMARK SMILES IDX 4 1 2 2 1 3 3 4 5 5 6 6 7 7 11 8 8 9 10 10 9 11 12 12 14 13
REMARK SMILES IDX 13 14
REMARK H PARENT
REMARK Flexibility Score: inf
ROOT
ATOM      1  C   UNL     1       5.566   0.001   1.915  1.00  0.00     0.080 C 
ENDROOT
BRANCH   1   2
ATOM      2  C   UNL     1       4.677   1.162   1.631  1.00  0.00     0.130 C 
ATOM      3  C   UNL     1       4.956   2.104   0.514  1.00  0.00     0.087 C 
ATOM      4  O   UNL     1       3.688   1.376   2.313  1.00  0.00    -0.300 OA
ENDBRANCH   1   2
BRANCH   1   5
ATOM      5  C   UNL     1       6.981   0.261   1.438  1.00  0.00     0.043 C 
BRANCH   5   6
ATOM      6  C   UNL     1       7.396  -0.706   0.407  1.00  0.00    -0.044 A 
ATOM      7  C   UNL     1       7.318  -0.403  -0.957  1.00  0.00     0.008 A 
ATOM      8  C   UNL     1       7.877  -1.940   0.783  1.00  0.00     0.054 A 
ATOM      9  C   UNL     1       7.723  -1.350  -1.880  1.00  0.00     0.051 A 
ATOM     10  C   UNL     1       8.285  -2.894  -0.154  1.00  0.00     0.166 A 
ATOM     11  C   UNL     1       8.208  -2.597  -1.496  1.00  0.00     0.165 A 
ATOM     12  O   UNL     1       8.790  -4.172  -0.035  1.00  0.00    -0.454 OA
ATOM     13  O   UNL     1       8.672  -3.709  -2.181  1.00  0.00    -0.454 OA
ATOM     14  C   UNL     1       9.136  -4.696  -1.292  1.00  0.00     0.468 C 
ENDBRANCH   5   6
ENDBRANCH   1   5
TORSDOF 3
ENDMDL
MODEL 4
REMARK VINA RESULT:      -7.1      1.231      1.422
REMARK SMILES CC(=O)CCc1ccc2c(c1)OCO2
REMARK SMILES IDX 4 1 2 2 1 3 3 4 5 5 6 6 7 7 11 8 8 9 10 10 9 11 12 12 14 13
REMARK SMILES IDX 13 14
REMARK H PARENT
REMARK Flexibility Score: inf
ROOT
ATOM      1  C   UNL     1       6.377   1.191   0.932  1.00  0.00     0.080 C 
ENDROOT
BRANCH   1   2
ATOM      2  C   UNL     1       5.658   0.370   1.946  1.00  0.00     0.130 C 
ATOM      3  C   UNL     1       6.262  -0.858   2.527  1.00  0.00     0.087 C 
ATOM      4  O   UNL     1       4.543   0.685   2.330  1.00  0.00    -0.300 OA
ENDBRANCH   1   2
BRANCH   1   5
ATOM      5  C   UNL     1       5.864   0.913  -0.467  1.00  0.00     0.043 C 
BRANCH   5   6
ATOM      6  C   UNL     1       6.812   0.096  -1.244  1.00  0.00    -0.044 A 
ATOM      7  C   UNL     1       7.491   0.616  -2.352  1.00  0.00     0.008 A 
ATOM      8  C   UNL     1       7.046  -1.211  -0.880  1.00  0.00     0.054 A 
ATOM      9  C   UNL     1       8.370  -0.198  -3.043  1.00  0.00     0.051 A 
ATOM     10  C   UNL     1       7.936  -2.029  -1.582  1.00  0.00     0.166 A 
ATOM     11  C   UNL     1       8.603  -1.518  -2.673  1.00  0.00     0.165 A 
ATOM     12  O   UNL     1       8.333  -3.340  -1.421  1.00  0.00    -0.454 OA
ATOM     13  O   UNL     1       9.406  -2.536  -3.164  1.00  0.00    -0.454 OA
ATOM     14  C   UNL     1       9.334  -3.680  -2.347  1.00  0.00     0.468 C 
ENDBRANCH   5   6
ENDBRANCH   1   5
TORSDOF 3
ENDMDL
MODEL 5
REMARK VINA RESULT:      -6.8      1.265      1.745
REMARK SMILES CC(=O)CCc1ccc2c(c1)OCO2
REMARK SMILES IDX 4 1 2 2 1 3 3 4 5 5 6 6 7 7 11 8 8 9 10 10 9 11 12 12 14 13
REMARK SMILES IDX 13 14
REMARK H PARENT
REMARK Flexibility Score: inf
ROOT
ATOM      1  C   UNL     1       5.318  -0.074   1.958  1.00  0.00     0.080 C 
ENDROOT
BRANCH   1   2
ATOM      2  C   UNL     1       4.437   1.115   1.784  1.00  0.00     0.130 C 
ATOM      3  C   UNL     1       4.717   2.149   0.752  1.00  0.00     0.087 C 
ATOM      4  O   UNL     1       3.454   1.275   2.489  1.00  0.00    -0.300 OA
ENDBRANCH   1   2
BRANCH   1   5
ATOM      5  C   UNL     1       6.782   0.311   1.895  1.00  0.00     0.043 C 
BRANCH   5   6
ATOM      6  C   UNL     1       7.387  -0.050   0.600  1.00  0.00    -0.044 A 
ATOM      7  C   UNL     1       7.873   0.924  -0.279  1.00  0.00     0.008 A 
ATOM      8  C   UNL     1       7.483  -1.375   0.239  1.00  0.00     0.054 A 
ATOM      9  C   UNL     1       8.431   0.525  -1.480  1.00  0.00     0.051 A 
ATOM     10  C   UNL     1       8.049  -1.773  -0.976  1.00  0.00     0.166 A 
ATOM     11  C   UNL     1       8.526  -0.815  -1.843  1.00  0.00     0.165 A 
ATOM     12  O   UNL     1       8.256  -3.006  -1.557  1.00  0.00    -0.454 OA
ATOM     13  O   UNL     1       9.023  -1.487  -2.949  1.00  0.00    -0.454 OA
ATOM     14  C   UNL     1       8.954  -2.882  -2.770  1.00  0.00     0.468 C 
ENDBRANCH   5   6
ENDBRANCH   1   5
TORSDOF 3
ENDMDL
