@<TRIPOS>MOLECULE
/home/cewinharhar/GITHUB/reincatalyze/data/processed/docking_pred/2023-May-24-1506_sub9_nm5_bs15_s42_ex16_mel10_mts10000_k50_ec02_g099_lra3e-4_lrc3e-3/b25c452ec0c0b8d96fec3e0f7bbac0cc4967bb63_ligand_9.pdbqt
 14 15 0 0 0
SMALL
GASTEIGER

@<TRIPOS>ATOM
      1  C          5.3180   -0.0740    1.9580 C.3     1  UNL1        0.0800
      2  C          4.4370    1.1150    1.7840 C.2     1  UNL1        0.1300
      3  C          4.7170    2.1490    0.7520 C.3     1  UNL1        0.0870
      4  O          3.4540    1.2750    2.4890 O.2     1  UNL1       -0.3000
      5  C          6.7820    0.3110    1.8950 C.3     1  UNL1        0.0430
      6  C          7.3870   -0.0500    0.6000 C.2     1  UNL1       -0.0440
      7  C          7.8730    0.9240   -0.2790 C.2     1  UNL1        0.0080
      8  C          7.4830   -1.3750    0.2390 C.2     1  UNL1        0.0540
      9  C          8.4310    0.5250   -1.4800 C.2     1  UNL1        0.0510
     10  C          8.0490   -1.7730   -0.9760 C.2     1  UNL1        0.1660
     11  C          8.5260   -0.8150   -1.8430 C.2     1  UNL1        0.1650
     12  O          8.2560   -3.0060   -1.5570 O.2     1  UNL1       -0.4540
     13  O          9.0230   -1.4870   -2.9490 O.2     1  UNL1       -0.4540
     14  C          8.9540   -2.8820   -2.7700 C.3     1  UNL1        0.4680
@<TRIPOS>BOND
     1    13    14    1
     2    13    11    1
     3    14    12    1
     4    11     9    2
     5    11    10    1
     6    12    10    1
     7     9     7    1
     8    10     8    2
     9     7     6    2
    10     8     6    1
    11     6     5    1
    12     3     2    1
    13     2     1    1
    14     2     4    2
    15     5     1    1
