MODEL 1
REMARK VINA RESULT:      -7.6      0.000      0.000
REMARK SMILES CC(=O)CCc1ccc2c(c1)OCO2
REMARK SMILES IDX 4 1 2 2 1 3 3 4 5 5 6 6 7 7 11 8 8 9 10 10 9 11 12 12 14 13
REMARK SMILES IDX 13 14
REMARK H PARENT
REMARK Flexibility Score: inf
ROOT
ATOM      1  C   UNL     1       5.591   1.858   1.297  1.00  0.00     0.080 C 
ENDROOT
BRANCH   1   2
ATOM      2  C   UNL     1       5.130   0.644   2.026  1.00  0.00     0.130 C 
ATOM      3  C   UNL     1       6.012  -0.540   2.207  1.00  0.00     0.087 C 
ATOM      4  O   UNL     1       4.006   0.585   2.498  1.00  0.00    -0.300 OA
ENDBRANCH   1   2
BRANCH   1   5
ATOM      5  C   UNL     1       5.446   1.688  -0.202  1.00  0.00     0.043 C 
BRANCH   5   6
ATOM      6  C   UNL     1       6.604   0.989  -0.788  1.00  0.00    -0.044 A 
ATOM      7  C   UNL     1       7.914   1.433  -0.570  1.00  0.00     0.008 A 
ATOM      8  C   UNL     1       6.405  -0.128  -1.566  1.00  0.00     0.054 A 
ATOM      9  C   UNL     1       8.962   0.736  -1.145  1.00  0.00     0.051 A 
ATOM     10  C   UNL     1       7.468  -0.829  -2.144  1.00  0.00     0.166 A 
ATOM     11  C   UNL     1       8.757  -0.393  -1.932  1.00  0.00     0.165 A 
ATOM     12  O   UNL     1       7.530  -1.949  -2.945  1.00  0.00    -0.454 OA
ATOM     13  O   UNL     1       9.592  -1.264  -2.613  1.00  0.00    -0.454 OA
ATOM     14  C   UNL     1       8.862  -2.318  -3.194  1.00  0.00     0.468 C 
ENDBRANCH   5   6
ENDBRANCH   1   5
TORSDOF 3
ENDMDL
MODEL 2
REMARK VINA RESULT:      -7.5      1.901      2.351
REMARK SMILES CC(=O)CCc1ccc2c(c1)OCO2
REMARK SMILES IDX 4 1 2 2 1 3 3 4 5 5 6 6 7 7 11 8 8 9 10 10 9 11 12 12 14 13
REMARK SMILES IDX 13 14
REMARK H PARENT
REMARK Flexibility Score: inf
ROOT
ATOM      1  C   UNL     1       5.759   1.386  -0.310  1.00  0.00     0.080 C 
ENDROOT
BRANCH   1   2
ATOM      2  C   UNL     1       5.109   1.282   1.026  1.00  0.00     0.130 C 
ATOM      3  C   UNL     1       5.380   0.141   1.940  1.00  0.00     0.087 C 
ATOM      4  O   UNL     1       4.328   2.137   1.411  1.00  0.00    -0.300 OA
ENDBRANCH   1   2
BRANCH   1   5
ATOM      5  C   UNL     1       7.249   1.123  -0.218  1.00  0.00     0.043 C 
BRANCH   5   6
ATOM      6  C   UNL     1       7.617  -0.162  -0.839  1.00  0.00    -0.044 A 
ATOM      7  C   UNL     1       7.685  -0.312  -2.229  1.00  0.00     0.008 A 
ATOM      8  C   UNL     1       7.904  -1.247  -0.042  1.00  0.00     0.054 A 
ATOM      9  C   UNL     1       8.036  -1.542  -2.755  1.00  0.00     0.051 A 
ATOM     10  C   UNL     1       8.259  -2.488  -0.579  1.00  0.00     0.166 A 
ATOM     11  C   UNL     1       8.325  -2.637  -1.947  1.00  0.00     0.165 A 
ATOM     12  O   UNL     1       8.585  -3.700  -0.008  1.00  0.00    -0.454 OA
ATOM     13  O   UNL     1       8.695  -3.950  -2.190  1.00  0.00    -0.454 OA
ATOM     14  C   UNL     1       8.959  -4.635  -0.988  1.00  0.00     0.468 C 
ENDBRANCH   5   6
ENDBRANCH   1   5
TORSDOF 3
ENDMDL
MODEL 3
REMARK VINA RESULT:      -7.2      2.064      2.594
REMARK SMILES CC(=O)CCc1ccc2c(c1)OCO2
REMARK SMILES IDX 4 1 2 2 1 3 3 4 5 5 6 6 7 7 11 8 8 9 10 10 9 11 12 12 14 13
REMARK SMILES IDX 13 14
REMARK H PARENT
REMARK Flexibility Score: inf
ROOT
ATOM      1  C   UNL     1       5.547   0.018   1.966  1.00  0.00     0.080 C 
ENDROOT
BRANCH   1   2
ATOM      2  C   UNL     1       4.652   1.165   1.649  1.00  0.00     0.130 C 
ATOM      3  C   UNL     1       4.948   2.101   0.532  1.00  0.00     0.087 C 
ATOM      4  O   UNL     1       3.642   1.371   2.303  1.00  0.00    -0.300 OA
ENDBRANCH   1   2
BRANCH   1   5
ATOM      5  C   UNL     1       6.962   0.275   1.485  1.00  0.00     0.043 C 
BRANCH   5   6
ATOM      6  C   UNL     1       7.367  -0.685   0.442  1.00  0.00    -0.044 A 
ATOM      7  C   UNL     1       7.258  -0.377  -0.919  1.00  0.00     0.008 A 
ATOM      8  C   UNL     1       7.868  -1.915   0.804  1.00  0.00     0.054 A 
ATOM      9  C   UNL     1       7.655  -1.317  -1.853  1.00  0.00     0.051 A 
ATOM     10  C   UNL     1       8.268  -2.861  -0.145  1.00  0.00     0.166 A 
ATOM     11  C   UNL     1       8.160  -2.559  -1.484  1.00  0.00     0.165 A 
ATOM     12  O   UNL     1       8.788  -4.133  -0.041  1.00  0.00    -0.454 OA
ATOM     13  O   UNL     1       8.623  -3.664  -2.182  1.00  0.00    -0.454 OA
ATOM     14  C   UNL     1       9.115  -4.649  -1.305  1.00  0.00     0.468 C 
ENDBRANCH   5   6
ENDBRANCH   1   5
TORSDOF 3
ENDMDL
MODEL 4
REMARK VINA RESULT:      -7.1      1.227      1.411
REMARK SMILES CC(=O)CCc1ccc2c(c1)OCO2
REMARK SMILES IDX 4 1 2 2 1 3 3 4 5 5 6 6 7 7 11 8 8 9 10 10 9 11 12 12 14 13
REMARK SMILES IDX 13 14
REMARK H PARENT
REMARK Flexibility Score: inf
ROOT
ATOM      1  C   UNL     1       6.349   1.246   0.867  1.00  0.00     0.080 C 
ENDROOT
BRANCH   1   2
ATOM      2  C   UNL     1       5.661   0.434   1.909  1.00  0.00     0.130 C 
ATOM      3  C   UNL     1       6.279  -0.794   2.476  1.00  0.00     0.087 C 
ATOM      4  O   UNL     1       4.562   0.757   2.330  1.00  0.00    -0.300 OA
ENDBRANCH   1   2
BRANCH   1   5
ATOM      5  C   UNL     1       5.836   0.911  -0.520  1.00  0.00     0.043 C 
BRANCH   5   6
ATOM      6  C   UNL     1       6.803   0.097  -1.278  1.00  0.00    -0.044 A 
ATOM      7  C   UNL     1       7.520   0.628  -2.357  1.00  0.00     0.008 A 
ATOM      8  C   UNL     1       7.016  -1.215  -0.924  1.00  0.00     0.054 A 
ATOM      9  C   UNL     1       8.415  -0.183  -3.031  1.00  0.00     0.051 A 
ATOM     10  C   UNL     1       7.923  -2.031  -1.608  1.00  0.00     0.166 A 
ATOM     11  C   UNL     1       8.627  -1.510  -2.671  1.00  0.00     0.165 A 
ATOM     12  O   UNL     1       8.306  -3.346  -1.453  1.00  0.00    -0.454 OA
ATOM     13  O   UNL     1       9.438  -2.527  -3.151  1.00  0.00    -0.454 OA
ATOM     14  C   UNL     1       9.333  -3.681  -2.351  1.00  0.00     0.468 C 
ENDBRANCH   5   6
ENDBRANCH   1   5
TORSDOF 3
ENDMDL
MODEL 5
REMARK VINA RESULT:      -7.0      1.997      2.581
REMARK SMILES CC(=O)CCc1ccc2c(c1)OCO2
REMARK SMILES IDX 4 1 2 2 1 3 3 4 5 5 6 6 7 7 11 8 8 9 10 10 9 11 12 12 14 13
REMARK SMILES IDX 13 14
REMARK H PARENT
REMARK Flexibility Score: inf
ROOT
ATOM      1  C   UNL     1       6.767   0.597   1.236  1.00  0.00     0.080 C 
ENDROOT
BRANCH   1   2
ATOM      2  C   UNL     1       5.386   1.125   1.414  1.00  0.00     0.130 C 
ATOM      3  C   UNL     1       4.814   2.142   0.491  1.00  0.00     0.087 C 
ATOM      4  O   UNL     1       4.680   0.737   2.330  1.00  0.00    -0.300 OA
ENDBRANCH   1   2
BRANCH   1   5
ATOM      5  C   UNL     1       7.263   0.818  -0.180  1.00  0.00     0.043 C 
BRANCH   5   6
ATOM      6  C   UNL     1       7.688  -0.443  -0.813  1.00  0.00    -0.044 A 
ATOM      7  C   UNL     1       7.854  -0.547  -2.199  1.00  0.00     0.008 A 
ATOM      8  C   UNL     1       7.932  -1.550  -0.033  1.00  0.00     0.054 A 
ATOM      9  C   UNL     1       8.256  -1.756  -2.738  1.00  0.00     0.051 A 
ATOM     10  C   UNL     1       8.339  -2.770  -0.582  1.00  0.00     0.166 A 
ATOM     11  C   UNL     1       8.502  -2.873  -1.946  1.00  0.00     0.165 A 
ATOM     12  O   UNL     1       8.639  -3.996  -0.028  1.00  0.00    -0.454 OA
ATOM     13  O   UNL     1       8.904  -4.175  -2.204  1.00  0.00    -0.454 OA
ATOM     14  C   UNL     1       9.091  -4.895  -1.009  1.00  0.00     0.468 C 
ENDBRANCH   5   6
ENDBRANCH   1   5
TORSDOF 3
ENDMDL
