@<TRIPOS>MOLECULE
/home/cewinharhar/GITHUB/reincatalyze/data/processed/docking_pred/2023-May-24-1506_sub9_nm5_bs15_s42_ex16_mel10_mts10000_k50_ec02_g099_lra3e-4_lrc3e-3/b3ccd1df948aefc26948fdc9bbc960af2f6fd47d_ligand_9.pdbqt
 14 15 0 0 0
SMALL
GASTEIGER

@<TRIPOS>ATOM
      1  C          6.7670    0.5970    1.2360 C.3     1  UNL1        0.0800
      2  C          5.3860    1.1250    1.4140 C.2     1  UNL1        0.1300
      3  C          4.8140    2.1420    0.4910 C.3     1  UNL1        0.0870
      4  O          4.6800    0.7370    2.3300 O.2     1  UNL1       -0.3000
      5  C          7.2630    0.8180   -0.1800 C.3     1  UNL1        0.0430
      6  C          7.6880   -0.4430   -0.8130 C.2     1  UNL1       -0.0440
      7  C          7.8540   -0.5470   -2.1990 C.2     1  UNL1        0.0080
      8  C          7.9320   -1.5500   -0.0330 C.2     1  UNL1        0.0540
      9  C          8.2560   -1.7560   -2.7380 C.2     1  UNL1        0.0510
     10  C          8.3390   -2.7700   -0.5820 C.2     1  UNL1        0.1660
     11  C          8.5020   -2.8730   -1.9460 C.2     1  UNL1        0.1650
     12  O          8.6390   -3.9960   -0.0280 O.2     1  UNL1       -0.4540
     13  O          8.9040   -4.1750   -2.2040 O.2     1  UNL1       -0.4540
     14  C          9.0910   -4.8950   -1.0090 C.3     1  UNL1        0.4680
@<TRIPOS>BOND
     1     9     7    1
     2     9    11    2
     3    13    11    1
     4    13    14    1
     5     7     6    2
     6    11    10    1
     7    14    12    1
     8     6     5    1
     9     6     8    1
    10    10     8    2
    11    10    12    1
    12     5     1    1
    13     3     2    1
    14     1     2    1
    15     2     4    2
