@<TRIPOS>MOLECULE
/home/cewinharhar/GITHUB/reincatalyze/data/processed/docking_pred/2023-May-24-1506_sub9_nm5_bs15_s42_ex16_mel10_mts10000_k50_ec02_g099_lra3e-4_lrc3e-3/b3efa5aa79561967f2a1346927635c3d7bfec8a2_ligand_9.pdbqt
 14 15 0 0 0
SMALL
GASTEIGER

@<TRIPOS>ATOM
      1  C          5.0110    0.7930    1.4940 C.3     1  UNL1        0.0800
      2  C          6.0700    0.2000    2.3570 C.2     1  UNL1        0.1300
      3  C          6.4200   -1.2440    2.2830 C.3     1  UNL1        0.0870
      4  O          6.6860    0.8870    3.1550 O.2     1  UNL1       -0.3000
      5  C          5.6060    1.7110    0.4440 C.3     1  UNL1        0.0430
      6  C          6.6720    1.0430   -0.3250 C.2     1  UNL1       -0.0440
      7  C          7.9900    1.5110   -0.3080 C.2     1  UNL1        0.0080
      8  C          6.3750   -0.0700   -1.0780 C.2     1  UNL1        0.0540
      9  C          8.9490    0.8440   -1.0490 C.2     1  UNL1        0.0510
     10  C          7.3470   -0.7420   -1.8240 C.2     1  UNL1        0.1660
     11  C          8.6450   -0.2810   -1.8100 C.2     1  UNL1        0.1650
     12  O          7.3050   -1.8520   -2.6400 O.2     1  UNL1       -0.4540
     13  O          9.3800   -1.1270   -2.6250 O.2     1  UNL1       -0.4540
     14  C          8.5880   -2.1900   -3.1000 C.3     1  UNL1        0.4680
@<TRIPOS>BOND
     1    14    12    1
     2    14    13    1
     3    12    10    1
     4    13    11    1
     5    10    11    2
     6    10     8    1
     7    11     9    1
     8     8     6    2
     9     9     7    2
    10     6     7    1
    11     6     5    1
    12     5     1    1
    13     1     2    1
    14     3     2    1
    15     2     4    2
