MODEL 1
REMARK VINA RESULT:      -7.7      0.000      0.000
REMARK SMILES CC(=O)CCc1ccc2c(c1)OCO2
REMARK SMILES IDX 4 1 2 2 1 3 3 4 5 5 6 6 7 7 11 8 8 9 10 10 9 11 12 12 14 13
REMARK SMILES IDX 13 14
REMARK H PARENT
REMARK Flexibility Score: inf
ROOT
ATOM      1  C   UNL     1       5.591   2.150   1.360  1.00  0.00     0.080 C 
ENDROOT
BRANCH   1   2
ATOM      2  C   UNL     1       4.829   1.078   2.060  1.00  0.00     0.130 C 
ATOM      3  C   UNL     1       5.344  -0.315   2.148  1.00  0.00     0.087 C 
ATOM      4  O   UNL     1       3.753   1.315   2.585  1.00  0.00    -0.300 OA
ENDBRANCH   1   2
BRANCH   1   5
ATOM      5  C   UNL     1       5.479   2.012  -0.145  1.00  0.00     0.043 C 
BRANCH   5   6
ATOM      6  C   UNL     1       6.600   1.238  -0.708  1.00  0.00    -0.044 A 
ATOM      7  C   UNL     1       7.931   1.592  -0.463  1.00  0.00     0.008 A 
ATOM      8  C   UNL     1       6.342   0.137  -1.493  1.00  0.00     0.054 A 
ATOM      9  C   UNL     1       8.942   0.828  -1.017  1.00  0.00     0.051 A 
ATOM     10  C   UNL     1       7.368  -0.633  -2.050  1.00  0.00     0.166 A 
ATOM     11  C   UNL     1       8.678  -0.284  -1.811  1.00  0.00     0.165 A 
ATOM     12  O   UNL     1       7.371  -1.754  -2.853  1.00  0.00    -0.454 OA
ATOM     13  O   UNL     1       9.467  -1.209  -2.477  1.00  0.00    -0.454 OA
ATOM     14  C   UNL     1       8.681  -2.211  -3.075  1.00  0.00     0.468 C 
ENDBRANCH   5   6
ENDBRANCH   1   5
TORSDOF 3
ENDMDL
MODEL 2
REMARK VINA RESULT:      -7.2      2.094      2.604
REMARK SMILES CC(=O)CCc1ccc2c(c1)OCO2
REMARK SMILES IDX 4 1 2 2 1 3 3 4 5 5 6 6 7 7 11 8 8 9 10 10 9 11 12 12 14 13
REMARK SMILES IDX 13 14
REMARK H PARENT
REMARK Flexibility Score: inf
ROOT
ATOM      1  C   UNL     1       5.408  -0.025   2.091  1.00  0.00     0.080 C 
ENDROOT
BRANCH   1   2
ATOM      2  C   UNL     1       4.620   1.217   1.855  1.00  0.00     0.130 C 
ATOM      3  C   UNL     1       4.929   2.136   0.727  1.00  0.00     0.087 C 
ATOM      4  O   UNL     1       3.692   1.519   2.588  1.00  0.00    -0.300 OA
ENDBRANCH   1   2
BRANCH   1   5
ATOM      5  C   UNL     1       6.866   0.171   1.726  1.00  0.00     0.043 C 
BRANCH   5   6
ATOM      6  C   UNL     1       7.274  -0.708   0.615  1.00  0.00    -0.044 A 
ATOM      7  C   UNL     1       7.114  -0.323  -0.721  1.00  0.00     0.008 A 
ATOM      8  C   UNL     1       7.828  -1.938   0.887  1.00  0.00     0.054 A 
ATOM      9  C   UNL     1       7.516  -1.189  -1.721  1.00  0.00     0.051 A 
ATOM     10  C   UNL     1       8.233  -2.810  -0.128  1.00  0.00     0.166 A 
ATOM     11  C   UNL     1       8.076  -2.432  -1.443  1.00  0.00     0.165 A 
ATOM     12  O   UNL     1       8.801  -4.066  -0.117  1.00  0.00    -0.454 OA
ATOM     13  O   UNL     1       8.556  -3.475  -2.220  1.00  0.00    -0.454 OA
ATOM     14  C   UNL     1       9.109  -4.492  -1.419  1.00  0.00     0.468 C 
ENDBRANCH   5   6
ENDBRANCH   1   5
TORSDOF 3
ENDMDL
MODEL 3
REMARK VINA RESULT:      -7.1      0.981      1.096
REMARK SMILES CC(=O)CCc1ccc2c(c1)OCO2
REMARK SMILES IDX 4 1 2 2 1 3 3 4 5 5 6 6 7 7 11 8 8 9 10 10 9 11 12 12 14 13
REMARK SMILES IDX 13 14
REMARK H PARENT
REMARK Flexibility Score: inf
ROOT
ATOM      1  C   UNL     1       5.011   0.793   1.494  1.00  0.00     0.080 C 
ENDROOT
BRANCH   1   2
ATOM      2  C   UNL     1       6.070   0.200   2.357  1.00  0.00     0.130 C 
ATOM      3  C   UNL     1       6.420  -1.244   2.283  1.00  0.00     0.087 C 
ATOM      4  O   UNL     1       6.686   0.887   3.155  1.00  0.00    -0.300 OA
ENDBRANCH   1   2
BRANCH   1   5
ATOM      5  C   UNL     1       5.606   1.711   0.444  1.00  0.00     0.043 C 
BRANCH   5   6
ATOM      6  C   UNL     1       6.672   1.043  -0.325  1.00  0.00    -0.044 A 
ATOM      7  C   UNL     1       7.990   1.511  -0.308  1.00  0.00     0.008 A 
ATOM      8  C   UNL     1       6.375  -0.070  -1.078  1.00  0.00     0.054 A 
ATOM      9  C   UNL     1       8.949   0.844  -1.049  1.00  0.00     0.051 A 
ATOM     10  C   UNL     1       7.347  -0.742  -1.824  1.00  0.00     0.166 A 
ATOM     11  C   UNL     1       8.645  -0.281  -1.810  1.00  0.00     0.165 A 
ATOM     12  O   UNL     1       7.305  -1.852  -2.640  1.00  0.00    -0.454 OA
ATOM     13  O   UNL     1       9.380  -1.127  -2.625  1.00  0.00    -0.454 OA
ATOM     14  C   UNL     1       8.588  -2.190  -3.100  1.00  0.00     0.468 C 
ENDBRANCH   5   6
ENDBRANCH   1   5
TORSDOF 3
ENDMDL
MODEL 4
REMARK VINA RESULT:      -7.0      1.698      2.087
REMARK SMILES CC(=O)CCc1ccc2c(c1)OCO2
REMARK SMILES IDX 4 1 2 2 1 3 3 4 5 5 6 6 7 7 11 8 8 9 10 10 9 11 12 12 14 13
REMARK SMILES IDX 13 14
REMARK H PARENT
REMARK Flexibility Score: inf
ROOT
ATOM      1  C   UNL     1       5.405   1.431   0.347  1.00  0.00     0.080 C 
ENDROOT
BRANCH   1   2
ATOM      2  C   UNL     1       5.199   1.219   1.807  1.00  0.00     0.130 C 
ATOM      3  C   UNL     1       6.273   0.665   2.674  1.00  0.00     0.087 C 
ATOM      4  O   UNL     1       4.134   1.494   2.336  1.00  0.00    -0.300 OA
ENDBRANCH   1   2
BRANCH   1   5
ATOM      5  C   UNL     1       6.880   1.431  -0.007  1.00  0.00     0.043 C 
BRANCH   5   6
ATOM      6  C   UNL     1       7.274   0.194  -0.703  1.00  0.00    -0.044 A 
ATOM      7  C   UNL     1       7.220   0.089  -2.098  1.00  0.00     0.008 A 
ATOM      8  C   UNL     1       7.711  -0.890   0.024  1.00  0.00     0.054 A 
ATOM      9  C   UNL     1       7.604  -1.097  -2.697  1.00  0.00     0.051 A 
ATOM     10  C   UNL     1       8.098  -2.086  -0.586  1.00  0.00     0.166 A 
ATOM     11  C   UNL     1       8.044  -2.191  -1.958  1.00  0.00     0.165 A 
ATOM     12  O   UNL     1       8.561  -3.287  -0.091  1.00  0.00    -0.454 OA
ATOM     13  O   UNL     1       8.479  -3.466  -2.280  1.00  0.00    -0.454 OA
ATOM     14  C   UNL     1       8.903  -4.164  -1.133  1.00  0.00     0.468 C 
ENDBRANCH   5   6
ENDBRANCH   1   5
TORSDOF 3
ENDMDL
MODEL 5
REMARK VINA RESULT:      -7.0      1.239      5.223
REMARK SMILES CC(=O)CCc1ccc2c(c1)OCO2
REMARK SMILES IDX 4 1 2 2 1 3 3 4 5 5 6 6 7 7 11 8 8 9 10 10 9 11 12 12 14 13
REMARK SMILES IDX 13 14
REMARK H PARENT
REMARK Flexibility Score: inf
ROOT
ATOM      1  C   UNL     1       8.279   0.226  -2.643  1.00  0.00     0.080 C 
ENDROOT
BRANCH   1   2
ATOM      2  C   UNL     1       8.007  -1.236  -2.743  1.00  0.00     0.130 C 
ATOM      3  C   UNL     1       9.092  -2.214  -3.026  1.00  0.00     0.087 C 
ATOM      4  O   UNL     1       6.878  -1.675  -2.596  1.00  0.00    -0.300 OA
ENDBRANCH   1   2
BRANCH   1   5
ATOM      5  C   UNL     1       8.809   0.594  -1.272  1.00  0.00     0.043 C 
BRANCH   5   6
ATOM      6  C   UNL     1       7.777   0.451  -0.230  1.00  0.00    -0.044 A 
ATOM      7  C   UNL     1       7.852  -0.552   0.744  1.00  0.00     0.008 A 
ATOM      8  C   UNL     1       6.709   1.319  -0.203  1.00  0.00     0.054 A 
ATOM      9  C   UNL     1       6.855  -0.637   1.698  1.00  0.00     0.051 A 
ATOM     10  C   UNL     1       5.704   1.229   0.764  1.00  0.00     0.166 A 
ATOM     11  C   UNL     1       5.777   0.242   1.722  1.00  0.00     0.165 A 
ATOM     12  O   UNL     1       4.558   1.960   1.000  1.00  0.00    -0.454 OA
ATOM     13  O   UNL     1       4.664   0.390   2.535  1.00  0.00    -0.454 OA
ATOM     14  C   UNL     1       3.913   1.522   2.168  1.00  0.00     0.468 C 
ENDBRANCH   5   6
ENDBRANCH   1   5
TORSDOF 3
ENDMDL
