@<TRIPOS>MOLECULE
/home/cewinharhar/GITHUB/reincatalyze/data/processed/docking_pred/2023-May-24-1506_sub9_nm5_bs15_s42_ex16_mel10_mts10000_k50_ec02_g099_lra3e-4_lrc3e-3/b3efa5aa79561967f2a1346927635c3d7bfec8a2_ligand_9.pdbqt
 14 15 0 0 0
SMALL
GASTEIGER

@<TRIPOS>ATOM
      1  C          5.4050    1.4310    0.3470 C.3     1  UNL1        0.0800
      2  C          5.1990    1.2190    1.8070 C.2     1  UNL1        0.1300
      3  C          6.2730    0.6650    2.6740 C.3     1  UNL1        0.0870
      4  O          4.1340    1.4940    2.3360 O.2     1  UNL1       -0.3000
      5  C          6.8800    1.4310   -0.0070 C.3     1  UNL1        0.0430
      6  C          7.2740    0.1940   -0.7030 C.2     1  UNL1       -0.0440
      7  C          7.2200    0.0890   -2.0980 C.2     1  UNL1        0.0080
      8  C          7.7110   -0.8900    0.0240 C.2     1  UNL1        0.0540
      9  C          7.6040   -1.0970   -2.6970 C.2     1  UNL1        0.0510
     10  C          8.0980   -2.0860   -0.5860 C.2     1  UNL1        0.1660
     11  C          8.0440   -2.1910   -1.9580 C.2     1  UNL1        0.1650
     12  O          8.5610   -3.2870   -0.0910 O.2     1  UNL1       -0.4540
     13  O          8.4790   -3.4660   -2.2800 O.2     1  UNL1       -0.4540
     14  C          8.9030   -4.1640   -1.1330 C.3     1  UNL1        0.4680
@<TRIPOS>BOND
     1     9     7    1
     2     9    11    2
     3    13    11    1
     4    13    14    1
     5     7     6    2
     6    11    10    1
     7    14    12    1
     8     6     5    1
     9     6     8    1
    10    10    12    1
    11    10     8    2
    12     5     1    1
    13     1     2    1
    14     2     4    2
    15     2     3    1
