@<TRIPOS>MOLECULE
/home/cewinharhar/GITHUB/reincatalyze/data/processed/docking_pred/2023-May-24-1506_sub9_nm5_bs15_s42_ex16_mel10_mts10000_k50_ec02_g099_lra3e-4_lrc3e-3/b3efa5aa79561967f2a1346927635c3d7bfec8a2_ligand_9.pdbqt
 14 15 0 0 0
SMALL
GASTEIGER

@<TRIPOS>ATOM
      1  C          5.5910    2.1500    1.3600 C.3     1  UNL1        0.0800
      2  C          4.8290    1.0780    2.0600 C.2     1  UNL1        0.1300
      3  C          5.3440   -0.3150    2.1480 C.3     1  UNL1        0.0870
      4  O          3.7530    1.3150    2.5850 O.2     1  UNL1       -0.3000
      5  C          5.4790    2.0120   -0.1450 C.3     1  UNL1        0.0430
      6  C          6.6000    1.2380   -0.7080 C.2     1  UNL1       -0.0440
      7  C          7.9310    1.5920   -0.4630 C.2     1  UNL1        0.0080
      8  C          6.3420    0.1370   -1.4930 C.2     1  UNL1        0.0540
      9  C          8.9420    0.8280   -1.0170 C.2     1  UNL1        0.0510
     10  C          7.3680   -0.6330   -2.0500 C.2     1  UNL1        0.1660
     11  C          8.6780   -0.2840   -1.8110 C.2     1  UNL1        0.1650
     12  O          7.3710   -1.7540   -2.8530 O.2     1  UNL1       -0.4540
     13  O          9.4670   -1.2090   -2.4770 O.2     1  UNL1       -0.4540
     14  C          8.6810   -2.2110   -3.0750 C.3     1  UNL1        0.4680
@<TRIPOS>BOND
     1    14    12    1
     2    14    13    1
     3    12    10    1
     4    13    11    1
     5    10    11    2
     6    10     8    1
     7    11     9    1
     8     8     6    2
     9     9     7    2
    10     6     7    1
    11     6     5    1
    12     5     1    1
    13     1     2    1
    14     2     3    1
    15     2     4    2
