@<TRIPOS>MOLECULE
/home/cewinharhar/GITHUB/reincatalyze/data/processed/docking_pred/2023-May-24-1506_sub9_nm5_bs15_s42_ex16_mel10_mts10000_k50_ec02_g099_lra3e-4_lrc3e-3/b58c38953477011b0b30fd8623da0ee842eab33b_ligand_9.pdbqt
 14 15 0 0 0
SMALL
GASTEIGER

@<TRIPOS>ATOM
      1  C          5.4980   -0.0030    1.9850 C.3     1  UNL1        0.0800
      2  C          4.6240    1.1600    1.6660 C.2     1  UNL1        0.1300
      3  C          4.9590    2.1120    0.5730 C.3     1  UNL1        0.0870
      4  O          3.6000    1.3660    2.2970 O.2     1  UNL1       -0.3000
      5  C          6.9260    0.2430    1.5390 C.3     1  UNL1        0.0430
      6  C          7.3360   -0.6930    0.4770 C.2     1  UNL1       -0.0440
      7  C          7.2250   -0.3590   -0.8770 C.2     1  UNL1        0.0080
      8  C          7.8440   -1.9270    0.8140 C.2     1  UNL1        0.0540
      9  C          7.6260   -1.2770   -1.8300 C.2     1  UNL1        0.0510
     10  C          8.2490   -2.8520   -0.1530 C.2     1  UNL1        0.1660
     11  C          8.1390   -2.5240   -1.4860 C.2     1  UNL1        0.1650
     12  O          8.7770   -4.1230   -0.0750 O.2     1  UNL1       -0.4540
     13  O          8.6070   -3.6120   -2.2060 O.2     1  UNL1       -0.4540
     14  C          9.1060   -4.6120   -1.3500 C.3     1  UNL1        0.4680
@<TRIPOS>BOND
     1    13    11    1
     2    13    14    1
     3     9    11    2
     4     9     7    1
     5    11    10    1
     6    14    12    1
     7     7     6    2
     8    10    12    1
     9    10     8    2
    10     6     8    1
    11     6     5    1
    12     3     2    1
    13     5     1    1
    14     2     1    1
    15     2     4    2
