@<TRIPOS>MOLECULE
/home/cewinharhar/GITHUB/reincatalyze/data/processed/docking_pred/2023-May-24-1506_sub9_nm5_bs15_s42_ex16_mel10_mts10000_k50_ec02_g099_lra3e-4_lrc3e-3/b58c38953477011b0b30fd8623da0ee842eab33b_ligand_9.pdbqt
 14 15 0 0 0
SMALL
GASTEIGER

@<TRIPOS>ATOM
      1  C          5.5060    1.9210    1.2380 C.3     1  UNL1        0.0800
      2  C          5.0710    0.7160    1.9980 C.2     1  UNL1        0.1300
      3  C          5.9580   -0.4670    2.1600 C.3     1  UNL1        0.0870
      4  O          3.9650    0.6650    2.5120 O.2     1  UNL1       -0.3000
      5  C          5.3780    1.7060   -0.2570 C.3     1  UNL1        0.0430
      6  C          6.5550    1.0150   -0.8120 C.2     1  UNL1       -0.0440
      7  C          7.8560    1.4660   -0.5610 C.2     1  UNL1        0.0080
      8  C          6.3820   -0.1030   -1.5960 C.2     1  UNL1        0.0540
      9  C          8.9220    0.7760   -1.1090 C.2     1  UNL1        0.0510
     10  C          7.4640   -0.7970   -2.1460 C.2     1  UNL1        0.1660
     11  C          8.7440   -0.3540   -1.9010 C.2     1  UNL1        0.1650
     12  O          7.5530   -1.9170   -2.9460 O.2     1  UNL1       -0.4540
     13  O          9.6020   -1.2200   -2.5610 O.2     1  UNL1       -0.4540
     14  C          8.8930   -2.2780   -3.1610 C.3     1  UNL1        0.4680
@<TRIPOS>BOND
     1    14    12    1
     2    14    13    1
     3    12    10    1
     4    13    11    1
     5    10    11    2
     6    10     8    1
     7    11     9    1
     8     8     6    2
     9     9     7    2
    10     6     7    1
    11     6     5    1
    12     5     1    1
    13     1     2    1
    14     2     3    1
    15     2     4    2
