MODEL 1
REMARK VINA RESULT:      -7.7      0.000      0.000
REMARK SMILES CC(=O)CCc1ccc2c(c1)OCO2
REMARK SMILES IDX 4 1 2 2 1 3 3 4 5 5 6 6 7 7 11 8 8 9 10 10 9 11 12 12 14 13
REMARK SMILES IDX 13 14
REMARK H PARENT
REMARK Flexibility Score: inf
ROOT
ATOM      1  C   UNL     1       5.506   1.921   1.238  1.00  0.00     0.080 C 
ENDROOT
BRANCH   1   2
ATOM      2  C   UNL     1       5.071   0.716   1.998  1.00  0.00     0.130 C 
ATOM      3  C   UNL     1       5.958  -0.467   2.160  1.00  0.00     0.087 C 
ATOM      4  O   UNL     1       3.965   0.665   2.512  1.00  0.00    -0.300 OA
ENDBRANCH   1   2
BRANCH   1   5
ATOM      5  C   UNL     1       5.378   1.706  -0.257  1.00  0.00     0.043 C 
BRANCH   5   6
ATOM      6  C   UNL     1       6.555   1.015  -0.812  1.00  0.00    -0.044 A 
ATOM      7  C   UNL     1       7.856   1.466  -0.561  1.00  0.00     0.008 A 
ATOM      8  C   UNL     1       6.382  -0.103  -1.596  1.00  0.00     0.054 A 
ATOM      9  C   UNL     1       8.922   0.776  -1.109  1.00  0.00     0.051 A 
ATOM     10  C   UNL     1       7.464  -0.797  -2.146  1.00  0.00     0.166 A 
ATOM     11  C   UNL     1       8.744  -0.354  -1.901  1.00  0.00     0.165 A 
ATOM     12  O   UNL     1       7.553  -1.917  -2.946  1.00  0.00    -0.454 OA
ATOM     13  O   UNL     1       9.602  -1.220  -2.561  1.00  0.00    -0.454 OA
ATOM     14  C   UNL     1       8.893  -2.278  -3.161  1.00  0.00     0.468 C 
ENDBRANCH   5   6
ENDBRANCH   1   5
TORSDOF 3
ENDMDL
MODEL 2
REMARK VINA RESULT:      -7.5      1.906      2.364
REMARK SMILES CC(=O)CCc1ccc2c(c1)OCO2
REMARK SMILES IDX 4 1 2 2 1 3 3 4 5 5 6 6 7 7 11 8 8 9 10 10 9 11 12 12 14 13
REMARK SMILES IDX 13 14
REMARK H PARENT
REMARK Flexibility Score: inf
ROOT
ATOM      1  C   UNL     1       5.734   1.357  -0.306  1.00  0.00     0.080 C 
ENDROOT
BRANCH   1   2
ATOM      2  C   UNL     1       5.110   1.287   1.044  1.00  0.00     0.130 C 
ATOM      3  C   UNL     1       5.419   0.182   1.991  1.00  0.00     0.087 C 
ATOM      4  O   UNL     1       4.321   2.141   1.415  1.00  0.00    -0.300 OA
ENDBRANCH   1   2
BRANCH   1   5
ATOM      5  C   UNL     1       7.230   1.118  -0.235  1.00  0.00     0.043 C 
BRANCH   5   6
ATOM      6  C   UNL     1       7.608  -0.166  -0.851  1.00  0.00    -0.044 A 
ATOM      7  C   UNL     1       7.697  -0.315  -2.240  1.00  0.00     0.008 A 
ATOM      8  C   UNL     1       7.885  -1.252  -0.051  1.00  0.00     0.054 A 
ATOM      9  C   UNL     1       8.058  -1.544  -2.762  1.00  0.00     0.051 A 
ATOM     10  C   UNL     1       8.250  -2.492  -0.583  1.00  0.00     0.166 A 
ATOM     11  C   UNL     1       8.337  -2.639  -1.950  1.00  0.00     0.165 A 
ATOM     12  O   UNL     1       8.569  -3.704  -0.009  1.00  0.00    -0.454 OA
ATOM     13  O   UNL     1       8.712  -3.952  -2.189  1.00  0.00    -0.454 OA
ATOM     14  C   UNL     1       8.959  -4.637  -0.984  1.00  0.00     0.468 C 
ENDBRANCH   5   6
ENDBRANCH   1   5
TORSDOF 3
ENDMDL
MODEL 3
REMARK VINA RESULT:      -7.2      2.041      2.596
REMARK SMILES CC(=O)CCc1ccc2c(c1)OCO2
REMARK SMILES IDX 4 1 2 2 1 3 3 4 5 5 6 6 7 7 11 8 8 9 10 10 9 11 12 12 14 13
REMARK SMILES IDX 13 14
REMARK H PARENT
REMARK Flexibility Score: inf
ROOT
ATOM      1  C   UNL     1       5.498  -0.003   1.985  1.00  0.00     0.080 C 
ENDROOT
BRANCH   1   2
ATOM      2  C   UNL     1       4.624   1.160   1.666  1.00  0.00     0.130 C 
ATOM      3  C   UNL     1       4.959   2.112   0.573  1.00  0.00     0.087 C 
ATOM      4  O   UNL     1       3.600   1.366   2.297  1.00  0.00    -0.300 OA
ENDBRANCH   1   2
BRANCH   1   5
ATOM      5  C   UNL     1       6.926   0.243   1.539  1.00  0.00     0.043 C 
BRANCH   5   6
ATOM      6  C   UNL     1       7.336  -0.693   0.477  1.00  0.00    -0.044 A 
ATOM      7  C   UNL     1       7.225  -0.359  -0.877  1.00  0.00     0.008 A 
ATOM      8  C   UNL     1       7.844  -1.927   0.814  1.00  0.00     0.054 A 
ATOM      9  C   UNL     1       7.626  -1.277  -1.830  1.00  0.00     0.051 A 
ATOM     10  C   UNL     1       8.249  -2.852  -0.153  1.00  0.00     0.166 A 
ATOM     11  C   UNL     1       8.139  -2.524  -1.486  1.00  0.00     0.165 A 
ATOM     12  O   UNL     1       8.777  -4.123  -0.075  1.00  0.00    -0.454 OA
ATOM     13  O   UNL     1       8.607  -3.612  -2.206  1.00  0.00    -0.454 OA
ATOM     14  C   UNL     1       9.106  -4.612  -1.350  1.00  0.00     0.468 C 
ENDBRANCH   5   6
ENDBRANCH   1   5
TORSDOF 3
ENDMDL
MODEL 4
REMARK VINA RESULT:      -7.1      1.250      1.459
REMARK SMILES CC(=O)CCc1ccc2c(c1)OCO2
REMARK SMILES IDX 4 1 2 2 1 3 3 4 5 5 6 6 7 7 11 8 8 9 10 10 9 11 12 12 14 13
REMARK SMILES IDX 13 14
REMARK H PARENT
REMARK Flexibility Score: inf
ROOT
ATOM      1  C   UNL     1       6.363   1.210   0.895  1.00  0.00     0.080 C 
ENDROOT
BRANCH   1   2
ATOM      2  C   UNL     1       5.666   0.393   1.928  1.00  0.00     0.130 C 
ATOM      3  C   UNL     1       6.288  -0.827   2.509  1.00  0.00     0.087 C 
ATOM      4  O   UNL     1       4.556   0.704   2.328  1.00  0.00    -0.300 OA
ENDBRANCH   1   2
BRANCH   1   5
ATOM      5  C   UNL     1       5.847   0.897  -0.495  1.00  0.00     0.043 C 
BRANCH   5   6
ATOM      6  C   UNL     1       6.806   0.084  -1.264  1.00  0.00    -0.044 A 
ATOM      7  C   UNL     1       7.501   0.610  -2.359  1.00  0.00     0.008 A 
ATOM      8  C   UNL     1       7.034  -1.225  -0.904  1.00  0.00     0.054 A 
ATOM      9  C   UNL     1       8.390  -0.200  -3.042  1.00  0.00     0.051 A 
ATOM     10  C   UNL     1       7.934  -2.040  -1.597  1.00  0.00     0.166 A 
ATOM     11  C   UNL     1       8.617  -1.523  -2.675  1.00  0.00     0.165 A 
ATOM     12  O   UNL     1       8.328  -3.351  -1.439  1.00  0.00    -0.454 OA
ATOM     13  O   UNL     1       9.426  -2.538  -3.161  1.00  0.00    -0.454 OA
ATOM     14  C   UNL     1       9.342  -3.686  -2.351  1.00  0.00     0.468 C 
ENDBRANCH   5   6
ENDBRANCH   1   5
TORSDOF 3
ENDMDL
MODEL 5
REMARK VINA RESULT:      -6.8      1.250      1.745
REMARK SMILES CC(=O)CCc1ccc2c(c1)OCO2
REMARK SMILES IDX 4 1 2 2 1 3 3 4 5 5 6 6 7 7 11 8 8 9 10 10 9 11 12 12 14 13
REMARK SMILES IDX 13 14
REMARK H PARENT
REMARK Flexibility Score: inf
ROOT
ATOM      1  C   UNL     1       5.346  -0.072   1.972  1.00  0.00     0.080 C 
ENDROOT
BRANCH   1   2
ATOM      2  C   UNL     1       4.460   1.110   1.787  1.00  0.00     0.130 C 
ATOM      3  C   UNL     1       4.745   2.148   0.760  1.00  0.00     0.087 C 
ATOM      4  O   UNL     1       3.466   1.263   2.480  1.00  0.00    -0.300 OA
ENDBRANCH   1   2
BRANCH   1   5
ATOM      5  C   UNL     1       6.809   0.320   1.902  1.00  0.00     0.043 C 
BRANCH   5   6
ATOM      6  C   UNL     1       7.409  -0.038   0.604  1.00  0.00    -0.044 A 
ATOM      7  C   UNL     1       7.913   0.937  -0.264  1.00  0.00     0.008 A 
ATOM      8  C   UNL     1       7.483  -1.360   0.228  1.00  0.00     0.054 A 
ATOM      9  C   UNL     1       8.466   0.542  -1.468  1.00  0.00     0.051 A 
ATOM     10  C   UNL     1       8.044  -1.754  -0.990  1.00  0.00     0.166 A 
ATOM     11  C   UNL     1       8.539  -0.795  -1.846  1.00  0.00     0.165 A 
ATOM     12  O   UNL     1       8.231  -2.984  -1.584  1.00  0.00    -0.454 OA
ATOM     13  O   UNL     1       9.025  -1.464  -2.958  1.00  0.00    -0.454 OA
ATOM     14  C   UNL     1       8.932  -2.859  -2.794  1.00  0.00     0.468 C 
ENDBRANCH   5   6
ENDBRANCH   1   5
TORSDOF 3
ENDMDL
