@<TRIPOS>MOLECULE
/home/cewinharhar/GITHUB/reincatalyze/data/processed/docking_pred/2023-May-24-1506_sub9_nm5_bs15_s42_ex16_mel10_mts10000_k50_ec02_g099_lra3e-4_lrc3e-3/b58c38953477011b0b30fd8623da0ee842eab33b_ligand_9.pdbqt
 14 15 0 0 0
SMALL
GASTEIGER

@<TRIPOS>ATOM
      1  C          5.7340    1.3570   -0.3060 C.3     1  UNL1        0.0800
      2  C          5.1100    1.2870    1.0440 C.2     1  UNL1        0.1300
      3  C          5.4190    0.1820    1.9910 C.3     1  UNL1        0.0870
      4  O          4.3210    2.1410    1.4150 O.2     1  UNL1       -0.3000
      5  C          7.2300    1.1180   -0.2350 C.3     1  UNL1        0.0430
      6  C          7.6080   -0.1660   -0.8510 C.2     1  UNL1       -0.0440
      7  C          7.6970   -0.3150   -2.2400 C.2     1  UNL1        0.0080
      8  C          7.8850   -1.2520   -0.0510 C.2     1  UNL1        0.0540
      9  C          8.0580   -1.5440   -2.7620 C.2     1  UNL1        0.0510
     10  C          8.2500   -2.4920   -0.5830 C.2     1  UNL1        0.1660
     11  C          8.3370   -2.6390   -1.9500 C.2     1  UNL1        0.1650
     12  O          8.5690   -3.7040   -0.0090 O.2     1  UNL1       -0.4540
     13  O          8.7120   -3.9520   -2.1890 O.2     1  UNL1       -0.4540
     14  C          8.9590   -4.6370   -0.9840 C.3     1  UNL1        0.4680
@<TRIPOS>BOND
     1     9     7    1
     2     9    11    2
     3     7     6    2
     4    13    11    1
     5    13    14    1
     6    11    10    1
     7    14    12    1
     8     6     5    1
     9     6     8    1
    10    10     8    2
    11    10    12    1
    12     1     5    1
    13     1     2    1
    14     2     4    2
    15     2     3    1
