@<TRIPOS>MOLECULE
/home/cewinharhar/GITHUB/reincatalyze/data/processed/docking_pred/2023-May-24-1506_sub9_nm5_bs15_s42_ex16_mel10_mts10000_k50_ec02_g099_lra3e-4_lrc3e-3/b58c38953477011b0b30fd8623da0ee842eab33b_ligand_9.pdbqt
 14 15 0 0 0
SMALL
GASTEIGER

@<TRIPOS>ATOM
      1  C          5.3460   -0.0720    1.9720 C.3     1  UNL1        0.0800
      2  C          4.4600    1.1100    1.7870 C.2     1  UNL1        0.1300
      3  C          4.7450    2.1480    0.7600 C.3     1  UNL1        0.0870
      4  O          3.4660    1.2630    2.4800 O.2     1  UNL1       -0.3000
      5  C          6.8090    0.3200    1.9020 C.3     1  UNL1        0.0430
      6  C          7.4090   -0.0380    0.6040 C.2     1  UNL1       -0.0440
      7  C          7.9130    0.9370   -0.2640 C.2     1  UNL1        0.0080
      8  C          7.4830   -1.3600    0.2280 C.2     1  UNL1        0.0540
      9  C          8.4660    0.5420   -1.4680 C.2     1  UNL1        0.0510
     10  C          8.0440   -1.7540   -0.9900 C.2     1  UNL1        0.1660
     11  C          8.5390   -0.7950   -1.8460 C.2     1  UNL1        0.1650
     12  O          8.2310   -2.9840   -1.5840 O.2     1  UNL1       -0.4540
     13  O          9.0250   -1.4640   -2.9580 O.2     1  UNL1       -0.4540
     14  C          8.9320   -2.8590   -2.7940 C.3     1  UNL1        0.4680
@<TRIPOS>BOND
     1    13    14    1
     2    13    11    1
     3    14    12    1
     4    11     9    2
     5    11    10    1
     6    12    10    1
     7     9     7    1
     8    10     8    2
     9     7     6    2
    10     8     6    1
    11     6     5    1
    12     3     2    1
    13     2     1    1
    14     2     4    2
    15     5     1    1
