@<TRIPOS>MOLECULE
/home/cewinharhar/GITHUB/reincatalyze/data/processed/docking_pred/2023-May-24-1506_sub9_nm5_bs15_s42_ex16_mel10_mts10000_k50_ec02_g099_lra3e-4_lrc3e-3/b58c38953477011b0b30fd8623da0ee842eab33b_ligand_9.pdbqt
 14 15 0 0 0
SMALL
GASTEIGER

@<TRIPOS>ATOM
      1  C          6.3630    1.2100    0.8950 C.3     1  UNL1        0.0800
      2  C          5.6660    0.3930    1.9280 C.2     1  UNL1        0.1300
      3  C          6.2880   -0.8270    2.5090 C.3     1  UNL1        0.0870
      4  O          4.5560    0.7040    2.3280 O.2     1  UNL1       -0.3000
      5  C          5.8470    0.8970   -0.4950 C.3     1  UNL1        0.0430
      6  C          6.8060    0.0840   -1.2640 C.2     1  UNL1       -0.0440
      7  C          7.5010    0.6100   -2.3590 C.2     1  UNL1        0.0080
      8  C          7.0340   -1.2250   -0.9040 C.2     1  UNL1        0.0540
      9  C          8.3900   -0.2000   -3.0420 C.2     1  UNL1        0.0510
     10  C          7.9340   -2.0400   -1.5970 C.2     1  UNL1        0.1660
     11  C          8.6170   -1.5230   -2.6750 C.2     1  UNL1        0.1650
     12  O          8.3280   -3.3510   -1.4390 O.2     1  UNL1       -0.4540
     13  O          9.4260   -2.5380   -3.1610 O.2     1  UNL1       -0.4540
     14  C          9.3420   -3.6860   -2.3510 C.3     1  UNL1        0.4680
@<TRIPOS>BOND
     1    13    11    1
     2    13    14    1
     3     9    11    2
     4     9     7    1
     5    11    10    1
     6     7     6    2
     7    14    12    1
     8    10    12    1
     9    10     8    2
    10     6     8    1
    11     6     5    1
    12     5     1    1
    13     1     2    1
    14     2     4    2
    15     2     3    1
