@<TRIPOS>MOLECULE
/home/cewinharhar/GITHUB/reincatalyze/data/processed/docking_pred/2023-May-24-1506_sub9_nm5_bs15_s42_ex16_mel10_mts10000_k50_ec02_g099_lra3e-4_lrc3e-3/b590df4aad401e291154b1741be08749940afe84_ligand_9.pdbqt
 14 15 0 0 0
SMALL
GASTEIGER

@<TRIPOS>ATOM
      1  C          5.4370   -0.0300    2.0340 C.3     1  UNL1        0.0800
      2  C          4.5640    1.1470    1.7690 C.2     1  UNL1        0.1300
      3  C          4.8860    2.1330    0.7030 C.3     1  UNL1        0.0870
      4  O          3.5520    1.3370    2.4240 O.2     1  UNL1       -0.3000
      5  C          6.8630    0.2310    1.5920 C.3     1  UNL1        0.0430
      6  C          7.2860   -0.7010    0.5320 C.2     1  UNL1       -0.0440
      7  C          7.1640   -0.3740   -0.8240 C.2     1  UNL1        0.0080
      8  C          7.8180   -1.9240    0.8710 C.2     1  UNL1        0.0540
      9  C          7.5790   -1.2880   -1.7750 C.2     1  UNL1        0.0510
     10  C          8.2360   -2.8450   -0.0940 C.2     1  UNL1        0.1660
     11  C          8.1150   -2.5250   -1.4280 C.2     1  UNL1        0.1650
     12  O          8.7870   -4.1060   -0.0130 O.2     1  UNL1       -0.4540
     13  O          8.6010   -3.6060   -2.1460 O.2     1  UNL1       -0.4540
     14  C          9.1210   -4.5940   -1.2870 C.3     1  UNL1        0.4680
@<TRIPOS>BOND
     1    13    11    1
     2    13    14    1
     3     9    11    2
     4     9     7    1
     5    11    10    1
     6    14    12    1
     7     7     6    2
     8    10    12    1
     9    10     8    2
    10     6     8    1
    11     6     5    1
    12     3     2    1
    13     5     1    1
    14     2     1    1
    15     2     4    2
