@<TRIPOS>MOLECULE
/home/cewinharhar/GITHUB/reincatalyze/data/processed/docking_pred/2023-May-24-1506_sub9_nm5_bs15_s42_ex16_mel10_mts10000_k50_ec02_g099_lra3e-4_lrc3e-3/b590df4aad401e291154b1741be08749940afe84_ligand_9.pdbqt
 14 15 0 0 0
SMALL
GASTEIGER

@<TRIPOS>ATOM
      1  C          6.3520    1.2070    0.9760 C.3     1  UNL1        0.0800
      2  C          5.6490    0.3570    1.9770 C.2     1  UNL1        0.1300
      3  C          6.2830   -0.8590    2.5520 C.3     1  UNL1        0.0870
      4  O          4.5220    0.6370    2.3550 O.2     1  UNL1       -0.3000
      5  C          5.8390    0.9460   -0.4260 C.3     1  UNL1        0.0430
      6  C          6.7830    0.1280   -1.2100 C.2     1  UNL1       -0.0440
      7  C          7.4490    0.6460   -2.3260 C.2     1  UNL1        0.0080
      8  C          7.0240   -1.1760   -0.8420 C.2     1  UNL1        0.0540
      9  C          8.3240   -0.1680   -3.0230 C.2     1  UNL1        0.0510
     10  C          7.9100   -1.9940   -1.5490 C.2     1  UNL1        0.1660
     11  C          8.5650   -1.4860   -2.6480 C.2     1  UNL1        0.1650
     12  O          8.3130   -3.3030   -1.3870 O.2     1  UNL1       -0.4540
     13  O          9.3660   -2.5040   -3.1430 O.2     1  UNL1       -0.4540
     14  C          9.3050   -3.6440   -2.3200 C.3     1  UNL1        0.4680
@<TRIPOS>BOND
     1    13    11    1
     2    13    14    1
     3     9    11    2
     4     9     7    1
     5    11    10    1
     6     7     6    2
     7    14    12    1
     8    10    12    1
     9    10     8    2
    10     6     8    1
    11     6     5    1
    12     5     1    1
    13     1     2    1
    14     2     4    2
    15     2     3    1
