MODEL 1
REMARK VINA RESULT:      -7.6      0.000      0.000
REMARK SMILES CC(=O)CCc1ccc2c(c1)OCO2
REMARK SMILES IDX 4 1 2 2 1 3 3 4 5 5 6 6 7 7 11 8 8 9 10 10 9 11 12 12 14 13
REMARK SMILES IDX 13 14
REMARK H PARENT
REMARK Flexibility Score: inf
ROOT
ATOM      1  C   UNL     1       5.551   1.904   1.269  1.00  0.00     0.080 C 
ENDROOT
BRANCH   1   2
ATOM      2  C   UNL     1       5.102   0.693   2.011  1.00  0.00     0.130 C 
ATOM      3  C   UNL     1       5.987  -0.490   2.184  1.00  0.00     0.087 C 
ATOM      4  O   UNL     1       3.986   0.637   2.501  1.00  0.00    -0.300 OA
ENDBRANCH   1   2
BRANCH   1   5
ATOM      5  C   UNL     1       5.415   1.713  -0.229  1.00  0.00     0.043 C 
BRANCH   5   6
ATOM      6  C   UNL     1       6.580   1.013  -0.799  1.00  0.00    -0.044 A 
ATOM      7  C   UNL     1       7.887   1.450  -0.559  1.00  0.00     0.008 A 
ATOM      8  C   UNL     1       6.389  -0.100  -1.586  1.00  0.00     0.054 A 
ATOM      9  C   UNL     1       8.942   0.752  -1.120  1.00  0.00     0.051 A 
ATOM     10  C   UNL     1       7.458  -0.802  -2.150  1.00  0.00     0.166 A 
ATOM     11  C   UNL     1       8.745  -0.373  -1.915  1.00  0.00     0.165 A 
ATOM     12  O   UNL     1       7.528  -1.919  -2.955  1.00  0.00    -0.454 OA
ATOM     13  O   UNL     1       9.587  -1.244  -2.587  1.00  0.00    -0.454 OA
ATOM     14  C   UNL     1       8.862  -2.292  -3.185  1.00  0.00     0.468 C 
ENDBRANCH   5   6
ENDBRANCH   1   5
TORSDOF 3
ENDMDL
MODEL 2
REMARK VINA RESULT:      -7.5      1.915      2.366
REMARK SMILES CC(=O)CCc1ccc2c(c1)OCO2
REMARK SMILES IDX 4 1 2 2 1 3 3 4 5 5 6 6 7 7 11 8 8 9 10 10 9 11 12 12 14 13
REMARK SMILES IDX 13 14
REMARK H PARENT
REMARK Flexibility Score: inf
ROOT
ATOM      1  C   UNL     1       5.734   1.374  -0.306  1.00  0.00     0.080 C 
ENDROOT
BRANCH   1   2
ATOM      2  C   UNL     1       5.099   1.280   1.038  1.00  0.00     0.130 C 
ATOM      3  C   UNL     1       5.396   0.155   1.965  1.00  0.00     0.087 C 
ATOM      4  O   UNL     1       4.310   2.129   1.419  1.00  0.00    -0.300 OA
ENDBRANCH   1   2
BRANCH   1   5
ATOM      5  C   UNL     1       7.227   1.123  -0.228  1.00  0.00     0.043 C 
BRANCH   5   6
ATOM      6  C   UNL     1       7.597  -0.165  -0.841  1.00  0.00    -0.044 A 
ATOM      7  C   UNL     1       7.663  -0.323  -2.230  1.00  0.00     0.008 A 
ATOM      8  C   UNL     1       7.890  -1.244  -0.038  1.00  0.00     0.054 A 
ATOM      9  C   UNL     1       8.017  -1.556  -2.749  1.00  0.00     0.051 A 
ATOM     10  C   UNL     1       8.248  -2.487  -0.567  1.00  0.00     0.166 A 
ATOM     11  C   UNL     1       8.311  -2.644  -1.934  1.00  0.00     0.165 A 
ATOM     12  O   UNL     1       8.579  -3.694   0.011  1.00  0.00    -0.454 OA
ATOM     13  O   UNL     1       8.685  -3.958  -2.169  1.00  0.00    -0.454 OA
ATOM     14  C   UNL     1       8.953  -4.634  -0.964  1.00  0.00     0.468 C 
ENDBRANCH   5   6
ENDBRANCH   1   5
TORSDOF 3
ENDMDL
MODEL 3
REMARK VINA RESULT:      -7.2      2.050      2.611
REMARK SMILES CC(=O)CCc1ccc2c(c1)OCO2
REMARK SMILES IDX 4 1 2 2 1 3 3 4 5 5 6 6 7 7 11 8 8 9 10 10 9 11 12 12 14 13
REMARK SMILES IDX 13 14
REMARK H PARENT
REMARK Flexibility Score: inf
ROOT
ATOM      1  C   UNL     1       5.437  -0.030   2.034  1.00  0.00     0.080 C 
ENDROOT
BRANCH   1   2
ATOM      2  C   UNL     1       4.564   1.147   1.769  1.00  0.00     0.130 C 
ATOM      3  C   UNL     1       4.886   2.133   0.703  1.00  0.00     0.087 C 
ATOM      4  O   UNL     1       3.552   1.337   2.424  1.00  0.00    -0.300 OA
ENDBRANCH   1   2
BRANCH   1   5
ATOM      5  C   UNL     1       6.863   0.231   1.592  1.00  0.00     0.043 C 
BRANCH   5   6
ATOM      6  C   UNL     1       7.286  -0.701   0.532  1.00  0.00    -0.044 A 
ATOM      7  C   UNL     1       7.164  -0.374  -0.824  1.00  0.00     0.008 A 
ATOM      8  C   UNL     1       7.818  -1.924   0.871  1.00  0.00     0.054 A 
ATOM      9  C   UNL     1       7.579  -1.288  -1.775  1.00  0.00     0.051 A 
ATOM     10  C   UNL     1       8.236  -2.845  -0.094  1.00  0.00     0.166 A 
ATOM     11  C   UNL     1       8.115  -2.525  -1.428  1.00  0.00     0.165 A 
ATOM     12  O   UNL     1       8.787  -4.106  -0.013  1.00  0.00    -0.454 OA
ATOM     13  O   UNL     1       8.601  -3.606  -2.146  1.00  0.00    -0.454 OA
ATOM     14  C   UNL     1       9.121  -4.594  -1.287  1.00  0.00     0.468 C 
ENDBRANCH   5   6
ENDBRANCH   1   5
TORSDOF 3
ENDMDL
MODEL 4
REMARK VINA RESULT:      -7.1      1.244      1.428
REMARK SMILES CC(=O)CCc1ccc2c(c1)OCO2
REMARK SMILES IDX 4 1 2 2 1 3 3 4 5 5 6 6 7 7 11 8 8 9 10 10 9 11 12 12 14 13
REMARK SMILES IDX 13 14
REMARK H PARENT
REMARK Flexibility Score: inf
ROOT
ATOM      1  C   UNL     1       6.352   1.207   0.976  1.00  0.00     0.080 C 
ENDROOT
BRANCH   1   2
ATOM      2  C   UNL     1       5.649   0.357   1.977  1.00  0.00     0.130 C 
ATOM      3  C   UNL     1       6.283  -0.859   2.552  1.00  0.00     0.087 C 
ATOM      4  O   UNL     1       4.522   0.637   2.355  1.00  0.00    -0.300 OA
ENDBRANCH   1   2
BRANCH   1   5
ATOM      5  C   UNL     1       5.839   0.946  -0.426  1.00  0.00     0.043 C 
BRANCH   5   6
ATOM      6  C   UNL     1       6.783   0.128  -1.210  1.00  0.00    -0.044 A 
ATOM      7  C   UNL     1       7.449   0.646  -2.326  1.00  0.00     0.008 A 
ATOM      8  C   UNL     1       7.024  -1.176  -0.842  1.00  0.00     0.054 A 
ATOM      9  C   UNL     1       8.324  -0.168  -3.023  1.00  0.00     0.051 A 
ATOM     10  C   UNL     1       7.910  -1.994  -1.549  1.00  0.00     0.166 A 
ATOM     11  C   UNL     1       8.565  -1.486  -2.648  1.00  0.00     0.165 A 
ATOM     12  O   UNL     1       8.313  -3.303  -1.387  1.00  0.00    -0.454 OA
ATOM     13  O   UNL     1       9.366  -2.504  -3.143  1.00  0.00    -0.454 OA
ATOM     14  C   UNL     1       9.305  -3.644  -2.320  1.00  0.00     0.468 C 
ENDBRANCH   5   6
ENDBRANCH   1   5
TORSDOF 3
ENDMDL
MODEL 5
REMARK VINA RESULT:      -7.0      1.989      2.563
REMARK SMILES CC(=O)CCc1ccc2c(c1)OCO2
REMARK SMILES IDX 4 1 2 2 1 3 3 4 5 5 6 6 7 7 11 8 8 9 10 10 9 11 12 12 14 13
REMARK SMILES IDX 13 14
REMARK H PARENT
REMARK Flexibility Score: inf
ROOT
ATOM      1  C   UNL     1       6.857   0.728   1.242  1.00  0.00     0.080 C 
ENDROOT
BRANCH   1   2
ATOM      2  C   UNL     1       5.429   1.059   1.510  1.00  0.00     0.130 C 
ATOM      3  C   UNL     1       4.731   2.150   0.780  1.00  0.00     0.087 C 
ATOM      4  O   UNL     1       4.788   0.440   2.344  1.00  0.00    -0.300 OA
ENDBRANCH   1   2
BRANCH   1   5
ATOM      5  C   UNL     1       7.194   0.896  -0.226  1.00  0.00     0.043 C 
BRANCH   5   6
ATOM      6  C   UNL     1       7.604  -0.379  -0.842  1.00  0.00    -0.044 A 
ATOM      7  C   UNL     1       7.681  -0.531  -2.231  1.00  0.00     0.008 A 
ATOM      8  C   UNL     1       7.924  -1.452  -0.041  1.00  0.00     0.054 A 
ATOM      9  C   UNL     1       8.073  -1.750  -2.752  1.00  0.00     0.051 A 
ATOM     10  C   UNL     1       8.320  -2.683  -0.573  1.00  0.00     0.166 A 
ATOM     11  C   UNL     1       8.395  -2.833  -1.940  1.00  0.00     0.165 A 
ATOM     12  O   UNL     1       8.683  -3.882   0.003  1.00  0.00    -0.454 OA
ATOM     13  O   UNL     1       8.807  -4.135  -2.178  1.00  0.00    -0.454 OA
ATOM     14  C   UNL     1       9.089  -4.807  -0.973  1.00  0.00     0.468 C 
ENDBRANCH   5   6
ENDBRANCH   1   5
TORSDOF 3
ENDMDL
