@<TRIPOS>MOLECULE
/home/cewinharhar/GITHUB/reincatalyze/data/processed/docking_pred/2023-May-24-1506_sub9_nm5_bs15_s42_ex16_mel10_mts10000_k50_ec02_g099_lra3e-4_lrc3e-3/b590df4aad401e291154b1741be08749940afe84_ligand_9.pdbqt
 14 15 0 0 0
SMALL
GASTEIGER

@<TRIPOS>ATOM
      1  C          6.8570    0.7280    1.2420 C.3     1  UNL1        0.0800
      2  C          5.4290    1.0590    1.5100 C.2     1  UNL1        0.1300
      3  C          4.7310    2.1500    0.7800 C.3     1  UNL1        0.0870
      4  O          4.7880    0.4400    2.3440 O.2     1  UNL1       -0.3000
      5  C          7.1940    0.8960   -0.2260 C.3     1  UNL1        0.0430
      6  C          7.6040   -0.3790   -0.8420 C.2     1  UNL1       -0.0440
      7  C          7.6810   -0.5310   -2.2310 C.2     1  UNL1        0.0080
      8  C          7.9240   -1.4520   -0.0410 C.2     1  UNL1        0.0540
      9  C          8.0730   -1.7500   -2.7520 C.2     1  UNL1        0.0510
     10  C          8.3200   -2.6830   -0.5730 C.2     1  UNL1        0.1660
     11  C          8.3950   -2.8330   -1.9400 C.2     1  UNL1        0.1650
     12  O          8.6830   -3.8820    0.0030 O.2     1  UNL1       -0.4540
     13  O          8.8070   -4.1350   -2.1780 O.2     1  UNL1       -0.4540
     14  C          9.0890   -4.8070   -0.9730 C.3     1  UNL1        0.4680
@<TRIPOS>BOND
     1     9     7    1
     2     9    11    2
     3     7     6    2
     4    13    11    1
     5    13    14    1
     6    11    10    1
     7    14    12    1
     8     6     5    1
     9     6     8    1
    10    10     8    2
    11    10    12    1
    12     5     1    1
    13     3     2    1
    14     1     2    1
    15     2     4    2
