@<TRIPOS>MOLECULE
/home/cewinharhar/GITHUB/reincatalyze/data/processed/docking_pred/2023-May-24-1506_sub9_nm5_bs15_s42_ex16_mel10_mts10000_k50_ec02_g099_lra3e-4_lrc3e-3/b5f7d4a2d914252a6bbd971338c7ac1ea6a3e46f_ligand_9.pdbqt
 14 15 0 0 0
SMALL
GASTEIGER

@<TRIPOS>ATOM
      1  C          5.6950    1.3550   -0.2290 C.3     1  UNL1        0.0800
      2  C          5.0120    1.2240    1.0880 C.2     1  UNL1        0.1300
      3  C          5.2630    0.0650    1.9860 C.3     1  UNL1        0.0870
      4  O          4.2190    2.0700    1.4690 O.2     1  UNL1       -0.3000
      5  C          7.1830    1.0900   -0.1050 C.3     1  UNL1        0.0430
      6  C          7.5670   -0.1780   -0.7500 C.2     1  UNL1       -0.0440
      7  C          7.6430   -0.2990   -2.1430 C.2     1  UNL1        0.0080
      8  C          7.8630   -1.2750    0.0260 C.2     1  UNL1        0.0540
      9  C          8.0110   -1.5140   -2.6910 C.2     1  UNL1        0.0510
     10  C          8.2350   -2.5010   -0.5340 C.2     1  UNL1        0.1660
     11  C          8.3090   -2.6220   -1.9040 C.2     1  UNL1        0.1650
     12  O          8.5720   -3.7210    0.0140 O.2     1  UNL1       -0.4540
     13  O          8.6950   -3.9260   -2.1720 O.2     1  UNL1       -0.4540
     14  C          8.9600   -4.6310   -0.9830 C.3     1  UNL1        0.4680
@<TRIPOS>BOND
     1     9     7    1
     2     9    11    2
     3    13    11    1
     4    13    14    1
     5     7     6    2
     6    11    10    1
     7    14    12    1
     8     6     5    1
     9     6     8    1
    10    10    12    1
    11    10     8    2
    12     1     5    1
    13     1     2    1
    14     2     4    2
    15     2     3    1
