@<TRIPOS>MOLECULE
/home/cewinharhar/GITHUB/reincatalyze/data/processed/docking_pred/2023-May-24-1506_sub9_nm5_bs15_s42_ex16_mel10_mts10000_k50_ec02_g099_lra3e-4_lrc3e-3/b5f7d4a2d914252a6bbd971338c7ac1ea6a3e46f_ligand_9.pdbqt
 14 15 0 0 0
SMALL
GASTEIGER

@<TRIPOS>ATOM
      1  C          5.5390    1.9240    1.2740 C.3     1  UNL1        0.0800
      2  C          5.0890    0.7100    2.0100 C.2     1  UNL1        0.1300
      3  C          5.9820   -0.4650    2.1960 C.3     1  UNL1        0.0870
      4  O          3.9670    0.6440    2.4840 O.2     1  UNL1       -0.3000
      5  C          5.4070    1.7400   -0.2240 C.3     1  UNL1        0.0430
      6  C          6.5690    1.0330   -0.7920 C.2     1  UNL1       -0.0440
      7  C          7.8790    1.4630   -0.5500 C.2     1  UNL1        0.0080
      8  C          6.3730   -0.0790   -1.5800 C.2     1  UNL1        0.0540
      9  C          8.9300    0.7590   -1.1080 C.2     1  UNL1        0.0510
     10  C          7.4390   -0.7870   -2.1420 C.2     1  UNL1        0.1660
     11  C          8.7280   -0.3640   -1.9050 C.2     1  UNL1        0.1650
     12  O          7.5040   -1.9040   -2.9470 O.2     1  UNL1       -0.4540
     13  O          9.5670   -1.2400   -2.5750 O.2     1  UNL1       -0.4540
     14  C          8.8370   -2.2850   -3.1740 C.3     1  UNL1        0.4680
@<TRIPOS>BOND
     1    14    12    1
     2    14    13    1
     3    12    10    1
     4    13    11    1
     5    10    11    2
     6    10     8    1
     7    11     9    1
     8     8     6    2
     9     9     7    2
    10     6     7    1
    11     6     5    1
    12     5     1    1
    13     1     2    1
    14     2     3    1
    15     2     4    2
