@<TRIPOS>MOLECULE
/home/cewinharhar/GITHUB/reincatalyze/data/processed/docking_pred/2023-May-24-1506_sub9_nm5_bs15_s42_ex16_mel10_mts10000_k50_ec02_g099_lra3e-4_lrc3e-3/b5f7d4a2d914252a6bbd971338c7ac1ea6a3e46f_ligand_9.pdbqt
 14 15 0 0 0
SMALL
GASTEIGER

@<TRIPOS>ATOM
      1  C          5.3040   -0.1010    1.9430 C.3     1  UNL1        0.0800
      2  C          4.4270    1.0900    1.7710 C.2     1  UNL1        0.1300
      3  C          4.7040    2.1210    0.7350 C.3     1  UNL1        0.0870
      4  O          3.4490    1.2560    2.4820 O.2     1  UNL1       -0.3000
      5  C          6.7690    0.2840    1.9070 C.3     1  UNL1        0.0430
      6  C          7.3910   -0.0530    0.6140 C.2     1  UNL1       -0.0440
      7  C          7.9150    0.9360   -0.2270 C.2     1  UNL1        0.0080
      8  C          7.4650   -1.3680    0.2140 C.2     1  UNL1        0.0540
      9  C          8.4880    0.5600   -1.4290 C.2     1  UNL1        0.0510
     10  C          8.0450   -1.7420   -1.0020 C.2     1  UNL1        0.1660
     11  C          8.5600   -0.7700   -1.8300 C.2     1  UNL1        0.1650
     12  O          8.2370   -2.9620   -1.6150 O.2     1  UNL1       -0.4540
     13  O          9.0640   -1.4200   -2.9460 O.2     1  UNL1       -0.4540
     14  C          8.9610   -2.8170   -2.8100 C.3     1  UNL1        0.4680
@<TRIPOS>BOND
     1    13    14    1
     2    13    11    1
     3    14    12    1
     4    11     9    2
     5    11    10    1
     6    12    10    1
     7     9     7    1
     8    10     8    2
     9     7     6    2
    10     8     6    1
    11     6     5    1
    12     3     2    1
    13     2     1    1
    14     2     4    2
    15     5     1    1
