@<TRIPOS>MOLECULE
/home/cewinharhar/GITHUB/reincatalyze/data/processed/docking_pred/2023-May-24-1506_sub9_nm5_bs15_s42_ex16_mel10_mts10000_k50_ec02_g099_lra3e-4_lrc3e-3/b5f7d4a2d914252a6bbd971338c7ac1ea6a3e46f_ligand_9.pdbqt
 14 15 0 0 0
SMALL
GASTEIGER

@<TRIPOS>ATOM
      1  C          5.4220   -0.0400    2.0210 C.3     1  UNL1        0.0800
      2  C          4.5210    1.1150    1.7510 C.2     1  UNL1        0.1300
      3  C          4.8030    2.0880    0.6630 C.3     1  UNL1        0.0870
      4  O          3.5170    1.2970    2.4220 O.2     1  UNL1       -0.3000
      5  C          6.8370    0.2460    1.5590 C.3     1  UNL1        0.0430
      6  C          7.2690   -0.6930    0.5080 C.2     1  UNL1       -0.0440
      7  C          7.1530   -0.3780   -0.8500 C.2     1  UNL1        0.0080
      8  C          7.8040   -1.9110    0.8610 C.2     1  UNL1        0.0540
      9  C          7.5760   -1.2990   -1.7910 C.2     1  UNL1        0.0510
     10  C          8.2310   -2.8390   -0.0950 C.2     1  UNL1        0.1660
     11  C          8.1150   -2.5300   -1.4320 C.2     1  UNL1        0.1650
     12  O          8.7870   -4.0970   -0.0000 O.2     1  UNL1       -0.4540
     13  O          8.6090   -3.6150   -2.1380 O.2     1  UNL1       -0.4540
     14  C          9.1280   -4.5930   -1.2690 C.3     1  UNL1        0.4680
@<TRIPOS>BOND
     1    13    11    1
     2    13    14    1
     3     9    11    2
     4     9     7    1
     5    11    10    1
     6    14    12    1
     7     7     6    2
     8    10    12    1
     9    10     8    2
    10     6     8    1
    11     6     5    1
    12     3     2    1
    13     5     1    1
    14     2     1    1
    15     2     4    2
