MODEL 1
REMARK VINA RESULT:      -7.6      0.000      0.000
REMARK SMILES CC(=O)CCc1ccc2c(c1)OCO2
REMARK SMILES IDX 4 1 2 2 1 3 3 4 5 5 6 6 7 7 11 8 8 9 10 10 9 11 12 12 14 13
REMARK SMILES IDX 13 14
REMARK H PARENT
REMARK Flexibility Score: inf
ROOT
ATOM      1  C   UNL     1       5.553   1.916   1.281  1.00  0.00     0.080 C 
ENDROOT
BRANCH   1   2
ATOM      2  C   UNL     1       5.109   0.702   2.020  1.00  0.00     0.130 C 
ATOM      3  C   UNL     1       6.001  -0.475   2.197  1.00  0.00     0.087 C 
ATOM      4  O   UNL     1       3.991   0.637   2.505  1.00  0.00    -0.300 OA
ENDBRANCH   1   2
BRANCH   1   5
ATOM      5  C   UNL     1       5.417   1.729  -0.217  1.00  0.00     0.043 C 
BRANCH   5   6
ATOM      6  C   UNL     1       6.580   1.027  -0.788  1.00  0.00    -0.044 A 
ATOM      7  C   UNL     1       7.889   1.464  -0.551  1.00  0.00     0.008 A 
ATOM      8  C   UNL     1       6.387  -0.087  -1.573  1.00  0.00     0.054 A 
ATOM      9  C   UNL     1       8.942   0.764  -1.113  1.00  0.00     0.051 A 
ATOM     10  C   UNL     1       7.455  -0.791  -2.138  1.00  0.00     0.166 A 
ATOM     11  C   UNL     1       8.743  -0.361  -1.906  1.00  0.00     0.165 A 
ATOM     12  O   UNL     1       7.523  -1.909  -2.941  1.00  0.00    -0.454 OA
ATOM     13  O   UNL     1       9.583  -1.235  -2.578  1.00  0.00    -0.454 OA
ATOM     14  C   UNL     1       8.857  -2.283  -3.173  1.00  0.00     0.468 C 
ENDBRANCH   5   6
ENDBRANCH   1   5
TORSDOF 3
ENDMDL
MODEL 2
REMARK VINA RESULT:      -7.3      1.916      2.347
REMARK SMILES CC(=O)CCc1ccc2c(c1)OCO2
REMARK SMILES IDX 4 1 2 2 1 3 3 4 5 5 6 6 7 7 11 8 8 9 10 10 9 11 12 12 14 13
REMARK SMILES IDX 13 14
REMARK H PARENT
REMARK Flexibility Score: inf
ROOT
ATOM      1  C   UNL     1       5.759   1.394  -0.186  1.00  0.00     0.080 C 
ENDROOT
BRANCH   1   2
ATOM      2  C   UNL     1       5.087   1.262   1.137  1.00  0.00     0.130 C 
ATOM      3  C   UNL     1       5.379   0.126   2.051  1.00  0.00     0.087 C 
ATOM      4  O   UNL     1       4.272   2.090   1.510  1.00  0.00    -0.300 OA
ENDBRANCH   1   2
BRANCH   1   5
ATOM      5  C   UNL     1       7.244   1.108  -0.081  1.00  0.00     0.043 C 
BRANCH   5   6
ATOM      6  C   UNL     1       7.603  -0.163  -0.734  1.00  0.00    -0.044 A 
ATOM      7  C   UNL     1       7.634  -0.288  -2.128  1.00  0.00     0.008 A 
ATOM      8  C   UNL     1       7.921  -1.260   0.035  1.00  0.00     0.054 A 
ATOM      9  C   UNL     1       7.980  -1.506  -2.685  1.00  0.00     0.051 A 
ATOM     10  C   UNL     1       8.270  -2.489  -0.533  1.00  0.00     0.166 A 
ATOM     11  C   UNL     1       8.299  -2.613  -1.904  1.00  0.00     0.165 A 
ATOM     12  O   UNL     1       8.621  -3.708   0.007  1.00  0.00    -0.454 OA
ATOM     13  O   UNL     1       8.672  -3.919  -2.181  1.00  0.00    -0.454 OA
ATOM     14  C   UNL     1       8.974  -4.622  -0.999  1.00  0.00     0.468 C 
ENDBRANCH   5   6
ENDBRANCH   1   5
TORSDOF 3
ENDMDL
MODEL 3
REMARK VINA RESULT:      -7.2      2.056      2.628
REMARK SMILES CC(=O)CCc1ccc2c(c1)OCO2
REMARK SMILES IDX 4 1 2 2 1 3 3 4 5 5 6 6 7 7 11 8 8 9 10 10 9 11 12 12 14 13
REMARK SMILES IDX 13 14
REMARK H PARENT
REMARK Flexibility Score: inf
ROOT
ATOM      1  C   UNL     1       5.420  -0.056   2.010  1.00  0.00     0.080 C 
ENDROOT
BRANCH   1   2
ATOM      2  C   UNL     1       4.578   1.148   1.764  1.00  0.00     0.130 C 
ATOM      3  C   UNL     1       4.913   2.132   0.701  1.00  0.00     0.087 C 
ATOM      4  O   UNL     1       3.581   1.363   2.435  1.00  0.00    -0.300 OA
ENDBRANCH   1   2
BRANCH   1   5
ATOM      5  C   UNL     1       6.859   0.186   1.600  1.00  0.00     0.043 C 
BRANCH   5   6
ATOM      6  C   UNL     1       7.287  -0.739   0.535  1.00  0.00    -0.044 A 
ATOM      7  C   UNL     1       7.163  -0.405  -0.818  1.00  0.00     0.008 A 
ATOM      8  C   UNL     1       7.825  -1.961   0.869  1.00  0.00     0.054 A 
ATOM      9  C   UNL     1       7.583  -1.313  -1.774  1.00  0.00     0.051 A 
ATOM     10  C   UNL     1       8.248  -2.875  -0.101  1.00  0.00     0.166 A 
ATOM     11  C   UNL     1       8.126  -2.548  -1.433  1.00  0.00     0.165 A 
ATOM     12  O   UNL     1       8.806  -4.133  -0.026  1.00  0.00    -0.454 OA
ATOM     13  O   UNL     1       8.617  -3.624  -2.156  1.00  0.00    -0.454 OA
ATOM     14  C   UNL     1       9.142  -4.613  -1.303  1.00  0.00     0.468 C 
ENDBRANCH   5   6
ENDBRANCH   1   5
TORSDOF 3
ENDMDL
MODEL 4
REMARK VINA RESULT:      -7.0      1.224      1.403
REMARK SMILES CC(=O)CCc1ccc2c(c1)OCO2
REMARK SMILES IDX 4 1 2 2 1 3 3 4 5 5 6 6 7 7 11 8 8 9 10 10 9 11 12 12 14 13
REMARK SMILES IDX 13 14
REMARK H PARENT
REMARK Flexibility Score: inf
ROOT
ATOM      1  C   UNL     1       6.328   1.266   0.936  1.00  0.00     0.080 C 
ENDROOT
BRANCH   1   2
ATOM      2  C   UNL     1       5.631   0.401   1.929  1.00  0.00     0.130 C 
ATOM      3  C   UNL     1       6.281  -0.806   2.506  1.00  0.00     0.087 C 
ATOM      4  O   UNL     1       4.497   0.660   2.298  1.00  0.00    -0.300 OA
ENDBRANCH   1   2
BRANCH   1   5
ATOM      5  C   UNL     1       5.829   1.003  -0.470  1.00  0.00     0.043 C 
BRANCH   5   6
ATOM      6  C   UNL     1       6.775   0.176  -1.241  1.00  0.00    -0.044 A 
ATOM      7  C   UNL     1       7.473   0.692  -2.339  1.00  0.00     0.008 A 
ATOM      8  C   UNL     1       6.989  -1.134  -0.878  1.00  0.00     0.054 A 
ATOM      9  C   UNL     1       8.349  -0.130  -3.024  1.00  0.00     0.051 A 
ATOM     10  C   UNL     1       7.876  -1.961  -1.573  1.00  0.00     0.166 A 
ATOM     11  C   UNL     1       8.562  -1.455  -2.655  1.00  0.00     0.165 A 
ATOM     12  O   UNL     1       8.255  -3.277  -1.413  1.00  0.00    -0.454 OA
ATOM     13  O   UNL     1       9.357  -2.481  -3.142  1.00  0.00    -0.454 OA
ATOM     14  C   UNL     1       9.262  -3.627  -2.329  1.00  0.00     0.468 C 
ENDBRANCH   5   6
ENDBRANCH   1   5
TORSDOF 3
ENDMDL
MODEL 5
REMARK VINA RESULT:      -6.7      1.190      5.184
REMARK SMILES CC(=O)CCc1ccc2c(c1)OCO2
REMARK SMILES IDX 4 1 2 2 1 3 3 4 5 5 6 6 7 7 11 8 8 9 10 10 9 11 12 12 14 13
REMARK SMILES IDX 13 14
REMARK H PARENT
REMARK Flexibility Score: inf
ROOT
ATOM      1  C   UNL     1       8.323   0.179  -2.668  1.00  0.00     0.080 C 
ENDROOT
BRANCH   1   2
ATOM      2  C   UNL     1       8.065  -1.283  -2.782  1.00  0.00     0.130 C 
ATOM      3  C   UNL     1       9.165  -2.254  -3.026  1.00  0.00     0.087 C 
ATOM      4  O   UNL     1       6.934  -1.730  -2.679  1.00  0.00    -0.300 OA
ENDBRANCH   1   2
BRANCH   1   5
ATOM      5  C   UNL     1       8.854   0.539  -1.295  1.00  0.00     0.043 C 
BRANCH   5   6
ATOM      6  C   UNL     1       7.817   0.406  -0.256  1.00  0.00    -0.044 A 
ATOM      7  C   UNL     1       7.913  -0.556   0.757  1.00  0.00     0.008 A 
ATOM      8  C   UNL     1       6.725   1.243  -0.271  1.00  0.00     0.054 A 
ATOM      9  C   UNL     1       6.910  -0.634   1.705  1.00  0.00     0.051 A 
ATOM     10  C   UNL     1       5.713   1.160   0.691  1.00  0.00     0.166 A 
ATOM     11  C   UNL     1       5.807   0.214   1.687  1.00  0.00     0.165 A 
ATOM     12  O   UNL     1       4.546   1.866   0.890  1.00  0.00    -0.454 OA
ATOM     13  O   UNL     1       4.683   0.360   2.485  1.00  0.00    -0.454 OA
ATOM     14  C   UNL     1       3.903   1.455   2.069  1.00  0.00     0.468 C 
ENDBRANCH   5   6
ENDBRANCH   1   5
TORSDOF 3
ENDMDL
