@<TRIPOS>MOLECULE
/home/cewinharhar/GITHUB/reincatalyze/data/processed/docking_pred/2023-May-24-1506_sub9_nm5_bs15_s42_ex16_mel10_mts10000_k50_ec02_g099_lra3e-4_lrc3e-3/b658f69152bbaa0d4df6d0fc1d77222c9f34aa3c_ligand_9.pdbqt
 14 15 0 0 0
SMALL
GASTEIGER

@<TRIPOS>ATOM
      1  C          6.3280    1.2660    0.9360 C.3     1  UNL1        0.0800
      2  C          5.6310    0.4010    1.9290 C.2     1  UNL1        0.1300
      3  C          6.2810   -0.8060    2.5060 C.3     1  UNL1        0.0870
      4  O          4.4970    0.6600    2.2980 O.2     1  UNL1       -0.3000
      5  C          5.8290    1.0030   -0.4700 C.3     1  UNL1        0.0430
      6  C          6.7750    0.1760   -1.2410 C.2     1  UNL1       -0.0440
      7  C          7.4730    0.6920   -2.3390 C.2     1  UNL1        0.0080
      8  C          6.9890   -1.1340   -0.8780 C.2     1  UNL1        0.0540
      9  C          8.3490   -0.1300   -3.0240 C.2     1  UNL1        0.0510
     10  C          7.8760   -1.9610   -1.5730 C.2     1  UNL1        0.1660
     11  C          8.5620   -1.4550   -2.6550 C.2     1  UNL1        0.1650
     12  O          8.2550   -3.2770   -1.4130 O.2     1  UNL1       -0.4540
     13  O          9.3570   -2.4810   -3.1420 O.2     1  UNL1       -0.4540
     14  C          9.2620   -3.6270   -2.3290 C.3     1  UNL1        0.4680
@<TRIPOS>BOND
     1    13    11    1
     2    13    14    1
     3     9    11    2
     4     9     7    1
     5    11    10    1
     6     7     6    2
     7    14    12    1
     8    10    12    1
     9    10     8    2
    10     6     8    1
    11     6     5    1
    12     5     1    1
    13     1     2    1
    14     2     4    2
    15     2     3    1
