@<TRIPOS>MOLECULE
/home/cewinharhar/GITHUB/reincatalyze/data/processed/docking_pred/2023-May-24-1506_sub9_nm5_bs15_s42_ex16_mel10_mts10000_k50_ec02_g099_lra3e-4_lrc3e-3/b6d9d22ba74a786f40f74d2d798275b3d0e0e8fa_ligand_9.pdbqt
 14 15 0 0 0
SMALL
GASTEIGER

@<TRIPOS>ATOM
      1  C          5.7020    1.3370   -0.2330 C.3     1  UNL1        0.0800
      2  C          5.0800    1.2490    1.1180 C.2     1  UNL1        0.1300
      3  C          5.3820    0.1250    2.0440 C.3     1  UNL1        0.0870
      4  O          4.3000    2.1030    1.5050 O.2     1  UNL1       -0.3000
      5  C          7.1980    1.1080   -0.1670 C.3     1  UNL1        0.0430
      6  C          7.5840   -0.1680   -0.7950 C.2     1  UNL1       -0.0440
      7  C          7.6730   -0.3040   -2.1850 C.2     1  UNL1        0.0080
      8  C          7.8690   -1.2590   -0.0050 C.2     1  UNL1        0.0540
      9  C          8.0410   -1.5260   -2.7180 C.2     1  UNL1        0.0510
     10  C          8.2410   -2.4920   -0.5480 C.2     1  UNL1        0.1660
     11  C          8.3270   -2.6270   -1.9160 C.2     1  UNL1        0.1650
     12  O          8.5680   -3.7070    0.0160 O.2     1  UNL1       -0.4540
     13  O          8.7110   -3.9350   -2.1660 O.2     1  UNL1       -0.4540
     14  C          8.9620   -4.6290   -0.9680 C.3     1  UNL1        0.4680
@<TRIPOS>BOND
     1     9     7    1
     2     9    11    2
     3     7     6    2
     4    13    11    1
     5    13    14    1
     6    11    10    1
     7    14    12    1
     8     6     5    1
     9     6     8    1
    10    10     8    2
    11    10    12    1
    12     1     5    1
    13     1     2    1
    14     2     4    2
    15     2     3    1
