@<TRIPOS>MOLECULE
/home/cewinharhar/GITHUB/reincatalyze/data/processed/docking_pred/2023-May-24-1506_sub9_nm5_bs15_s42_ex16_mel10_mts10000_k50_ec02_g099_lra3e-4_lrc3e-3/b8d8050f43b71ccf975db7ed0a80e234855f027b_ligand_9.pdbqt
 14 15 0 0 0
SMALL
GASTEIGER

@<TRIPOS>ATOM
      1  C          5.6890    0.0810    1.9150 C.3     1  UNL1        0.0800
      2  C          4.7370    1.1790    1.5880 C.2     1  UNL1        0.1300
      3  C          4.9880    2.1210    0.4640 C.3     1  UNL1        0.0870
      4  O          3.7170    1.3390    2.2380 O.2     1  UNL1       -0.3000
      5  C          7.0640    0.3550    1.3390 C.3     1  UNL1        0.0430
      6  C          7.4460   -0.6530    0.3340 C.2     1  UNL1       -0.0440
      7  C          7.3530   -0.3920   -1.0380 C.2     1  UNL1        0.0080
      8  C          7.9090   -1.8830    0.7430 C.2     1  UNL1        0.0540
      9  C          7.7270   -1.3750   -1.9350 C.2     1  UNL1        0.0510
     10  C          8.2860   -2.8740   -0.1680 C.2     1  UNL1        0.1660
     11  C          8.1940   -2.6180   -1.5180 C.2     1  UNL1        0.1650
     12  O          8.7690   -4.1560   -0.0160 O.2     1  UNL1       -0.4540
     13  O          8.6270   -3.7600   -2.1730 O.2     1  UNL1       -0.4540
     14  C          9.0870   -4.7270   -1.2590 C.3     1  UNL1        0.4680
@<TRIPOS>BOND
     1    13    11    1
     2    13    14    1
     3     9    11    2
     4     9     7    1
     5    11    10    1
     6    14    12    1
     7     7     6    2
     8    10    12    1
     9    10     8    2
    10     6     8    1
    11     6     5    1
    12     3     2    1
    13     5     1    1
    14     2     1    1
    15     2     4    2
