@<TRIPOS>MOLECULE
/home/cewinharhar/GITHUB/reincatalyze/data/processed/docking_pred/2023-May-24-1506_sub9_nm5_bs15_s42_ex16_mel10_mts10000_k50_ec02_g099_lra3e-4_lrc3e-3/b8d8050f43b71ccf975db7ed0a80e234855f027b_ligand_9.pdbqt
 14 15 0 0 0
SMALL
GASTEIGER

@<TRIPOS>ATOM
      1  C          5.3260   -0.0650    1.9710 C.3     1  UNL1        0.0800
      2  C          4.4440    1.1210    1.7870 C.2     1  UNL1        0.1300
      3  C          4.7260    2.1500    0.7500 C.3     1  UNL1        0.0870
      4  O          3.4590    1.2850    2.4880 O.2     1  UNL1       -0.3000
      5  C          6.7900    0.3210    1.9040 C.3     1  UNL1        0.0430
      6  C          7.3920   -0.0390    0.6080 C.2     1  UNL1       -0.0440
      7  C          7.8850    0.9360   -0.2670 C.2     1  UNL1        0.0080
      8  C          7.4770   -1.3620    0.2400 C.2     1  UNL1        0.0540
      9  C          8.4390    0.5380   -1.4700 C.2     1  UNL1        0.0510
     10  C          8.0400   -1.7590   -0.9770 C.2     1  UNL1        0.1660
     11  C          8.5240   -0.8010   -1.8400 C.2     1  UNL1        0.1650
     12  O          8.2370   -2.9910   -1.5640 O.2     1  UNL1       -0.4540
     13  O          9.0150   -1.4710   -2.9490 O.2     1  UNL1       -0.4540
     14  C          8.9360   -2.8660   -2.7760 C.3     1  UNL1        0.4680
@<TRIPOS>BOND
     1    13    14    1
     2    13    11    1
     3    14    12    1
     4    11     9    2
     5    11    10    1
     6    12    10    1
     7     9     7    1
     8    10     8    2
     9     7     6    2
    10     8     6    1
    11     6     5    1
    12     3     2    1
    13     2     1    1
    14     2     4    2
    15     5     1    1
