MODEL 1
REMARK VINA RESULT:      -7.6      0.000      0.000
REMARK SMILES CC(=O)CCc1ccc2c(c1)OCO2
REMARK SMILES IDX 4 1 2 2 1 3 3 4 5 5 6 6 7 7 11 8 8 9 10 10 9 11 12 12 14 13
REMARK SMILES IDX 13 14
REMARK H PARENT
REMARK Flexibility Score: inf
ROOT
ATOM      1  C   UNL     1       5.602   1.854   1.303  1.00  0.00     0.080 C 
ENDROOT
BRANCH   1   2
ATOM      2  C   UNL     1       5.141   0.643   2.037  1.00  0.00     0.130 C 
ATOM      3  C   UNL     1       6.024  -0.540   2.223  1.00  0.00     0.087 C 
ATOM      4  O   UNL     1       4.018   0.586   2.511  1.00  0.00    -0.300 OA
ENDBRANCH   1   2
BRANCH   1   5
ATOM      5  C   UNL     1       5.452   1.679  -0.196  1.00  0.00     0.043 C 
BRANCH   5   6
ATOM      6  C   UNL     1       6.611   0.984  -0.783  1.00  0.00    -0.044 A 
ATOM      7  C   UNL     1       7.920   1.430  -0.568  1.00  0.00     0.008 A 
ATOM      8  C   UNL     1       6.413  -0.133  -1.563  1.00  0.00     0.054 A 
ATOM      9  C   UNL     1       8.969   0.737  -1.144  1.00  0.00     0.051 A 
ATOM     10  C   UNL     1       7.477  -0.831  -2.143  1.00  0.00     0.166 A 
ATOM     11  C   UNL     1       8.765  -0.392  -1.932  1.00  0.00     0.165 A 
ATOM     12  O   UNL     1       7.540  -1.950  -2.945  1.00  0.00    -0.454 OA
ATOM     13  O   UNL     1       9.601  -1.260  -2.616  1.00  0.00    -0.454 OA
ATOM     14  C   UNL     1       8.872  -2.315  -3.197  1.00  0.00     0.468 C 
ENDBRANCH   5   6
ENDBRANCH   1   5
TORSDOF 3
ENDMDL
MODEL 2
REMARK VINA RESULT:      -7.4      1.922      2.373
REMARK SMILES CC(=O)CCc1ccc2c(c1)OCO2
REMARK SMILES IDX 4 1 2 2 1 3 3 4 5 5 6 6 7 7 11 8 8 9 10 10 9 11 12 12 14 13
REMARK SMILES IDX 13 14
REMARK H PARENT
REMARK Flexibility Score: inf
ROOT
ATOM      1  C   UNL     1       5.718   1.246  -0.311  1.00  0.00     0.080 C 
ENDROOT
BRANCH   1   2
ATOM      2  C   UNL     1       5.144   1.235   1.063  1.00  0.00     0.130 C 
ATOM      3  C   UNL     1       5.404   0.117   2.009  1.00  0.00     0.087 C 
ATOM      4  O   UNL     1       4.438   2.150   1.455  1.00  0.00    -0.300 OA
ENDBRANCH   1   2
BRANCH   1   5
ATOM      5  C   UNL     1       7.223   1.066  -0.281  1.00  0.00     0.043 C 
BRANCH   5   6
ATOM      6  C   UNL     1       7.632  -0.216  -0.881  1.00  0.00    -0.044 A 
ATOM      7  C   UNL     1       7.774  -0.366  -2.265  1.00  0.00     0.008 A 
ATOM      8  C   UNL     1       7.886  -1.299  -0.069  1.00  0.00     0.054 A 
ATOM      9  C   UNL     1       8.162  -1.593  -2.771  1.00  0.00     0.051 A 
ATOM     10  C   UNL     1       8.278  -2.537  -0.585  1.00  0.00     0.166 A 
ATOM     11  C   UNL     1       8.417  -2.686  -1.947  1.00  0.00     0.165 A 
ATOM     12  O   UNL     1       8.583  -3.746   0.003  1.00  0.00    -0.454 OA
ATOM     13  O   UNL     1       8.810  -3.996  -2.170  1.00  0.00    -0.454 OA
ATOM     14  C   UNL     1       9.015  -4.678  -0.955  1.00  0.00     0.468 C 
ENDBRANCH   5   6
ENDBRANCH   1   5
TORSDOF 3
ENDMDL
MODEL 3
REMARK VINA RESULT:      -7.1      2.088      2.602
REMARK SMILES CC(=O)CCc1ccc2c(c1)OCO2
REMARK SMILES IDX 4 1 2 2 1 3 3 4 5 5 6 6 7 7 11 8 8 9 10 10 9 11 12 12 14 13
REMARK SMILES IDX 13 14
REMARK H PARENT
REMARK Flexibility Score: inf
ROOT
ATOM      1  C   UNL     1       5.689   0.081   1.915  1.00  0.00     0.080 C 
ENDROOT
BRANCH   1   2
ATOM      2  C   UNL     1       4.737   1.179   1.588  1.00  0.00     0.130 C 
ATOM      3  C   UNL     1       4.988   2.121   0.464  1.00  0.00     0.087 C 
ATOM      4  O   UNL     1       3.717   1.339   2.238  1.00  0.00    -0.300 OA
ENDBRANCH   1   2
BRANCH   1   5
ATOM      5  C   UNL     1       7.064   0.355   1.339  1.00  0.00     0.043 C 
BRANCH   5   6
ATOM      6  C   UNL     1       7.446  -0.653   0.334  1.00  0.00    -0.044 A 
ATOM      7  C   UNL     1       7.353  -0.392  -1.038  1.00  0.00     0.008 A 
ATOM      8  C   UNL     1       7.909  -1.883   0.743  1.00  0.00     0.054 A 
ATOM      9  C   UNL     1       7.727  -1.375  -1.935  1.00  0.00     0.051 A 
ATOM     10  C   UNL     1       8.286  -2.874  -0.168  1.00  0.00     0.166 A 
ATOM     11  C   UNL     1       8.194  -2.618  -1.518  1.00  0.00     0.165 A 
ATOM     12  O   UNL     1       8.769  -4.156  -0.016  1.00  0.00    -0.454 OA
ATOM     13  O   UNL     1       8.627  -3.760  -2.173  1.00  0.00    -0.454 OA
ATOM     14  C   UNL     1       9.087  -4.727  -1.259  1.00  0.00     0.468 C 
ENDBRANCH   5   6
ENDBRANCH   1   5
TORSDOF 3
ENDMDL
MODEL 4
REMARK VINA RESULT:      -7.1      1.231      1.422
REMARK SMILES CC(=O)CCc1ccc2c(c1)OCO2
REMARK SMILES IDX 4 1 2 2 1 3 3 4 5 5 6 6 7 7 11 8 8 9 10 10 9 11 12 12 14 13
REMARK SMILES IDX 13 14
REMARK H PARENT
REMARK Flexibility Score: inf
ROOT
ATOM      1  C   UNL     1       6.377   1.191   0.932  1.00  0.00     0.080 C 
ENDROOT
BRANCH   1   2
ATOM      2  C   UNL     1       5.658   0.370   1.946  1.00  0.00     0.130 C 
ATOM      3  C   UNL     1       6.262  -0.858   2.527  1.00  0.00     0.087 C 
ATOM      4  O   UNL     1       4.543   0.685   2.330  1.00  0.00    -0.300 OA
ENDBRANCH   1   2
BRANCH   1   5
ATOM      5  C   UNL     1       5.864   0.913  -0.467  1.00  0.00     0.043 C 
BRANCH   5   6
ATOM      6  C   UNL     1       6.812   0.096  -1.244  1.00  0.00    -0.044 A 
ATOM      7  C   UNL     1       7.491   0.616  -2.352  1.00  0.00     0.008 A 
ATOM      8  C   UNL     1       7.046  -1.211  -0.880  1.00  0.00     0.054 A 
ATOM      9  C   UNL     1       8.370  -0.198  -3.043  1.00  0.00     0.051 A 
ATOM     10  C   UNL     1       7.936  -2.029  -1.582  1.00  0.00     0.166 A 
ATOM     11  C   UNL     1       8.603  -1.518  -2.673  1.00  0.00     0.165 A 
ATOM     12  O   UNL     1       8.333  -3.340  -1.421  1.00  0.00    -0.454 OA
ATOM     13  O   UNL     1       9.406  -2.536  -3.164  1.00  0.00    -0.454 OA
ATOM     14  C   UNL     1       9.334  -3.680  -2.347  1.00  0.00     0.468 C 
ENDBRANCH   5   6
ENDBRANCH   1   5
TORSDOF 3
ENDMDL
MODEL 5
REMARK VINA RESULT:      -6.8      1.259      1.740
REMARK SMILES CC(=O)CCc1ccc2c(c1)OCO2
REMARK SMILES IDX 4 1 2 2 1 3 3 4 5 5 6 6 7 7 11 8 8 9 10 10 9 11 12 12 14 13
REMARK SMILES IDX 13 14
REMARK H PARENT
REMARK Flexibility Score: inf
ROOT
ATOM      1  C   UNL     1       5.326  -0.065   1.971  1.00  0.00     0.080 C 
ENDROOT
BRANCH   1   2
ATOM      2  C   UNL     1       4.444   1.121   1.787  1.00  0.00     0.130 C 
ATOM      3  C   UNL     1       4.726   2.150   0.750  1.00  0.00     0.087 C 
ATOM      4  O   UNL     1       3.459   1.285   2.488  1.00  0.00    -0.300 OA
ENDBRANCH   1   2
BRANCH   1   5
ATOM      5  C   UNL     1       6.790   0.321   1.904  1.00  0.00     0.043 C 
BRANCH   5   6
ATOM      6  C   UNL     1       7.392  -0.039   0.608  1.00  0.00    -0.044 A 
ATOM      7  C   UNL     1       7.885   0.936  -0.267  1.00  0.00     0.008 A 
ATOM      8  C   UNL     1       7.477  -1.362   0.240  1.00  0.00     0.054 A 
ATOM      9  C   UNL     1       8.439   0.538  -1.470  1.00  0.00     0.051 A 
ATOM     10  C   UNL     1       8.040  -1.759  -0.977  1.00  0.00     0.166 A 
ATOM     11  C   UNL     1       8.524  -0.801  -1.840  1.00  0.00     0.165 A 
ATOM     12  O   UNL     1       8.237  -2.991  -1.564  1.00  0.00    -0.454 OA
ATOM     13  O   UNL     1       9.015  -1.471  -2.949  1.00  0.00    -0.454 OA
ATOM     14  C   UNL     1       8.936  -2.866  -2.776  1.00  0.00     0.468 C 
ENDBRANCH   5   6
ENDBRANCH   1   5
TORSDOF 3
ENDMDL
