MODEL 1
REMARK VINA RESULT:      -7.6      0.000      0.000
REMARK SMILES CC(=O)CCc1ccc2c(c1)OCO2
REMARK SMILES IDX 4 1 2 2 1 3 3 4 5 5 6 6 7 7 11 8 8 9 10 10 9 11 12 12 14 13
REMARK SMILES IDX 13 14
REMARK H PARENT
REMARK Flexibility Score: inf
ROOT
ATOM      1  C   UNL     1       5.540   1.910   1.260  1.00  0.00     0.080 C 
ENDROOT
BRANCH   1   2
ATOM      2  C   UNL     1       5.077   0.705   2.004  1.00  0.00     0.130 C 
ATOM      3  C   UNL     1       5.943  -0.493   2.166  1.00  0.00     0.087 C 
ATOM      4  O   UNL     1       3.964   0.667   2.504  1.00  0.00    -0.300 OA
ENDBRANCH   1   2
BRANCH   1   5
ATOM      5  C   UNL     1       5.409   1.716  -0.238  1.00  0.00     0.043 C 
BRANCH   5   6
ATOM      6  C   UNL     1       6.578   1.018  -0.802  1.00  0.00    -0.044 A 
ATOM      7  C   UNL     1       7.884   1.459  -0.559  1.00  0.00     0.008 A 
ATOM      8  C   UNL     1       6.393  -0.097  -1.587  1.00  0.00     0.054 A 
ATOM      9  C   UNL     1       8.942   0.763  -1.114  1.00  0.00     0.051 A 
ATOM     10  C   UNL     1       7.466  -0.798  -2.146  1.00  0.00     0.166 A 
ATOM     11  C   UNL     1       8.751  -0.363  -1.908  1.00  0.00     0.165 A 
ATOM     12  O   UNL     1       7.542  -1.916  -2.949  1.00  0.00    -0.454 OA
ATOM     13  O   UNL     1       9.598  -1.234  -2.576  1.00  0.00    -0.454 OA
ATOM     14  C   UNL     1       8.878  -2.285  -3.174  1.00  0.00     0.468 C 
ENDBRANCH   5   6
ENDBRANCH   1   5
TORSDOF 3
ENDMDL
MODEL 2
REMARK VINA RESULT:      -7.4      1.916      2.357
REMARK SMILES CC(=O)CCc1ccc2c(c1)OCO2
REMARK SMILES IDX 4 1 2 2 1 3 3 4 5 5 6 6 7 7 11 8 8 9 10 10 9 11 12 12 14 13
REMARK SMILES IDX 13 14
REMARK H PARENT
REMARK Flexibility Score: inf
ROOT
ATOM      1  C   UNL     1       5.717   1.355  -0.282  1.00  0.00     0.080 C 
ENDROOT
BRANCH   1   2
ATOM      2  C   UNL     1       5.068   1.275   1.056  1.00  0.00     0.130 C 
ATOM      3  C   UNL     1       5.397   0.191   2.021  1.00  0.00     0.087 C 
ATOM      4  O   UNL     1       4.240   2.103   1.401  1.00  0.00    -0.300 OA
ENDBRANCH   1   2
BRANCH   1   5
ATOM      5  C   UNL     1       7.210   1.108  -0.184  1.00  0.00     0.043 C 
BRANCH   5   6
ATOM      6  C   UNL     1       7.594  -0.172  -0.808  1.00  0.00    -0.044 A 
ATOM      7  C   UNL     1       7.693  -0.309  -2.197  1.00  0.00     0.008 A 
ATOM      8  C   UNL     1       7.866  -1.263  -0.014  1.00  0.00     0.054 A 
ATOM      9  C   UNL     1       8.058  -1.534  -2.725  1.00  0.00     0.051 A 
ATOM     10  C   UNL     1       8.235  -2.499  -0.553  1.00  0.00     0.166 A 
ATOM     11  C   UNL     1       8.332  -2.635  -1.920  1.00  0.00     0.165 A 
ATOM     12  O   UNL     1       8.551  -3.715   0.014  1.00  0.00    -0.454 OA
ATOM     13  O   UNL     1       8.710  -3.946  -2.166  1.00  0.00    -0.454 OA
ATOM     14  C   UNL     1       8.948  -4.640  -0.965  1.00  0.00     0.468 C 
ENDBRANCH   5   6
ENDBRANCH   1   5
TORSDOF 3
ENDMDL
MODEL 3
REMARK VINA RESULT:      -7.2      2.062      2.623
REMARK SMILES CC(=O)CCc1ccc2c(c1)OCO2
REMARK SMILES IDX 4 1 2 2 1 3 3 4 5 5 6 6 7 7 11 8 8 9 10 10 9 11 12 12 14 13
REMARK SMILES IDX 13 14
REMARK H PARENT
REMARK Flexibility Score: inf
ROOT
ATOM      1  C   UNL     1       5.479  -0.037   1.990  1.00  0.00     0.080 C 
ENDROOT
BRANCH   1   2
ATOM      2  C   UNL     1       4.625   1.156   1.736  1.00  0.00     0.130 C 
ATOM      3  C   UNL     1       4.949   2.135   0.664  1.00  0.00     0.087 C 
ATOM      4  O   UNL     1       3.626   1.366   2.406  1.00  0.00    -0.300 OA
ENDBRANCH   1   2
BRANCH   1   5
ATOM      5  C   UNL     1       6.910   0.207   1.552  1.00  0.00     0.043 C 
BRANCH   5   6
ATOM      6  C   UNL     1       7.325  -0.731   0.494  1.00  0.00    -0.044 A 
ATOM      7  C   UNL     1       7.191  -0.412  -0.862  1.00  0.00     0.008 A 
ATOM      8  C   UNL     1       7.859  -1.952   0.836  1.00  0.00     0.054 A 
ATOM      9  C   UNL     1       7.599  -1.332  -1.811  1.00  0.00     0.051 A 
ATOM     10  C   UNL     1       8.270  -2.879  -0.127  1.00  0.00     0.166 A 
ATOM     11  C   UNL     1       8.138  -2.566  -1.462  1.00  0.00     0.165 A 
ATOM     12  O   UNL     1       8.822  -4.139  -0.044  1.00  0.00    -0.454 OA
ATOM     13  O   UNL     1       8.618  -3.651  -2.178  1.00  0.00    -0.454 OA
ATOM     14  C   UNL     1       9.146  -4.634  -1.318  1.00  0.00     0.468 C 
ENDBRANCH   5   6
ENDBRANCH   1   5
TORSDOF 3
ENDMDL
MODEL 4
REMARK VINA RESULT:      -7.1      1.249      1.455
REMARK SMILES CC(=O)CCc1ccc2c(c1)OCO2
REMARK SMILES IDX 4 1 2 2 1 3 3 4 5 5 6 6 7 7 11 8 8 9 10 10 9 11 12 12 14 13
REMARK SMILES IDX 13 14
REMARK H PARENT
REMARK Flexibility Score: inf
ROOT
ATOM      1  C   UNL     1       6.377   1.191   0.932  1.00  0.00     0.080 C 
ENDROOT
BRANCH   1   2
ATOM      2  C   UNL     1       5.658   0.370   1.946  1.00  0.00     0.130 C 
ATOM      3  C   UNL     1       6.262  -0.858   2.527  1.00  0.00     0.087 C 
ATOM      4  O   UNL     1       4.543   0.685   2.330  1.00  0.00    -0.300 OA
ENDBRANCH   1   2
BRANCH   1   5
ATOM      5  C   UNL     1       5.864   0.913  -0.467  1.00  0.00     0.043 C 
BRANCH   5   6
ATOM      6  C   UNL     1       6.812   0.096  -1.244  1.00  0.00    -0.044 A 
ATOM      7  C   UNL     1       7.491   0.616  -2.352  1.00  0.00     0.008 A 
ATOM      8  C   UNL     1       7.046  -1.211  -0.880  1.00  0.00     0.054 A 
ATOM      9  C   UNL     1       8.370  -0.198  -3.043  1.00  0.00     0.051 A 
ATOM     10  C   UNL     1       7.936  -2.029  -1.582  1.00  0.00     0.166 A 
ATOM     11  C   UNL     1       8.603  -1.518  -2.673  1.00  0.00     0.165 A 
ATOM     12  O   UNL     1       8.333  -3.340  -1.421  1.00  0.00    -0.454 OA
ATOM     13  O   UNL     1       9.406  -2.536  -3.164  1.00  0.00    -0.454 OA
ATOM     14  C   UNL     1       9.334  -3.680  -2.347  1.00  0.00     0.468 C 
ENDBRANCH   5   6
ENDBRANCH   1   5
TORSDOF 3
ENDMDL
MODEL 5
REMARK VINA RESULT:      -6.8      1.193      5.179
REMARK SMILES CC(=O)CCc1ccc2c(c1)OCO2
REMARK SMILES IDX 4 1 2 2 1 3 3 4 5 5 6 6 7 7 11 8 8 9 10 10 9 11 12 12 14 13
REMARK SMILES IDX 13 14
REMARK H PARENT
REMARK Flexibility Score: inf
ROOT
ATOM      1  C   UNL     1       8.317   0.163  -2.721  1.00  0.00     0.080 C 
ENDROOT
BRANCH   1   2
ATOM      2  C   UNL     1       8.065  -1.303  -2.797  1.00  0.00     0.130 C 
ATOM      3  C   UNL     1       9.170  -2.275  -3.014  1.00  0.00     0.087 C 
ATOM      4  O   UNL     1       6.936  -1.752  -2.683  1.00  0.00    -0.300 OA
ENDBRANCH   1   2
BRANCH   1   5
ATOM      5  C   UNL     1       8.855   0.559  -1.360  1.00  0.00     0.043 C 
BRANCH   5   6
ATOM      6  C   UNL     1       7.832   0.426  -0.308  1.00  0.00    -0.044 A 
ATOM      7  C   UNL     1       7.948  -0.525   0.712  1.00  0.00     0.008 A 
ATOM      8  C   UNL     1       6.732   1.254  -0.318  1.00  0.00     0.054 A 
ATOM      9  C   UNL     1       6.957  -0.603   1.673  1.00  0.00     0.051 A 
ATOM     10  C   UNL     1       5.733   1.172   0.656  1.00  0.00     0.166 A 
ATOM     11  C   UNL     1       5.846   0.235   1.660  1.00  0.00     0.165 A 
ATOM     12  O   UNL     1       4.561   1.869   0.862  1.00  0.00    -0.454 OA
ATOM     13  O   UNL     1       4.730   0.379   2.470  1.00  0.00    -0.454 OA
ATOM     14  C   UNL     1       3.935   1.463   2.052  1.00  0.00     0.468 C 
ENDBRANCH   5   6
ENDBRANCH   1   5
TORSDOF 3
ENDMDL
