@<TRIPOS>MOLECULE
/home/cewinharhar/GITHUB/reincatalyze/data/processed/docking_pred/2023-May-24-1506_sub9_nm5_bs15_s42_ex16_mel10_mts10000_k50_ec02_g099_lra3e-4_lrc3e-3/b99eeed02ad73e34178363463c07c25b6fbf2bee_ligand_9.pdbqt
 14 15 0 0 0
SMALL
GASTEIGER

@<TRIPOS>ATOM
      1  C          5.7170    1.3550   -0.2820 C.3     1  UNL1        0.0800
      2  C          5.0680    1.2750    1.0560 C.2     1  UNL1        0.1300
      3  C          5.3970    0.1910    2.0210 C.3     1  UNL1        0.0870
      4  O          4.2400    2.1030    1.4010 O.2     1  UNL1       -0.3000
      5  C          7.2100    1.1080   -0.1840 C.3     1  UNL1        0.0430
      6  C          7.5940   -0.1720   -0.8080 C.2     1  UNL1       -0.0440
      7  C          7.6930   -0.3090   -2.1970 C.2     1  UNL1        0.0080
      8  C          7.8660   -1.2630   -0.0140 C.2     1  UNL1        0.0540
      9  C          8.0580   -1.5340   -2.7250 C.2     1  UNL1        0.0510
     10  C          8.2350   -2.4990   -0.5530 C.2     1  UNL1        0.1660
     11  C          8.3320   -2.6350   -1.9200 C.2     1  UNL1        0.1650
     12  O          8.5510   -3.7150    0.0140 O.2     1  UNL1       -0.4540
     13  O          8.7100   -3.9460   -2.1660 O.2     1  UNL1       -0.4540
     14  C          8.9480   -4.6400   -0.9650 C.3     1  UNL1        0.4680
@<TRIPOS>BOND
     1     9     7    1
     2     9    11    2
     3     7     6    2
     4    13    11    1
     5    13    14    1
     6    11    10    1
     7    14    12    1
     8     6     5    1
     9     6     8    1
    10    10     8    2
    11    10    12    1
    12     1     5    1
    13     1     2    1
    14     2     4    2
    15     2     3    1
