@<TRIPOS>MOLECULE
/home/cewinharhar/GITHUB/reincatalyze/data/processed/docking_pred/2023-May-24-1506_sub9_nm5_bs15_s42_ex16_mel10_mts10000_k50_ec02_g099_lra3e-4_lrc3e-3/b99eeed02ad73e34178363463c07c25b6fbf2bee_ligand_9.pdbqt
 14 15 0 0 0
SMALL
GASTEIGER

@<TRIPOS>ATOM
      1  C          5.5400    1.9100    1.2600 C.3     1  UNL1        0.0800
      2  C          5.0770    0.7050    2.0040 C.2     1  UNL1        0.1300
      3  C          5.9430   -0.4930    2.1660 C.3     1  UNL1        0.0870
      4  O          3.9640    0.6670    2.5040 O.2     1  UNL1       -0.3000
      5  C          5.4090    1.7160   -0.2380 C.3     1  UNL1        0.0430
      6  C          6.5780    1.0180   -0.8020 C.2     1  UNL1       -0.0440
      7  C          7.8840    1.4590   -0.5590 C.2     1  UNL1        0.0080
      8  C          6.3930   -0.0970   -1.5870 C.2     1  UNL1        0.0540
      9  C          8.9420    0.7630   -1.1140 C.2     1  UNL1        0.0510
     10  C          7.4660   -0.7980   -2.1460 C.2     1  UNL1        0.1660
     11  C          8.7510   -0.3630   -1.9080 C.2     1  UNL1        0.1650
     12  O          7.5420   -1.9160   -2.9490 O.2     1  UNL1       -0.4540
     13  O          9.5980   -1.2340   -2.5760 O.2     1  UNL1       -0.4540
     14  C          8.8780   -2.2850   -3.1740 C.3     1  UNL1        0.4680
@<TRIPOS>BOND
     1    14    12    1
     2    14    13    1
     3    12    10    1
     4    13    11    1
     5    10    11    2
     6    10     8    1
     7    11     9    1
     8     8     6    2
     9     9     7    2
    10     6     7    1
    11     6     5    1
    12     5     1    1
    13     1     2    1
    14     2     3    1
    15     2     4    2
