MODEL 1
REMARK VINA RESULT:      -7.6      0.000      0.000
REMARK SMILES CC(=O)CCc1ccc2c(c1)OCO2
REMARK SMILES IDX 4 1 2 2 1 3 3 4 5 5 6 6 7 7 11 8 8 9 10 10 9 11 12 12 14 13
REMARK SMILES IDX 13 14
REMARK H PARENT
REMARK Flexibility Score: inf
ROOT
ATOM      1  C   UNL     1       5.553   1.890   1.291  1.00  0.00     0.080 C 
ENDROOT
BRANCH   1   2
ATOM      2  C   UNL     1       5.109   0.668   2.018  1.00  0.00     0.130 C 
ATOM      3  C   UNL     1       6.001  -0.511   2.181  1.00  0.00     0.087 C 
ATOM      4  O   UNL     1       3.991   0.600   2.504  1.00  0.00    -0.300 OA
ENDBRANCH   1   2
BRANCH   1   5
ATOM      5  C   UNL     1       5.417   1.718  -0.209  1.00  0.00     0.043 C 
BRANCH   5   6
ATOM      6  C   UNL     1       6.580   1.020  -0.786  1.00  0.00    -0.044 A 
ATOM      7  C   UNL     1       7.889   1.457  -0.549  1.00  0.00     0.008 A 
ATOM      8  C   UNL     1       6.387  -0.090  -1.576  1.00  0.00     0.054 A 
ATOM      9  C   UNL     1       8.941   0.762  -1.117  1.00  0.00     0.051 A 
ATOM     10  C   UNL     1       7.454  -0.790  -2.147  1.00  0.00     0.166 A 
ATOM     11  C   UNL     1       8.742  -0.360  -1.915  1.00  0.00     0.165 A 
ATOM     12  O   UNL     1       7.522  -1.904  -2.956  1.00  0.00    -0.454 OA
ATOM     13  O   UNL     1       9.582  -1.229  -2.594  1.00  0.00    -0.454 OA
ATOM     14  C   UNL     1       8.856  -2.275  -3.193  1.00  0.00     0.468 C 
ENDBRANCH   5   6
ENDBRANCH   1   5
TORSDOF 3
ENDMDL
MODEL 2
REMARK VINA RESULT:      -7.5      1.932      2.381
REMARK SMILES CC(=O)CCc1ccc2c(c1)OCO2
REMARK SMILES IDX 4 1 2 2 1 3 3 4 5 5 6 6 7 7 11 8 8 9 10 10 9 11 12 12 14 13
REMARK SMILES IDX 13 14
REMARK H PARENT
REMARK Flexibility Score: inf
ROOT
ATOM      1  C   UNL     1       5.693   1.299  -0.291  1.00  0.00     0.080 C 
ENDROOT
BRANCH   1   2
ATOM      2  C   UNL     1       5.109   1.252   1.079  1.00  0.00     0.130 C 
ATOM      3  C   UNL     1       5.396   0.129   2.011  1.00  0.00     0.087 C 
ATOM      4  O   UNL     1       4.374   2.140   1.478  1.00  0.00    -0.300 OA
ENDBRANCH   1   2
BRANCH   1   5
ATOM      5  C   UNL     1       7.195   1.098  -0.257  1.00  0.00     0.043 C 
BRANCH   5   6
ATOM      6  C   UNL     1       7.588  -0.188  -0.859  1.00  0.00    -0.044 A 
ATOM      7  C   UNL     1       7.702  -0.344  -2.245  1.00  0.00     0.008 A 
ATOM      8  C   UNL     1       7.854  -1.268  -0.048  1.00  0.00     0.054 A 
ATOM      9  C   UNL     1       8.076  -1.575  -2.753  1.00  0.00     0.051 A 
ATOM     10  C   UNL     1       8.232  -2.510  -0.566  1.00  0.00     0.166 A 
ATOM     11  C   UNL     1       8.344  -2.665  -1.930  1.00  0.00     0.165 A 
ATOM     12  O   UNL     1       8.545  -3.718   0.021  1.00  0.00    -0.454 OA
ATOM     13  O   UNL     1       8.728  -3.978  -2.154  1.00  0.00    -0.454 OA
ATOM     14  C   UNL     1       8.954  -4.655  -0.942  1.00  0.00     0.468 C 
ENDBRANCH   5   6
ENDBRANCH   1   5
TORSDOF 3
ENDMDL
MODEL 3
REMARK VINA RESULT:      -7.2      2.058      2.629
REMARK SMILES CC(=O)CCc1ccc2c(c1)OCO2
REMARK SMILES IDX 4 1 2 2 1 3 3 4 5 5 6 6 7 7 11 8 8 9 10 10 9 11 12 12 14 13
REMARK SMILES IDX 13 14
REMARK H PARENT
REMARK Flexibility Score: inf
ROOT
ATOM      1  C   UNL     1       5.416  -0.054   2.029  1.00  0.00     0.080 C 
ENDROOT
BRANCH   1   2
ATOM      2  C   UNL     1       4.566   1.142   1.769  1.00  0.00     0.130 C 
ATOM      3  C   UNL     1       4.907   2.126   0.708  1.00  0.00     0.087 C 
ATOM      4  O   UNL     1       3.558   1.349   2.426  1.00  0.00    -0.300 OA
ENDBRANCH   1   2
BRANCH   1   5
ATOM      5  C   UNL     1       6.854   0.193   1.615  1.00  0.00     0.043 C 
BRANCH   5   6
ATOM      6  C   UNL     1       7.281  -0.730   0.549  1.00  0.00    -0.044 A 
ATOM      7  C   UNL     1       7.158  -0.394  -0.804  1.00  0.00     0.008 A 
ATOM      8  C   UNL     1       7.817  -1.954   0.880  1.00  0.00     0.054 A 
ATOM      9  C   UNL     1       7.576  -1.300  -1.762  1.00  0.00     0.051 A 
ATOM     10  C   UNL     1       8.240  -2.866  -0.092  1.00  0.00     0.166 A 
ATOM     11  C   UNL     1       8.118  -2.537  -1.423  1.00  0.00     0.165 A 
ATOM     12  O   UNL     1       8.796  -4.125  -0.020  1.00  0.00    -0.454 OA
ATOM     13  O   UNL     1       8.608  -3.611  -2.149  1.00  0.00    -0.454 OA
ATOM     14  C   UNL     1       9.132  -4.602  -1.297  1.00  0.00     0.468 C 
ENDBRANCH   5   6
ENDBRANCH   1   5
TORSDOF 3
ENDMDL
MODEL 4
REMARK VINA RESULT:      -7.1      1.248      1.454
REMARK SMILES CC(=O)CCc1ccc2c(c1)OCO2
REMARK SMILES IDX 4 1 2 2 1 3 3 4 5 5 6 6 7 7 11 8 8 9 10 10 9 11 12 12 14 13
REMARK SMILES IDX 13 14
REMARK H PARENT
REMARK Flexibility Score: inf
ROOT
ATOM      1  C   UNL     1       6.391   1.215   0.928  1.00  0.00     0.080 C 
ENDROOT
BRANCH   1   2
ATOM      2  C   UNL     1       5.669   0.376   1.925  1.00  0.00     0.130 C 
ATOM      3  C   UNL     1       6.277  -0.856   2.495  1.00  0.00     0.087 C 
ATOM      4  O   UNL     1       4.549   0.678   2.305  1.00  0.00    -0.300 OA
ENDBRANCH   1   2
BRANCH   1   5
ATOM      5  C   UNL     1       5.888   0.955  -0.478  1.00  0.00     0.043 C 
BRANCH   5   6
ATOM      6  C   UNL     1       6.827   0.121  -1.249  1.00  0.00    -0.044 A 
ATOM      7  C   UNL     1       7.516   0.626  -2.358  1.00  0.00     0.008 A 
ATOM      8  C   UNL     1       7.041  -1.187  -0.877  1.00  0.00     0.054 A 
ATOM      9  C   UNL     1       8.385  -0.203  -3.042  1.00  0.00     0.051 A 
ATOM     10  C   UNL     1       7.922  -2.021  -1.572  1.00  0.00     0.166 A 
ATOM     11  C   UNL     1       8.600  -1.525  -2.664  1.00  0.00     0.165 A 
ATOM     12  O   UNL     1       8.301  -3.336  -1.404  1.00  0.00    -0.454 OA
ATOM     13  O   UNL     1       9.389  -2.556  -3.148  1.00  0.00    -0.454 OA
ATOM     14  C   UNL     1       9.300  -3.694  -2.324  1.00  0.00     0.468 C 
ENDBRANCH   5   6
ENDBRANCH   1   5
TORSDOF 3
ENDMDL
MODEL 5
REMARK VINA RESULT:      -6.8      1.277      1.764
REMARK SMILES CC(=O)CCc1ccc2c(c1)OCO2
REMARK SMILES IDX 4 1 2 2 1 3 3 4 5 5 6 6 7 7 11 8 8 9 10 10 9 11 12 12 14 13
REMARK SMILES IDX 13 14
REMARK H PARENT
REMARK Flexibility Score: inf
ROOT
ATOM      1  C   UNL     1       5.320  -0.075   1.984  1.00  0.00     0.080 C 
ENDROOT
BRANCH   1   2
ATOM      2  C   UNL     1       4.457   1.126   1.802  1.00  0.00     0.130 C 
ATOM      3  C   UNL     1       4.754   2.150   0.764  1.00  0.00     0.087 C 
ATOM      4  O   UNL     1       3.475   1.305   2.504  1.00  0.00    -0.300 OA
ENDBRANCH   1   2
BRANCH   1   5
ATOM      5  C   UNL     1       6.790   0.290   1.925  1.00  0.00     0.043 C 
BRANCH   5   6
ATOM      6  C   UNL     1       7.388  -0.061   0.624  1.00  0.00    -0.044 A 
ATOM      7  C   UNL     1       7.859   0.921  -0.254  1.00  0.00     0.008 A 
ATOM      8  C   UNL     1       7.492  -1.383   0.256  1.00  0.00     0.054 A 
ATOM      9  C   UNL     1       8.411   0.533  -1.461  1.00  0.00     0.051 A 
ATOM     10  C   UNL     1       8.052  -1.770  -0.966  1.00  0.00     0.166 A 
ATOM     11  C   UNL     1       8.515  -0.805  -1.831  1.00  0.00     0.165 A 
ATOM     12  O   UNL     1       8.265  -2.999  -1.554  1.00  0.00    -0.454 OA
ATOM     13  O   UNL     1       9.008  -1.467  -2.944  1.00  0.00    -0.454 OA
ATOM     14  C   UNL     1       8.952  -2.863  -2.771  1.00  0.00     0.468 C 
ENDBRANCH   5   6
ENDBRANCH   1   5
TORSDOF 3
ENDMDL
