@<TRIPOS>MOLECULE
/home/cewinharhar/GITHUB/reincatalyze/data/processed/docking_pred/2023-May-24-1506_sub9_nm5_bs15_s42_ex16_mel10_mts10000_k50_ec02_g099_lra3e-4_lrc3e-3/b9a0748b4c4cb53be71f33acfe76cbadf25e0c0f_ligand_9.pdbqt
 14 15 0 0 0
SMALL
GASTEIGER

@<TRIPOS>ATOM
      1  C          5.3200   -0.0750    1.9840 C.3     1  UNL1        0.0800
      2  C          4.4570    1.1260    1.8020 C.2     1  UNL1        0.1300
      3  C          4.7540    2.1500    0.7640 C.3     1  UNL1        0.0870
      4  O          3.4750    1.3050    2.5040 O.2     1  UNL1       -0.3000
      5  C          6.7900    0.2900    1.9250 C.3     1  UNL1        0.0430
      6  C          7.3880   -0.0610    0.6240 C.2     1  UNL1       -0.0440
      7  C          7.8590    0.9210   -0.2540 C.2     1  UNL1        0.0080
      8  C          7.4920   -1.3830    0.2560 C.2     1  UNL1        0.0540
      9  C          8.4110    0.5330   -1.4610 C.2     1  UNL1        0.0510
     10  C          8.0520   -1.7700   -0.9660 C.2     1  UNL1        0.1660
     11  C          8.5150   -0.8050   -1.8310 C.2     1  UNL1        0.1650
     12  O          8.2650   -2.9990   -1.5540 O.2     1  UNL1       -0.4540
     13  O          9.0080   -1.4670   -2.9440 O.2     1  UNL1       -0.4540
     14  C          8.9520   -2.8630   -2.7710 C.3     1  UNL1        0.4680
@<TRIPOS>BOND
     1    13    14    1
     2    13    11    1
     3    14    12    1
     4    11     9    2
     5    11    10    1
     6    12    10    1
     7     9     7    1
     8    10     8    2
     9     7     6    2
    10     8     6    1
    11     6     5    1
    12     3     2    1
    13     2     1    1
    14     2     4    2
    15     5     1    1
