@<TRIPOS>MOLECULE
/home/cewinharhar/GITHUB/reincatalyze/data/processed/docking_pred/2023-May-24-1506_sub9_nm5_bs15_s42_ex16_mel10_mts10000_k50_ec02_g099_lra3e-4_lrc3e-3/b9a0748b4c4cb53be71f33acfe76cbadf25e0c0f_ligand_9.pdbqt
 14 15 0 0 0
SMALL
GASTEIGER

@<TRIPOS>ATOM
      1  C          5.6930    1.2990   -0.2910 C.3     1  UNL1        0.0800
      2  C          5.1090    1.2520    1.0790 C.2     1  UNL1        0.1300
      3  C          5.3960    0.1290    2.0110 C.3     1  UNL1        0.0870
      4  O          4.3740    2.1400    1.4780 O.2     1  UNL1       -0.3000
      5  C          7.1950    1.0980   -0.2570 C.3     1  UNL1        0.0430
      6  C          7.5880   -0.1880   -0.8590 C.2     1  UNL1       -0.0440
      7  C          7.7020   -0.3440   -2.2450 C.2     1  UNL1        0.0080
      8  C          7.8540   -1.2680   -0.0480 C.2     1  UNL1        0.0540
      9  C          8.0760   -1.5750   -2.7530 C.2     1  UNL1        0.0510
     10  C          8.2320   -2.5100   -0.5660 C.2     1  UNL1        0.1660
     11  C          8.3440   -2.6650   -1.9300 C.2     1  UNL1        0.1650
     12  O          8.5450   -3.7180    0.0210 O.2     1  UNL1       -0.4540
     13  O          8.7280   -3.9780   -2.1540 O.2     1  UNL1       -0.4540
     14  C          8.9540   -4.6550   -0.9420 C.3     1  UNL1        0.4680
@<TRIPOS>BOND
     1     9     7    1
     2     9    11    2
     3     7     6    2
     4    13    11    1
     5    13    14    1
     6    11    10    1
     7    14    12    1
     8     6     5    1
     9     6     8    1
    10    10     8    2
    11    10    12    1
    12     1     5    1
    13     1     2    1
    14     2     4    2
    15     2     3    1
