@<TRIPOS>MOLECULE
/home/cewinharhar/GITHUB/reincatalyze/data/processed/docking_pred/2023-May-24-1506_sub9_nm5_bs15_s42_ex16_mel10_mts10000_k50_ec02_g099_lra3e-4_lrc3e-3/b9a0748b4c4cb53be71f33acfe76cbadf25e0c0f_ligand_9.pdbqt
 14 15 0 0 0
SMALL
GASTEIGER

@<TRIPOS>ATOM
      1  C          6.3910    1.2150    0.9280 C.3     1  UNL1        0.0800
      2  C          5.6690    0.3760    1.9250 C.2     1  UNL1        0.1300
      3  C          6.2770   -0.8560    2.4950 C.3     1  UNL1        0.0870
      4  O          4.5490    0.6780    2.3050 O.2     1  UNL1       -0.3000
      5  C          5.8880    0.9550   -0.4780 C.3     1  UNL1        0.0430
      6  C          6.8270    0.1210   -1.2490 C.2     1  UNL1       -0.0440
      7  C          7.5160    0.6260   -2.3580 C.2     1  UNL1        0.0080
      8  C          7.0410   -1.1870   -0.8770 C.2     1  UNL1        0.0540
      9  C          8.3850   -0.2030   -3.0420 C.2     1  UNL1        0.0510
     10  C          7.9220   -2.0210   -1.5720 C.2     1  UNL1        0.1660
     11  C          8.6000   -1.5250   -2.6640 C.2     1  UNL1        0.1650
     12  O          8.3010   -3.3360   -1.4040 O.2     1  UNL1       -0.4540
     13  O          9.3890   -2.5560   -3.1480 O.2     1  UNL1       -0.4540
     14  C          9.3000   -3.6940   -2.3240 C.3     1  UNL1        0.4680
@<TRIPOS>BOND
     1    13    11    1
     2    13    14    1
     3     9    11    2
     4     9     7    1
     5    11    10    1
     6     7     6    2
     7    14    12    1
     8    10    12    1
     9    10     8    2
    10     6     8    1
    11     6     5    1
    12     5     1    1
    13     1     2    1
    14     2     4    2
    15     2     3    1
