@<TRIPOS>MOLECULE
/home/cewinharhar/GITHUB/reincatalyze/data/processed/docking_pred/2023-May-24-1506_sub9_nm5_bs15_s42_ex16_mel10_mts10000_k50_ec02_g099_lra3e-4_lrc3e-3/ba254a63d1f23417312e0ffefa4719b754a9a4bf_ligand_9.pdbqt
 14 15 0 0 0
SMALL
GASTEIGER

@<TRIPOS>ATOM
      1  C          5.4320   -0.0440    2.0030 C.3     1  UNL1        0.0800
      2  C          4.5790    1.1520    1.7560 C.2     1  UNL1        0.1300
      3  C          4.9020    2.1340    0.6870 C.3     1  UNL1        0.0870
      4  O          3.5840    1.3610    2.4310 O.2     1  UNL1       -0.3000
      5  C          6.8660    0.2060    1.5780 C.3     1  UNL1        0.0430
      6  C          7.2910   -0.7220    0.5150 C.2     1  UNL1       -0.0440
      7  C          7.1650   -0.3910   -0.8400 C.2     1  UNL1        0.0080
      8  C          7.8270   -1.9440    0.8490 C.2     1  UNL1        0.0540
      9  C          7.5810   -1.3010   -1.7940 C.2     1  UNL1        0.0510
     10  C          8.2470   -2.8600   -0.1200 C.2     1  UNL1        0.1660
     11  C          8.1220   -2.5360   -1.4520 C.2     1  UNL1        0.1650
     12  O          8.8030   -4.1200   -0.0440 O.2     1  UNL1       -0.4540
     13  O          8.6100   -3.6140   -2.1740 O.2     1  UNL1       -0.4540
     14  C          9.1350   -4.6020   -1.3200 C.3     1  UNL1        0.4680
@<TRIPOS>BOND
     1    13    11    1
     2    13    14    1
     3     9    11    2
     4     9     7    1
     5    11    10    1
     6    14    12    1
     7     7     6    2
     8    10    12    1
     9    10     8    2
    10     6     8    1
    11     6     5    1
    12     3     2    1
    13     5     1    1
    14     2     1    1
    15     2     4    2
