MODEL 1
REMARK VINA RESULT:      -7.6      0.000      0.000
REMARK SMILES CC(=O)CCc1ccc2c(c1)OCO2
REMARK SMILES IDX 4 1 2 2 1 3 3 4 5 5 6 6 7 7 11 8 8 9 10 10 9 11 12 12 14 13
REMARK SMILES IDX 13 14
REMARK H PARENT
REMARK Flexibility Score: inf
ROOT
ATOM      1  C   UNL     1       5.542   1.902   1.282  1.00  0.00     0.080 C 
ENDROOT
BRANCH   1   2
ATOM      2  C   UNL     1       5.107   0.680   2.014  1.00  0.00     0.130 C 
ATOM      3  C   UNL     1       6.008  -0.491   2.184  1.00  0.00     0.087 C 
ATOM      4  O   UNL     1       3.989   0.605   2.498  1.00  0.00    -0.300 OA
ENDBRANCH   1   2
BRANCH   1   5
ATOM      5  C   UNL     1       5.412   1.720  -0.218  1.00  0.00     0.043 C 
BRANCH   5   6
ATOM      6  C   UNL     1       6.576   1.016  -0.786  1.00  0.00    -0.044 A 
ATOM      7  C   UNL     1       7.885   1.445  -0.538  1.00  0.00     0.008 A 
ATOM      8  C   UNL     1       6.382  -0.092  -1.578  1.00  0.00     0.054 A 
ATOM      9  C   UNL     1       8.938   0.744  -1.098  1.00  0.00     0.051 A 
ATOM     10  C   UNL     1       7.450  -0.798  -2.141  1.00  0.00     0.166 A 
ATOM     11  C   UNL     1       8.738  -0.376  -1.899  1.00  0.00     0.165 A 
ATOM     12  O   UNL     1       7.517  -1.912  -2.951  1.00  0.00    -0.454 OA
ATOM     13  O   UNL     1       9.579  -1.250  -2.571  1.00  0.00    -0.454 OA
ATOM     14  C   UNL     1       8.850  -2.291  -3.177  1.00  0.00     0.468 C 
ENDBRANCH   5   6
ENDBRANCH   1   5
TORSDOF 3
ENDMDL
MODEL 2
REMARK VINA RESULT:      -7.5      1.919      2.375
REMARK SMILES CC(=O)CCc1ccc2c(c1)OCO2
REMARK SMILES IDX 4 1 2 2 1 3 3 4 5 5 6 6 7 7 11 8 8 9 10 10 9 11 12 12 14 13
REMARK SMILES IDX 13 14
REMARK H PARENT
REMARK Flexibility Score: inf
ROOT
ATOM      1  C   UNL     1       5.739   1.343  -0.310  1.00  0.00     0.080 C 
ENDROOT
BRANCH   1   2
ATOM      2  C   UNL     1       5.128   1.264   1.047  1.00  0.00     0.130 C 
ATOM      3  C   UNL     1       5.383   0.112   1.952  1.00  0.00     0.087 C 
ATOM      4  O   UNL     1       4.395   2.150   1.456  1.00  0.00    -0.300 OA
ENDBRANCH   1   2
BRANCH   1   5
ATOM      5  C   UNL     1       7.236   1.110  -0.253  1.00  0.00     0.043 C 
BRANCH   5   6
ATOM      6  C   UNL     1       7.612  -0.178  -0.863  1.00  0.00    -0.044 A 
ATOM      7  C   UNL     1       7.696  -0.335  -2.251  1.00  0.00     0.008 A 
ATOM      8  C   UNL     1       7.891  -1.258  -0.057  1.00  0.00     0.054 A 
ATOM      9  C   UNL     1       8.055  -1.568  -2.766  1.00  0.00     0.051 A 
ATOM     10  C   UNL     1       8.253  -2.502  -0.582  1.00  0.00     0.166 A 
ATOM     11  C   UNL     1       8.336  -2.658  -1.948  1.00  0.00     0.165 A 
ATOM     12  O   UNL     1       8.574  -3.711  -0.001  1.00  0.00    -0.454 OA
ATOM     13  O   UNL     1       8.710  -3.973  -2.180  1.00  0.00    -0.454 OA
ATOM     14  C   UNL     1       8.959  -4.650  -0.972  1.00  0.00     0.468 C 
ENDBRANCH   5   6
ENDBRANCH   1   5
TORSDOF 3
ENDMDL
MODEL 3
REMARK VINA RESULT:      -7.2      2.064      2.619
REMARK SMILES CC(=O)CCc1ccc2c(c1)OCO2
REMARK SMILES IDX 4 1 2 2 1 3 3 4 5 5 6 6 7 7 11 8 8 9 10 10 9 11 12 12 14 13
REMARK SMILES IDX 13 14
REMARK H PARENT
REMARK Flexibility Score: inf
ROOT
ATOM      1  C   UNL     1       5.480  -0.021   1.999  1.00  0.00     0.080 C 
ENDROOT
BRANCH   1   2
ATOM      2  C   UNL     1       4.605   1.158   1.748  1.00  0.00     0.130 C 
ATOM      3  C   UNL     1       4.906   2.138   0.670  1.00  0.00     0.087 C 
ATOM      4  O   UNL     1       3.610   1.355   2.426  1.00  0.00    -0.300 OA
ENDBRANCH   1   2
BRANCH   1   5
ATOM      5  C   UNL     1       6.900   0.239   1.536  1.00  0.00     0.043 C 
BRANCH   5   6
ATOM      6  C   UNL     1       7.316  -0.709   0.487  1.00  0.00    -0.044 A 
ATOM      7  C   UNL     1       7.183  -0.402  -0.872  1.00  0.00     0.008 A 
ATOM      8  C   UNL     1       7.850  -1.927   0.841  1.00  0.00     0.054 A 
ATOM      9  C   UNL     1       7.590  -1.331  -1.813  1.00  0.00     0.051 A 
ATOM     10  C   UNL     1       8.262  -2.862  -0.114  1.00  0.00     0.166 A 
ATOM     11  C   UNL     1       8.130  -2.561  -1.452  1.00  0.00     0.165 A 
ATOM     12  O   UNL     1       8.814  -4.121  -0.018  1.00  0.00    -0.454 OA
ATOM     13  O   UNL     1       8.610  -3.653  -2.157  1.00  0.00    -0.454 OA
ATOM     14  C   UNL     1       9.138  -4.628  -1.288  1.00  0.00     0.468 C 
ENDBRANCH   5   6
ENDBRANCH   1   5
TORSDOF 3
ENDMDL
MODEL 4
REMARK VINA RESULT:      -7.1      1.244      1.441
REMARK SMILES CC(=O)CCc1ccc2c(c1)OCO2
REMARK SMILES IDX 4 1 2 2 1 3 3 4 5 5 6 6 7 7 11 8 8 9 10 10 9 11 12 12 14 13
REMARK SMILES IDX 13 14
REMARK H PARENT
REMARK Flexibility Score: inf
ROOT
ATOM      1  C   UNL     1       6.386   1.203   0.961  1.00  0.00     0.080 C 
ENDROOT
BRANCH   1   2
ATOM      2  C   UNL     1       5.658   0.354   1.945  1.00  0.00     0.130 C 
ATOM      3  C   UNL     1       6.269  -0.875   2.518  1.00  0.00     0.087 C 
ATOM      4  O   UNL     1       4.531   0.645   2.312  1.00  0.00    -0.300 OA
ENDBRANCH   1   2
BRANCH   1   5
ATOM      5  C   UNL     1       5.885   0.963  -0.450  1.00  0.00     0.043 C 
BRANCH   5   6
ATOM      6  C   UNL     1       6.820   0.132  -1.228  1.00  0.00    -0.044 A 
ATOM      7  C   UNL     1       7.504   0.642  -2.338  1.00  0.00     0.008 A 
ATOM      8  C   UNL     1       7.037  -1.177  -0.863  1.00  0.00     0.054 A 
ATOM      9  C   UNL     1       8.371  -0.184  -3.030  1.00  0.00     0.051 A 
ATOM     10  C   UNL     1       7.914  -2.008  -1.565  1.00  0.00     0.166 A 
ATOM     11  C   UNL     1       8.587  -1.508  -2.658  1.00  0.00     0.165 A 
ATOM     12  O   UNL     1       8.294  -3.324  -1.404  1.00  0.00    -0.454 OA
ATOM     13  O   UNL     1       9.374  -2.537  -3.150  1.00  0.00    -0.454 OA
ATOM     14  C   UNL     1       9.288  -3.679  -2.331  1.00  0.00     0.468 C 
ENDBRANCH   5   6
ENDBRANCH   1   5
TORSDOF 3
ENDMDL
MODEL 5
REMARK VINA RESULT:      -6.8      1.184      5.167
REMARK SMILES CC(=O)CCc1ccc2c(c1)OCO2
REMARK SMILES IDX 4 1 2 2 1 3 3 4 5 5 6 6 7 7 11 8 8 9 10 10 9 11 12 12 14 13
REMARK SMILES IDX 13 14
REMARK H PARENT
REMARK Flexibility Score: inf
ROOT
ATOM      1  C   UNL     1       8.342   0.198  -2.651  1.00  0.00     0.080 C 
ENDROOT
BRANCH   1   2
ATOM      2  C   UNL     1       8.052  -1.260  -2.750  1.00  0.00     0.130 C 
ATOM      3  C   UNL     1       9.121  -2.251  -3.042  1.00  0.00     0.087 C 
ATOM      4  O   UNL     1       6.918  -1.685  -2.593  1.00  0.00    -0.300 OA
ENDBRANCH   1   2
BRANCH   1   5
ATOM      5  C   UNL     1       8.867   0.563  -1.277  1.00  0.00     0.043 C 
BRANCH   5   6
ATOM      6  C   UNL     1       7.829   0.420  -0.240  1.00  0.00    -0.044 A 
ATOM      7  C   UNL     1       7.930  -0.544   0.770  1.00  0.00     0.008 A 
ATOM      8  C   UNL     1       6.731   1.249  -0.255  1.00  0.00     0.054 A 
ATOM      9  C   UNL     1       6.926  -0.631   1.717  1.00  0.00     0.051 A 
ATOM     10  C   UNL     1       5.718   1.157   0.705  1.00  0.00     0.166 A 
ATOM     11  C   UNL     1       5.817   0.209   1.699  1.00  0.00     0.165 A 
ATOM     12  O   UNL     1       4.545   1.854   0.903  1.00  0.00    -0.454 OA
ATOM     13  O   UNL     1       4.690   0.345   2.495  1.00  0.00    -0.454 OA
ATOM     14  C   UNL     1       3.903   1.436   2.080  1.00  0.00     0.468 C 
ENDBRANCH   5   6
ENDBRANCH   1   5
TORSDOF 3
ENDMDL
