@<TRIPOS>MOLECULE
/home/cewinharhar/GITHUB/reincatalyze/data/processed/docking_pred/2023-May-24-1506_sub9_nm5_bs15_s42_ex16_mel10_mts10000_k50_ec02_g099_lra3e-4_lrc3e-3/bae690ffab80532c90b6f683492bf7de3cce581e_ligand_9.pdbqt
 14 15 0 0 0
SMALL
GASTEIGER

@<TRIPOS>ATOM
      1  C          5.7390    1.3430   -0.3100 C.3     1  UNL1        0.0800
      2  C          5.1280    1.2640    1.0470 C.2     1  UNL1        0.1300
      3  C          5.3830    0.1120    1.9520 C.3     1  UNL1        0.0870
      4  O          4.3950    2.1500    1.4560 O.2     1  UNL1       -0.3000
      5  C          7.2360    1.1100   -0.2530 C.3     1  UNL1        0.0430
      6  C          7.6120   -0.1780   -0.8630 C.2     1  UNL1       -0.0440
      7  C          7.6960   -0.3350   -2.2510 C.2     1  UNL1        0.0080
      8  C          7.8910   -1.2580   -0.0570 C.2     1  UNL1        0.0540
      9  C          8.0550   -1.5680   -2.7660 C.2     1  UNL1        0.0510
     10  C          8.2530   -2.5020   -0.5820 C.2     1  UNL1        0.1660
     11  C          8.3360   -2.6580   -1.9480 C.2     1  UNL1        0.1650
     12  O          8.5740   -3.7110   -0.0010 O.2     1  UNL1       -0.4540
     13  O          8.7100   -3.9730   -2.1800 O.2     1  UNL1       -0.4540
     14  C          8.9590   -4.6500   -0.9720 C.3     1  UNL1        0.4680
@<TRIPOS>BOND
     1     9     7    1
     2     9    11    2
     3     7     6    2
     4    13    11    1
     5    13    14    1
     6    11    10    1
     7    14    12    1
     8     6     5    1
     9     6     8    1
    10    10     8    2
    11    10    12    1
    12     1     5    1
    13     1     2    1
    14     2     4    2
    15     2     3    1
