@<TRIPOS>MOLECULE
/home/cewinharhar/GITHUB/reincatalyze/data/processed/docking_pred/2023-May-24-1506_sub9_nm5_bs15_s42_ex16_mel10_mts10000_k50_ec02_g099_lra3e-4_lrc3e-3/bae690ffab80532c90b6f683492bf7de3cce581e_ligand_9.pdbqt
 14 15 0 0 0
SMALL
GASTEIGER

@<TRIPOS>ATOM
      1  C          5.4800   -0.0210    1.9990 C.3     1  UNL1        0.0800
      2  C          4.6050    1.1580    1.7480 C.2     1  UNL1        0.1300
      3  C          4.9060    2.1380    0.6700 C.3     1  UNL1        0.0870
      4  O          3.6100    1.3550    2.4260 O.2     1  UNL1       -0.3000
      5  C          6.9000    0.2390    1.5360 C.3     1  UNL1        0.0430
      6  C          7.3160   -0.7090    0.4870 C.2     1  UNL1       -0.0440
      7  C          7.1830   -0.4020   -0.8720 C.2     1  UNL1        0.0080
      8  C          7.8500   -1.9270    0.8410 C.2     1  UNL1        0.0540
      9  C          7.5900   -1.3310   -1.8130 C.2     1  UNL1        0.0510
     10  C          8.2620   -2.8620   -0.1140 C.2     1  UNL1        0.1660
     11  C          8.1300   -2.5610   -1.4520 C.2     1  UNL1        0.1650
     12  O          8.8140   -4.1210   -0.0180 O.2     1  UNL1       -0.4540
     13  O          8.6100   -3.6530   -2.1570 O.2     1  UNL1       -0.4540
     14  C          9.1380   -4.6280   -1.2880 C.3     1  UNL1        0.4680
@<TRIPOS>BOND
     1    13    11    1
     2    13    14    1
     3     9    11    2
     4     9     7    1
     5    11    10    1
     6    14    12    1
     7     7     6    2
     8    10    12    1
     9    10     8    2
    10     6     8    1
    11     6     5    1
    12     3     2    1
    13     5     1    1
    14     2     1    1
    15     2     4    2
