@<TRIPOS>MOLECULE
/home/cewinharhar/GITHUB/reincatalyze/data/processed/docking_pred/2023-May-24-1506_sub9_nm5_bs15_s42_ex16_mel10_mts10000_k50_ec02_g099_lra3e-4_lrc3e-3/bae690ffab80532c90b6f683492bf7de3cce581e_ligand_9.pdbqt
 14 15 0 0 0
SMALL
GASTEIGER

@<TRIPOS>ATOM
      1  C          8.3420    0.1980   -2.6510 C.3     1  UNL1        0.0800
      2  C          8.0520   -1.2600   -2.7500 C.2     1  UNL1        0.1300
      3  C          9.1210   -2.2510   -3.0420 C.3     1  UNL1        0.0870
      4  O          6.9180   -1.6850   -2.5930 O.2     1  UNL1       -0.3000
      5  C          8.8670    0.5630   -1.2770 C.3     1  UNL1        0.0430
      6  C          7.8290    0.4200   -0.2400 C.2     1  UNL1       -0.0440
      7  C          7.9300   -0.5440    0.7700 C.2     1  UNL1        0.0080
      8  C          6.7310    1.2490   -0.2550 C.2     1  UNL1        0.0540
      9  C          6.9260   -0.6310    1.7170 C.2     1  UNL1        0.0510
     10  C          5.7180    1.1570    0.7050 C.2     1  UNL1        0.1660
     11  C          5.8170    0.2090    1.6990 C.2     1  UNL1        0.1650
     12  O          4.5450    1.8540    0.9030 O.2     1  UNL1       -0.4540
     13  O          4.6900    0.3450    2.4950 O.2     1  UNL1       -0.4540
     14  C          3.9030    1.4360    2.0800 C.3     1  UNL1        0.4680
@<TRIPOS>BOND
     1     3     2    1
     2     2     1    1
     3     2     4    2
     4     1     5    1
     5     5     6    1
     6     8     6    2
     7     8    10    1
     8     6     7    1
     9    10    12    1
    10    10    11    2
    11     7     9    2
    12    12    14    1
    13    11     9    1
    14    11    13    1
    15    14    13    1
