@<TRIPOS>MOLECULE
/home/cewinharhar/GITHUB/reincatalyze/data/processed/docking_pred/2023-May-24-1506_sub9_nm5_bs15_s42_ex16_mel10_mts10000_k50_ec02_g099_lra3e-4_lrc3e-3/bb509c9d750c31c787a0dfaad7ceec12964b61ea_ligand_9.pdbqt
 14 15 0 0 0
SMALL
GASTEIGER

@<TRIPOS>ATOM
      1  C          5.5160    1.9140    1.2640 C.3     1  UNL1        0.0800
      2  C          5.0740    0.6970    2.0010 C.2     1  UNL1        0.1300
      3  C          5.9630   -0.4850    2.1620 C.3     1  UNL1        0.0870
      4  O          3.9610    0.6340    2.4970 O.2     1  UNL1       -0.3000
      5  C          5.3920    1.7250   -0.2340 C.3     1  UNL1        0.0430
      6  C          6.5600    1.0220   -0.7950 C.2     1  UNL1       -0.0440
      7  C          7.8670    1.4580   -0.5460 C.2     1  UNL1        0.0080
      8  C          6.3740   -0.0920   -1.5820 C.2     1  UNL1        0.0540
      9  C          8.9240    0.7580   -1.0980 C.2     1  UNL1        0.0510
     10  C          7.4460   -0.7960   -2.1370 C.2     1  UNL1        0.1660
     11  C          8.7320   -0.3670   -1.8930 C.2     1  UNL1        0.1650
     12  O          7.5210   -1.9140   -2.9400 O.2     1  UNL1       -0.4540
     13  O          9.5790   -1.2400   -2.5580 O.2     1  UNL1       -0.4540
     14  C          8.8570   -2.2880   -3.1600 C.3     1  UNL1        0.4680
@<TRIPOS>BOND
     1    14    12    1
     2    14    13    1
     3    12    10    1
     4    13    11    1
     5    10    11    2
     6    10     8    1
     7    11     9    1
     8     8     6    2
     9     9     7    2
    10     6     7    1
    11     6     5    1
    12     5     1    1
    13     1     2    1
    14     2     3    1
    15     2     4    2
