@<TRIPOS>MOLECULE
/home/cewinharhar/GITHUB/reincatalyze/data/processed/docking_pred/2023-May-24-1506_sub9_nm5_bs15_s42_ex16_mel10_mts10000_k50_ec02_g099_lra3e-4_lrc3e-3/bb8285001221c2ec88d34c7e342a921234d5c761_ligand_9.pdbqt
 14 15 0 0 0
SMALL
GASTEIGER

@<TRIPOS>ATOM
      1  C          6.3920    1.1920    0.9490 C.3     1  UNL1        0.0800
      2  C          5.6550    0.3760    1.9530 C.2     1  UNL1        0.1300
      3  C          6.2470   -0.8520    2.5480 C.3     1  UNL1        0.0870
      4  O          4.5350    0.6940    2.3190 O.2     1  UNL1       -0.3000
      5  C          5.8830    0.9290   -0.4550 C.3     1  UNL1        0.0430
      6  C          6.8220    0.0990   -1.2300 C.2     1  UNL1       -0.0440
      7  C          7.4940    0.6030   -2.3500 C.2     1  UNL1        0.0080
      8  C          7.0540   -1.2040   -0.8510 C.2     1  UNL1        0.0540
      9  C          8.3650   -0.2220   -3.0380 C.2     1  UNL1        0.0510
     10  C          7.9360   -2.0340   -1.5500 C.2     1  UNL1        0.1660
     11  C          8.5960   -1.5390   -2.6520 C.2     1  UNL1        0.1650
     12  O          8.3300   -3.3440   -1.3770 O.2     1  UNL1       -0.4540
     13  O          9.3910   -2.5650   -3.1380 O.2     1  UNL1       -0.4540
     14  C          9.3220   -3.6990   -2.3060 C.3     1  UNL1        0.4680
@<TRIPOS>BOND
     1    13    11    1
     2    13    14    1
     3     9    11    2
     4     9     7    1
     5    11    10    1
     6     7     6    2
     7    14    12    1
     8    10    12    1
     9    10     8    2
    10     6     8    1
    11     6     5    1
    12     5     1    1
    13     1     2    1
    14     2     4    2
    15     2     3    1
