@<TRIPOS>MOLECULE
/home/cewinharhar/GITHUB/reincatalyze/data/processed/docking_pred/2023-May-24-1506_sub9_nm5_bs15_s42_ex16_mel10_mts10000_k50_ec02_g099_lra3e-4_lrc3e-3/bb8285001221c2ec88d34c7e342a921234d5c761_ligand_9.pdbqt
 14 15 0 0 0
SMALL
GASTEIGER

@<TRIPOS>ATOM
      1  C          5.7340    1.3270   -0.2860 C.3     1  UNL1        0.0800
      2  C          5.1130    1.2530    1.0660 C.2     1  UNL1        0.1300
      3  C          5.3430    0.0930    1.9680 C.3     1  UNL1        0.0870
      4  O          4.3920    2.1490    1.4750 O.2     1  UNL1       -0.3000
      5  C          7.2280    1.0860   -0.2200 C.3     1  UNL1        0.0430
      6  C          7.6020   -0.2000   -0.8360 C.2     1  UNL1       -0.0440
      7  C          7.6610   -0.3570   -2.2250 C.2     1  UNL1        0.0080
      8  C          7.9040   -1.2780   -0.0350 C.2     1  UNL1        0.0540
      9  C          8.0190   -1.5870   -2.7470 C.2     1  UNL1        0.0510
     10  C          8.2660   -2.5190   -0.5670 C.2     1  UNL1        0.1660
     11  C          8.3230   -2.6750   -1.9340 C.2     1  UNL1        0.1650
     12  O          8.6060   -3.7250    0.0080 O.2     1  UNL1       -0.4540
     13  O          8.7020   -3.9870   -2.1720 O.2     1  UNL1       -0.4540
     14  C          8.9800   -4.6620   -0.9690 C.3     1  UNL1        0.4680
@<TRIPOS>BOND
     1     9     7    1
     2     9    11    2
     3     7     6    2
     4    13    11    1
     5    13    14    1
     6    11    10    1
     7    14    12    1
     8     6     5    1
     9     6     8    1
    10    10     8    2
    11    10    12    1
    12     1     5    1
    13     1     2    1
    14     2     4    2
    15     2     3    1
