@<TRIPOS>MOLECULE
/home/cewinharhar/GITHUB/reincatalyze/data/processed/docking_pred/2023-May-24-1506_sub9_nm5_bs15_s42_ex16_mel10_mts10000_k50_ec02_g099_lra3e-4_lrc3e-3/bb8285001221c2ec88d34c7e342a921234d5c761_ligand_9.pdbqt
 14 15 0 0 0
SMALL
GASTEIGER

@<TRIPOS>ATOM
      1  C          5.4020   -0.0740    1.9990 C.3     1  UNL1        0.0800
      2  C          4.5750    1.1430    1.7660 C.2     1  UNL1        0.1300
      3  C          4.9200    2.1310    0.7100 C.3     1  UNL1        0.0870
      4  O          3.5840    1.3660    2.4420 O.2     1  UNL1       -0.3000
      5  C          6.8480    0.1600    1.6090 C.3     1  UNL1        0.0430
      6  C          7.2820   -0.7610    0.5430 C.2     1  UNL1       -0.0440
      7  C          7.1610   -0.4250   -0.8100 C.2     1  UNL1        0.0080
      8  C          7.8240   -1.9810    0.8760 C.2     1  UNL1        0.0540
      9  C          7.5860   -1.3290   -1.7660 C.2     1  UNL1        0.0510
     10  C          8.2540   -2.8910   -0.0950 C.2     1  UNL1        0.1660
     11  C          8.1330   -2.5620   -1.4270 C.2     1  UNL1        0.1650
     12  O          8.8160   -4.1480   -0.0220 O.2     1  UNL1       -0.4540
     13  O          8.6310   -3.6350   -2.1510 O.2     1  UNL1       -0.4540
     14  C          9.1570   -4.6230   -1.2990 C.3     1  UNL1        0.4680
@<TRIPOS>BOND
     1    13    11    1
     2    13    14    1
     3     9    11    2
     4     9     7    1
     5    11    10    1
     6    14    12    1
     7     7     6    2
     8    10    12    1
     9    10     8    2
    10     6     8    1
    11     6     5    1
    12     3     2    1
    13     5     1    1
    14     2     1    1
    15     2     4    2
