@<TRIPOS>MOLECULE
/home/cewinharhar/GITHUB/reincatalyze/data/processed/docking_pred/2023-May-24-1506_sub9_nm5_bs15_s42_ex16_mel10_mts10000_k50_ec02_g099_lra3e-4_lrc3e-3/bdfc35a41e3d78d3bf59a6b88613069133e00868_ligand_9.pdbqt
 14 15 0 0 0
SMALL
GASTEIGER

@<TRIPOS>ATOM
      1  C          5.7500    0.8580    0.3980 C.3     1  UNL1        0.0800
      2  C          5.4130    0.3160    1.7440 C.2     1  UNL1        0.1300
      3  C          6.2510   -0.7230    2.4010 C.3     1  UNL1        0.0870
      4  O          4.4300    0.7110    2.3500 O.2     1  UNL1       -0.3000
      5  C          7.2500    0.8930    0.1800 C.3     1  UNL1        0.0430
      6  C          7.6600    0.0200   -0.9340 C.2     1  UNL1       -0.0440
      7  C          7.8920    0.5280   -2.2170 C.2     1  UNL1        0.0080
      8  C          7.8250   -1.3300   -0.7180 C.2     1  UNL1        0.0540
      9  C          8.2760   -0.3400   -3.2240 C.2     1  UNL1        0.0510
     10  C          8.2140   -2.2030   -1.7380 C.2     1  UNL1        0.1660
     11  C          8.4410   -1.7030   -3.0020 C.2     1  UNL1        0.1650
     12  O          8.4420   -3.5620   -1.7760 O.2     1  UNL1       -0.4540
     13  O          8.8090   -2.7770   -3.7970 O.2     1  UNL1       -0.4540
     14  C          8.9100   -3.9600   -3.0400 C.3     1  UNL1        0.4680
@<TRIPOS>BOND
     1    13    14    1
     2    13    11    1
     3     9    11    2
     4     9     7    1
     5    14    12    1
     6    11    10    1
     7     7     6    2
     8    12    10    1
     9    10     8    2
    10     6     8    1
    11     6     5    1
    12     5     1    1
    13     1     2    1
    14     2     4    2
    15     2     3    1
