@<TRIPOS>MOLECULE
/home/cewinharhar/GITHUB/reincatalyze/data/processed/docking_pred/2023-May-24-1506_sub9_nm5_bs15_s42_ex16_mel10_mts10000_k50_ec02_g099_lra3e-4_lrc3e-3/bdfc35a41e3d78d3bf59a6b88613069133e00868_ligand_9.pdbqt
 14 15 0 0 0
SMALL
GASTEIGER

@<TRIPOS>ATOM
      1  C          6.0270    1.6480    1.1560 C.3     1  UNL1        0.0800
      2  C          5.4550    0.5480    1.9810 C.2     1  UNL1        0.1300
      3  C          6.2460   -0.6650    2.3220 C.3     1  UNL1        0.0870
      4  O          4.3120    0.6100    2.4030 O.2     1  UNL1       -0.3000
      5  C          5.7450    1.4350   -0.3180 C.3     1  UNL1        0.0430
      6  C          6.8100    0.6530   -0.9710 C.2     1  UNL1       -0.0440
      7  C          8.1570    1.0160   -0.8640 C.2     1  UNL1        0.0080
      8  C          6.4830   -0.4660   -1.7040 C.2     1  UNL1        0.0540
      9  C          9.1130    0.2440   -1.4980 C.2     1  UNL1        0.0510
     10  C          7.4530   -1.2440   -2.3420 C.2     1  UNL1        0.1660
     11  C          8.7790   -0.8860   -2.2380 C.2     1  UNL1        0.1650
     12  O          7.3850   -2.3820   -3.1170 O.2     1  UNL1       -0.4540
     13  O          9.5050   -1.8220   -2.9580 O.2     1  UNL1       -0.4540
     14  C          8.6690   -2.8400   -3.4560 C.3     1  UNL1        0.4680
@<TRIPOS>BOND
     1    14    12    1
     2    14    13    1
     3    12    10    1
     4    13    11    1
     5    10    11    2
     6    10     8    1
     7    11     9    1
     8     8     6    2
     9     9     7    2
    10     6     7    1
    11     6     5    1
    12     5     1    1
    13     1     2    1
    14     2     3    1
    15     2     4    2
