@<TRIPOS>MOLECULE
/home/cewinharhar/GITHUB/reincatalyze/data/processed/docking_pred/2023-May-24-1506_sub9_nm5_bs15_s42_ex16_mel10_mts10000_k50_ec02_g099_lra3e-4_lrc3e-3/bdfc35a41e3d78d3bf59a6b88613069133e00868_ligand_9.pdbqt
 14 15 0 0 0
SMALL
GASTEIGER

@<TRIPOS>ATOM
      1  C          5.7360   -0.1350    1.5230 C.3     1  UNL1        0.0800
      2  C          4.8490    1.0610    1.4940 C.2     1  UNL1        0.1300
      3  C          5.0400    2.1500    0.4990 C.3     1  UNL1        0.0870
      4  O          3.9350    1.1830    2.2920 O.2     1  UNL1       -0.3000
      5  C          7.1730    0.2370    1.2180 C.3     1  UNL1        0.0430
      6  C          7.5930   -0.2480   -0.1090 C.2     1  UNL1       -0.0440
      7  C          7.8300    0.6320   -1.1710 C.2     1  UNL1        0.0080
      8  C          7.7620   -1.5980   -0.3190 C.2     1  UNL1        0.0540
      9  C          8.2240    0.1190   -2.3930 C.2     1  UNL1        0.0510
     10  C          8.1610   -2.1120   -1.5570 C.2     1  UNL1        0.1660
     11  C          8.3930   -1.2460   -2.6030 C.2     1  UNL1        0.1650
     12  O          8.3940   -3.3920   -2.0120 O.2     1  UNL1       -0.4540
     13  O          8.7690   -2.0210   -3.6890 O.2     1  UNL1       -0.4540
     14  C          8.8700   -3.3790   -3.3330 C.3     1  UNL1        0.4680
@<TRIPOS>BOND
     1    13    14    1
     2    13    11    1
     3    14    12    1
     4    11     9    2
     5    11    10    1
     6     9     7    1
     7    12    10    1
     8    10     8    2
     9     7     6    2
    10     8     6    1
    11     6     5    1
    12     3     2    1
    13     5     1    1
    14     2     1    1
    15     2     4    2
