MODEL 1
REMARK VINA RESULT:      -8.1      0.000      0.000
REMARK SMILES CC(=O)CCc1ccc2c(c1)OCO2
REMARK SMILES IDX 4 1 2 2 1 3 3 4 5 5 6 6 7 7 11 8 8 9 10 10 9 11 12 12 14 13
REMARK SMILES IDX 13 14
REMARK H PARENT
REMARK Flexibility Score: inf
ROOT
ATOM      1  C   UNL     1       6.027   1.648   1.156  1.00  0.00     0.080 C 
ENDROOT
BRANCH   1   2
ATOM      2  C   UNL     1       5.455   0.548   1.981  1.00  0.00     0.130 C 
ATOM      3  C   UNL     1       6.246  -0.665   2.322  1.00  0.00     0.087 C 
ATOM      4  O   UNL     1       4.312   0.610   2.403  1.00  0.00    -0.300 OA
ENDBRANCH   1   2
BRANCH   1   5
ATOM      5  C   UNL     1       5.745   1.435  -0.318  1.00  0.00     0.043 C 
BRANCH   5   6
ATOM      6  C   UNL     1       6.810   0.653  -0.971  1.00  0.00    -0.044 A 
ATOM      7  C   UNL     1       8.157   1.016  -0.864  1.00  0.00     0.008 A 
ATOM      8  C   UNL     1       6.483  -0.466  -1.704  1.00  0.00     0.054 A 
ATOM      9  C   UNL     1       9.113   0.244  -1.498  1.00  0.00     0.051 A 
ATOM     10  C   UNL     1       7.453  -1.244  -2.342  1.00  0.00     0.166 A 
ATOM     11  C   UNL     1       8.779  -0.886  -2.238  1.00  0.00     0.165 A 
ATOM     12  O   UNL     1       7.385  -2.382  -3.117  1.00  0.00    -0.454 OA
ATOM     13  O   UNL     1       9.505  -1.822  -2.958  1.00  0.00    -0.454 OA
ATOM     14  C   UNL     1       8.669  -2.840  -3.456  1.00  0.00     0.468 C 
ENDBRANCH   5   6
ENDBRANCH   1   5
TORSDOF 3
ENDMDL
MODEL 2
REMARK VINA RESULT:      -7.2      1.249      1.674
REMARK SMILES CC(=O)CCc1ccc2c(c1)OCO2
REMARK SMILES IDX 4 1 2 2 1 3 3 4 5 5 6 6 7 7 11 8 8 9 10 10 9 11 12 12 14 13
REMARK SMILES IDX 13 14
REMARK H PARENT
REMARK Flexibility Score: inf
ROOT
ATOM      1  C   UNL     1       5.736  -0.135   1.523  1.00  0.00     0.080 C 
ENDROOT
BRANCH   1   2
ATOM      2  C   UNL     1       4.849   1.061   1.494  1.00  0.00     0.130 C 
ATOM      3  C   UNL     1       5.040   2.150   0.499  1.00  0.00     0.087 C 
ATOM      4  O   UNL     1       3.935   1.183   2.292  1.00  0.00    -0.300 OA
ENDBRANCH   1   2
BRANCH   1   5
ATOM      5  C   UNL     1       7.173   0.237   1.218  1.00  0.00     0.043 C 
BRANCH   5   6
ATOM      6  C   UNL     1       7.593  -0.248  -0.109  1.00  0.00    -0.044 A 
ATOM      7  C   UNL     1       7.830   0.632  -1.171  1.00  0.00     0.008 A 
ATOM      8  C   UNL     1       7.762  -1.598  -0.319  1.00  0.00     0.054 A 
ATOM      9  C   UNL     1       8.224   0.119  -2.393  1.00  0.00     0.051 A 
ATOM     10  C   UNL     1       8.161  -2.112  -1.557  1.00  0.00     0.166 A 
ATOM     11  C   UNL     1       8.393  -1.246  -2.603  1.00  0.00     0.165 A 
ATOM     12  O   UNL     1       8.394  -3.392  -2.012  1.00  0.00    -0.454 OA
ATOM     13  O   UNL     1       8.769  -2.021  -3.689  1.00  0.00    -0.454 OA
ATOM     14  C   UNL     1       8.870  -3.379  -3.333  1.00  0.00     0.468 C 
ENDBRANCH   5   6
ENDBRANCH   1   5
TORSDOF 3
ENDMDL
MODEL 3
REMARK VINA RESULT:      -7.2      1.578      5.564
REMARK SMILES CC(=O)CCc1ccc2c(c1)OCO2
REMARK SMILES IDX 4 1 2 2 1 3 3 4 5 5 6 6 7 7 11 8 8 9 10 10 9 11 12 12 14 13
REMARK SMILES IDX 13 14
REMARK H PARENT
REMARK Flexibility Score: inf
ROOT
ATOM      1  C   UNL     1       8.085  -2.493  -3.545  1.00  0.00     0.080 C 
ENDROOT
BRANCH   1   2
ATOM      2  C   UNL     1       9.197  -3.472  -3.386  1.00  0.00     0.130 C 
ATOM      3  C   UNL     1       8.942  -4.934  -3.291  1.00  0.00     0.087 C 
ATOM      4  O   UNL     1      10.357  -3.098  -3.329  1.00  0.00    -0.300 OA
ENDBRANCH   1   2
BRANCH   1   5
ATOM      5  C   UNL     1       8.469  -1.131  -3.001  1.00  0.00     0.043 C 
BRANCH   5   6
ATOM      6  C   UNL     1       7.702  -0.791  -1.790  1.00  0.00    -0.044 A 
ATOM      7  C   UNL     1       7.762  -1.583  -0.637  1.00  0.00     0.008 A 
ATOM      8  C   UNL     1       6.906   0.332  -1.779  1.00  0.00     0.054 A 
ATOM      9  C   UNL     1       7.020  -1.214   0.470  1.00  0.00     0.051 A 
ATOM     10  C   UNL     1       6.159   0.702  -0.657  1.00  0.00     0.166 A 
ATOM     11  C   UNL     1       6.216  -0.078   0.477  1.00  0.00     0.165 A 
ATOM     12  O   UNL     1       5.306   1.754  -0.401  1.00  0.00    -0.454 OA
ATOM     13  O   UNL     1       5.389   0.519   1.416  1.00  0.00    -0.454 OA
ATOM     14  C   UNL     1       4.863   1.731   0.932  1.00  0.00     0.468 C 
ENDBRANCH   5   6
ENDBRANCH   1   5
TORSDOF 3
ENDMDL
MODEL 4
REMARK VINA RESULT:      -7.2      1.231      1.367
REMARK SMILES CC(=O)CCc1ccc2c(c1)OCO2
REMARK SMILES IDX 4 1 2 2 1 3 3 4 5 5 6 6 7 7 11 8 8 9 10 10 9 11 12 12 14 13
REMARK SMILES IDX 13 14
REMARK H PARENT
REMARK Flexibility Score: inf
ROOT
ATOM      1  C   UNL     1       5.750   0.858   0.398  1.00  0.00     0.080 C 
ENDROOT
BRANCH   1   2
ATOM      2  C   UNL     1       5.413   0.316   1.744  1.00  0.00     0.130 C 
ATOM      3  C   UNL     1       6.251  -0.723   2.401  1.00  0.00     0.087 C 
ATOM      4  O   UNL     1       4.430   0.711   2.350  1.00  0.00    -0.300 OA
ENDBRANCH   1   2
BRANCH   1   5
ATOM      5  C   UNL     1       7.250   0.893   0.180  1.00  0.00     0.043 C 
BRANCH   5   6
ATOM      6  C   UNL     1       7.660   0.020  -0.934  1.00  0.00    -0.044 A 
ATOM      7  C   UNL     1       7.892   0.528  -2.217  1.00  0.00     0.008 A 
ATOM      8  C   UNL     1       7.825  -1.330  -0.718  1.00  0.00     0.054 A 
ATOM      9  C   UNL     1       8.276  -0.340  -3.224  1.00  0.00     0.051 A 
ATOM     10  C   UNL     1       8.214  -2.203  -1.738  1.00  0.00     0.166 A 
ATOM     11  C   UNL     1       8.441  -1.703  -3.002  1.00  0.00     0.165 A 
ATOM     12  O   UNL     1       8.442  -3.562  -1.776  1.00  0.00    -0.454 OA
ATOM     13  O   UNL     1       8.809  -2.777  -3.797  1.00  0.00    -0.454 OA
ATOM     14  C   UNL     1       8.910  -3.960  -3.040  1.00  0.00     0.468 C 
ENDBRANCH   5   6
ENDBRANCH   1   5
TORSDOF 3
ENDMDL
MODEL 5
REMARK VINA RESULT:      -7.1      1.622      5.452
REMARK SMILES CC(=O)CCc1ccc2c(c1)OCO2
REMARK SMILES IDX 4 1 2 2 1 3 3 4 5 5 6 6 7 7 11 8 8 9 10 10 9 11 12 12 14 13
REMARK SMILES IDX 13 14
REMARK H PARENT
REMARK Flexibility Score: inf
ROOT
ATOM      1  C   UNL     1       8.124  -2.481  -3.608  1.00  0.00     0.080 C 
ENDROOT
BRANCH   1   2
ATOM      2  C   UNL     1       9.238  -3.453  -3.430  1.00  0.00     0.130 C 
ATOM      3  C   UNL     1       8.991  -4.918  -3.357  1.00  0.00     0.087 C 
ATOM      4  O   UNL     1      10.393  -3.072  -3.338  1.00  0.00    -0.300 OA
ENDBRANCH   1   2
BRANCH   1   5
ATOM      5  C   UNL     1       8.519  -1.098  -3.129  1.00  0.00     0.043 C 
BRANCH   5   6
ATOM      6  C   UNL     1       7.740  -0.685  -1.947  1.00  0.00    -0.044 A 
ATOM      7  C   UNL     1       6.846   0.390  -1.998  1.00  0.00     0.008 A 
ATOM      8  C   UNL     1       7.886  -1.368  -0.762  1.00  0.00     0.054 A 
ATOM      9  C   UNL     1       6.142   0.731  -0.857  1.00  0.00     0.051 A 
ATOM     10  C   UNL     1       7.172  -1.020   0.388  1.00  0.00     0.166 A 
ATOM     11  C   UNL     1       6.293   0.039   0.340  1.00  0.00     0.165 A 
ATOM     12  O   UNL     1       7.141  -1.534   1.668  1.00  0.00    -0.454 OA
ATOM     13  O   UNL     1       5.734   0.154   1.603  1.00  0.00    -0.454 OA
ATOM     14  C   UNL     1       6.176  -0.880   2.451  1.00  0.00     0.468 C 
ENDBRANCH   5   6
ENDBRANCH   1   5
TORSDOF 3
ENDMDL
