@<TRIPOS>MOLECULE
/home/cewinharhar/GITHUB/reincatalyze/data/processed/docking_pred/2023-May-24-1506_sub9_nm5_bs15_s42_ex16_mel10_mts10000_k50_ec02_g099_lra3e-4_lrc3e-3/bdfc35a41e3d78d3bf59a6b88613069133e00868_ligand_9.pdbqt
 14 15 0 0 0
SMALL
GASTEIGER

@<TRIPOS>ATOM
      1  C          8.0850   -2.4930   -3.5450 C.3     1  UNL1        0.0800
      2  C          9.1970   -3.4720   -3.3860 C.2     1  UNL1        0.1300
      3  C          8.9420   -4.9340   -3.2910 C.3     1  UNL1        0.0870
      4  O         10.3570   -3.0980   -3.3290 O.2     1  UNL1       -0.3000
      5  C          8.4690   -1.1310   -3.0010 C.3     1  UNL1        0.0430
      6  C          7.7020   -0.7910   -1.7900 C.2     1  UNL1       -0.0440
      7  C          7.7620   -1.5830   -0.6370 C.2     1  UNL1        0.0080
      8  C          6.9060    0.3320   -1.7790 C.2     1  UNL1        0.0540
      9  C          7.0200   -1.2140    0.4700 C.2     1  UNL1        0.0510
     10  C          6.1590    0.7020   -0.6570 C.2     1  UNL1        0.1660
     11  C          6.2160   -0.0780    0.4770 C.2     1  UNL1        0.1650
     12  O          5.3060    1.7540   -0.4010 O.2     1  UNL1       -0.4540
     13  O          5.3890    0.5190    1.4160 O.2     1  UNL1       -0.4540
     14  C          4.8630    1.7310    0.9320 C.3     1  UNL1        0.4680
@<TRIPOS>BOND
     1     1     2    1
     2     1     5    1
     3     2     4    2
     4     2     3    1
     5     5     6    1
     6     6     8    2
     7     6     7    1
     8     8    10    1
     9    10    12    1
    10    10    11    2
    11     7     9    2
    12    12    14    1
    13     9    11    1
    14    11    13    1
    15    14    13    1
