@<TRIPOS>MOLECULE
/home/cewinharhar/GITHUB/reincatalyze/data/processed/docking_pred/2023-May-24-1506_sub9_nm5_bs15_s42_ex16_mel10_mts10000_k50_ec02_g099_lra3e-4_lrc3e-3/be159ddb300952c005bf82764a5ce22912cca304_ligand_9.pdbqt
 14 15 0 0 0
SMALL
GASTEIGER

@<TRIPOS>ATOM
      1  C          6.3800    1.2180    0.9220 C.3     1  UNL1        0.0800
      2  C          5.6550    0.4010    1.9340 C.2     1  UNL1        0.1300
      3  C          6.2580   -0.8220    2.5290 C.3     1  UNL1        0.0870
      4  O          4.5350    0.7130    2.3070 O.2     1  UNL1       -0.3000
      5  C          5.8720    0.9380   -0.4780 C.3     1  UNL1        0.0430
      6  C          6.8180    0.1110   -1.2480 C.2     1  UNL1       -0.0440
      7  C          7.5030    0.6200   -2.3570 C.2     1  UNL1        0.0080
      8  C          7.0450   -1.1940   -0.8740 C.2     1  UNL1        0.0540
      9  C          8.3800   -0.2030   -3.0410 C.2     1  UNL1        0.0510
     10  C          7.9330   -2.0220   -1.5670 C.2     1  UNL1        0.1660
     11  C          8.6050   -1.5220   -2.6600 C.2     1  UNL1        0.1650
     12  O          8.3230   -3.3330   -1.3970 O.2     1  UNL1       -0.4540
     13  O          9.4040   -2.5470   -3.1420 O.2     1  UNL1       -0.4540
     14  C          9.3250   -3.6850   -2.3170 C.3     1  UNL1        0.4680
@<TRIPOS>BOND
     1    13    11    1
     2    13    14    1
     3     9    11    2
     4     9     7    1
     5    11    10    1
     6     7     6    2
     7    14    12    1
     8    10    12    1
     9    10     8    2
    10     6     8    1
    11     6     5    1
    12     5     1    1
    13     1     2    1
    14     2     4    2
    15     2     3    1
