@<TRIPOS>MOLECULE
/home/cewinharhar/GITHUB/reincatalyze/data/processed/docking_pred/2023-May-24-1506_sub9_nm5_bs15_s42_ex16_mel10_mts10000_k50_ec02_g099_lra3e-4_lrc3e-3/be159ddb300952c005bf82764a5ce22912cca304_ligand_9.pdbqt
 14 15 0 0 0
SMALL
GASTEIGER

@<TRIPOS>ATOM
      1  C          6.9130    0.9000    1.2060 C.3     1  UNL1        0.0800
      2  C          5.4710    1.2010    1.4260 C.2     1  UNL1        0.1300
      3  C          4.7290    2.1490    0.5540 C.3     1  UNL1        0.0870
      4  O          4.8530    0.6740    2.3370 O.2     1  UNL1       -0.3000
      5  C          7.2890    1.0480   -0.2550 C.3     1  UNL1        0.0430
      6  C          7.6220   -0.2510   -0.8680 C.2     1  UNL1       -0.0440
      7  C          7.6200   -0.4280   -2.2560 C.2     1  UNL1        0.0080
      8  C          7.9460   -1.3210   -0.0660 C.2     1  UNL1        0.0540
      9  C          7.9410   -1.6690   -2.7750 C.2     1  UNL1        0.0510
     10  C          8.2710   -2.5730   -0.5950 C.2     1  UNL1        0.1660
     11  C          8.2680   -2.7490   -1.9610 C.2     1  UNL1        0.1650
     12  O          8.6230   -3.7750   -0.0170 O.2     1  UNL1       -0.4540
     13  O          8.6230   -4.0680   -2.1960 O.2     1  UNL1       -0.4540
     14  C          8.9440   -4.7300   -0.9960 C.3     1  UNL1        0.4680
@<TRIPOS>BOND
     1     9     7    1
     2     9    11    2
     3     7     6    2
     4    13    11    1
     5    13    14    1
     6    11    10    1
     7    14    12    1
     8     6     5    1
     9     6     8    1
    10    10     8    2
    11    10    12    1
    12     5     1    1
    13     3     2    1
    14     1     2    1
    15     2     4    2
