@<TRIPOS>MOLECULE
/home/cewinharhar/GITHUB/reincatalyze/data/processed/docking_pred/2023-May-24-1506_sub9_nm5_bs15_s42_ex16_mel10_mts10000_k50_ec02_g099_lra3e-4_lrc3e-3/be159ddb300952c005bf82764a5ce22912cca304_ligand_9.pdbqt
 14 15 0 0 0
SMALL
GASTEIGER

@<TRIPOS>ATOM
      1  C          5.4000   -0.0570    2.0270 C.3     1  UNL1        0.0800
      2  C          4.5550    1.1420    1.7710 C.2     1  UNL1        0.1300
      3  C          4.8980    2.1280    0.7120 C.3     1  UNL1        0.0870
      4  O          3.5480    1.3510    2.4290 O.2     1  UNL1       -0.3000
      5  C          6.8400    0.1870    1.6200 C.3     1  UNL1        0.0430
      6  C          7.2700   -0.7340    0.5530 C.2     1  UNL1       -0.0440
      7  C          7.1480   -0.3960   -0.8000 C.2     1  UNL1        0.0080
      8  C          7.8090   -1.9560    0.8830 C.2     1  UNL1        0.0540
      9  C          7.5700   -1.3000   -1.7580 C.2     1  UNL1        0.0510
     10  C          8.2350   -2.8670   -0.0890 C.2     1  UNL1        0.1660
     11  C          8.1130   -2.5360   -1.4200 C.2     1  UNL1        0.1650
     12  O          8.7930   -4.1250   -0.0180 O.2     1  UNL1       -0.4540
     13  O          8.6070   -3.6090   -2.1460 O.2     1  UNL1       -0.4540
     14  C          9.1320   -4.6000   -1.2950 C.3     1  UNL1        0.4680
@<TRIPOS>BOND
     1    13    11    1
     2    13    14    1
     3     9    11    2
     4     9     7    1
     5    11    10    1
     6    14    12    1
     7     7     6    2
     8    10    12    1
     9    10     8    2
    10     6     8    1
    11     6     5    1
    12     3     2    1
    13     5     1    1
    14     2     1    1
    15     2     4    2
