@<TRIPOS>MOLECULE
/home/cewinharhar/GITHUB/reincatalyze/data/processed/docking_pred/2023-May-24-1506_sub9_nm5_bs15_s42_ex16_mel10_mts10000_k50_ec02_g099_lra3e-4_lrc3e-3/be159ddb300952c005bf82764a5ce22912cca304_ligand_9.pdbqt
 14 15 0 0 0
SMALL
GASTEIGER

@<TRIPOS>ATOM
      1  C          5.7770    1.5100   -0.3030 C.3     1  UNL1        0.0800
      2  C          5.0890    1.3600    1.0090 C.2     1  UNL1        0.1300
      3  C          5.4600    0.2850    1.9680 C.3     1  UNL1        0.0870
      4  O          4.1930    2.1220    1.3380 O.2     1  UNL1       -0.3000
      5  C          7.2580    1.2100   -0.1850 C.3     1  UNL1        0.0430
      6  C          7.6090   -0.0710   -0.8240 C.2     1  UNL1       -0.0440
      7  C          7.6610   -0.2060   -2.2160 C.2     1  UNL1        0.0080
      8  C          7.8970   -1.1660   -0.0420 C.2     1  UNL1        0.0540
      9  C          7.9970   -1.4330   -2.7590 C.2     1  UNL1        0.0510
     10  C          8.2360   -2.4040   -0.5950 C.2     1  UNL1        0.1660
     11  C          8.2860   -2.5390   -1.9650 C.2     1  UNL1        0.1650
     12  O          8.5590   -3.6250   -0.0410 O.2     1  UNL1       -0.4540
     13  O          8.6430   -3.8520   -2.2260 O.2     1  UNL1       -0.4540
     14  C          8.9140   -4.5520   -1.0350 C.3     1  UNL1        0.4680
@<TRIPOS>BOND
     1     9     7    1
     2     9    11    2
     3    13    11    1
     4    13    14    1
     5     7     6    2
     6    11    10    1
     7    14    12    1
     8     6     5    1
     9     6     8    1
    10    10     8    2
    11    10    12    1
    12     1     5    1
    13     1     2    1
    14     2     4    2
    15     2     3    1
