MODEL 1
REMARK VINA RESULT:      -7.7      0.000      0.000
REMARK SMILES CC(=O)CCc1ccc2c(c1)OCO2
REMARK SMILES IDX 4 1 2 2 1 3 3 4 5 5 6 6 7 7 11 8 8 9 10 10 9 11 12 12 14 13
REMARK SMILES IDX 13 14
REMARK H PARENT
REMARK Flexibility Score: inf
ROOT
ATOM      1  C   UNL     1       5.560   1.911   1.271  1.00  0.00     0.080 C 
ENDROOT
BRANCH   1   2
ATOM      2  C   UNL     1       5.115   0.700   2.017  1.00  0.00     0.130 C 
ATOM      3  C   UNL     1       6.007  -0.475   2.201  1.00  0.00     0.087 C 
ATOM      4  O   UNL     1       3.997   0.639   2.501  1.00  0.00    -0.300 OA
ENDBRANCH   1   2
BRANCH   1   5
ATOM      5  C   UNL     1       5.423   1.716  -0.226  1.00  0.00     0.043 C 
BRANCH   5   6
ATOM      6  C   UNL     1       6.588   1.016  -0.795  1.00  0.00    -0.044 A 
ATOM      7  C   UNL     1       7.895   1.454  -0.556  1.00  0.00     0.008 A 
ATOM      8  C   UNL     1       6.397  -0.099  -1.581  1.00  0.00     0.054 A 
ATOM      9  C   UNL     1       8.950   0.756  -1.116  1.00  0.00     0.051 A 
ATOM     10  C   UNL     1       7.467  -0.801  -2.144  1.00  0.00     0.166 A 
ATOM     11  C   UNL     1       8.754  -0.370  -1.910  1.00  0.00     0.165 A 
ATOM     12  O   UNL     1       7.537  -1.919  -2.948  1.00  0.00    -0.454 OA
ATOM     13  O   UNL     1       9.597  -1.242  -2.581  1.00  0.00    -0.454 OA
ATOM     14  C   UNL     1       8.872  -2.291  -3.178  1.00  0.00     0.468 C 
ENDBRANCH   5   6
ENDBRANCH   1   5
TORSDOF 3
ENDMDL
MODEL 2
REMARK VINA RESULT:      -7.4      1.862      2.309
REMARK SMILES CC(=O)CCc1ccc2c(c1)OCO2
REMARK SMILES IDX 4 1 2 2 1 3 3 4 5 5 6 6 7 7 11 8 8 9 10 10 9 11 12 12 14 13
REMARK SMILES IDX 13 14
REMARK H PARENT
REMARK Flexibility Score: inf
ROOT
ATOM      1  C   UNL     1       5.777   1.510  -0.303  1.00  0.00     0.080 C 
ENDROOT
BRANCH   1   2
ATOM      2  C   UNL     1       5.089   1.360   1.009  1.00  0.00     0.130 C 
ATOM      3  C   UNL     1       5.460   0.285   1.968  1.00  0.00     0.087 C 
ATOM      4  O   UNL     1       4.193   2.122   1.338  1.00  0.00    -0.300 OA
ENDBRANCH   1   2
BRANCH   1   5
ATOM      5  C   UNL     1       7.258   1.210  -0.185  1.00  0.00     0.043 C 
BRANCH   5   6
ATOM      6  C   UNL     1       7.609  -0.071  -0.824  1.00  0.00    -0.044 A 
ATOM      7  C   UNL     1       7.661  -0.206  -2.216  1.00  0.00     0.008 A 
ATOM      8  C   UNL     1       7.897  -1.166  -0.042  1.00  0.00     0.054 A 
ATOM      9  C   UNL     1       7.997  -1.433  -2.759  1.00  0.00     0.051 A 
ATOM     10  C   UNL     1       8.236  -2.404  -0.595  1.00  0.00     0.166 A 
ATOM     11  C   UNL     1       8.286  -2.539  -1.965  1.00  0.00     0.165 A 
ATOM     12  O   UNL     1       8.559  -3.625  -0.041  1.00  0.00    -0.454 OA
ATOM     13  O   UNL     1       8.643  -3.852  -2.226  1.00  0.00    -0.454 OA
ATOM     14  C   UNL     1       8.914  -4.552  -1.035  1.00  0.00     0.468 C 
ENDBRANCH   5   6
ENDBRANCH   1   5
TORSDOF 3
ENDMDL
MODEL 3
REMARK VINA RESULT:      -7.3      2.049      2.623
REMARK SMILES CC(=O)CCc1ccc2c(c1)OCO2
REMARK SMILES IDX 4 1 2 2 1 3 3 4 5 5 6 6 7 7 11 8 8 9 10 10 9 11 12 12 14 13
REMARK SMILES IDX 13 14
REMARK H PARENT
REMARK Flexibility Score: inf
ROOT
ATOM      1  C   UNL     1       5.400  -0.057   2.027  1.00  0.00     0.080 C 
ENDROOT
BRANCH   1   2
ATOM      2  C   UNL     1       4.555   1.142   1.771  1.00  0.00     0.130 C 
ATOM      3  C   UNL     1       4.898   2.128   0.712  1.00  0.00     0.087 C 
ATOM      4  O   UNL     1       3.548   1.351   2.429  1.00  0.00    -0.300 OA
ENDBRANCH   1   2
BRANCH   1   5
ATOM      5  C   UNL     1       6.840   0.187   1.620  1.00  0.00     0.043 C 
BRANCH   5   6
ATOM      6  C   UNL     1       7.270  -0.734   0.553  1.00  0.00    -0.044 A 
ATOM      7  C   UNL     1       7.148  -0.396  -0.800  1.00  0.00     0.008 A 
ATOM      8  C   UNL     1       7.809  -1.956   0.883  1.00  0.00     0.054 A 
ATOM      9  C   UNL     1       7.570  -1.300  -1.758  1.00  0.00     0.051 A 
ATOM     10  C   UNL     1       8.235  -2.867  -0.089  1.00  0.00     0.166 A 
ATOM     11  C   UNL     1       8.113  -2.536  -1.420  1.00  0.00     0.165 A 
ATOM     12  O   UNL     1       8.793  -4.125  -0.018  1.00  0.00    -0.454 OA
ATOM     13  O   UNL     1       8.607  -3.609  -2.146  1.00  0.00    -0.454 OA
ATOM     14  C   UNL     1       9.132  -4.600  -1.295  1.00  0.00     0.468 C 
ENDBRANCH   5   6
ENDBRANCH   1   5
TORSDOF 3
ENDMDL
MODEL 4
REMARK VINA RESULT:      -7.1      1.243      1.447
REMARK SMILES CC(=O)CCc1ccc2c(c1)OCO2
REMARK SMILES IDX 4 1 2 2 1 3 3 4 5 5 6 6 7 7 11 8 8 9 10 10 9 11 12 12 14 13
REMARK SMILES IDX 13 14
REMARK H PARENT
REMARK Flexibility Score: inf
ROOT
ATOM      1  C   UNL     1       6.380   1.218   0.922  1.00  0.00     0.080 C 
ENDROOT
BRANCH   1   2
ATOM      2  C   UNL     1       5.655   0.401   1.934  1.00  0.00     0.130 C 
ATOM      3  C   UNL     1       6.258  -0.822   2.529  1.00  0.00     0.087 C 
ATOM      4  O   UNL     1       4.535   0.713   2.307  1.00  0.00    -0.300 OA
ENDBRANCH   1   2
BRANCH   1   5
ATOM      5  C   UNL     1       5.872   0.938  -0.478  1.00  0.00     0.043 C 
BRANCH   5   6
ATOM      6  C   UNL     1       6.818   0.111  -1.248  1.00  0.00    -0.044 A 
ATOM      7  C   UNL     1       7.503   0.620  -2.357  1.00  0.00     0.008 A 
ATOM      8  C   UNL     1       7.045  -1.194  -0.874  1.00  0.00     0.054 A 
ATOM      9  C   UNL     1       8.380  -0.203  -3.041  1.00  0.00     0.051 A 
ATOM     10  C   UNL     1       7.933  -2.022  -1.567  1.00  0.00     0.166 A 
ATOM     11  C   UNL     1       8.605  -1.522  -2.660  1.00  0.00     0.165 A 
ATOM     12  O   UNL     1       8.323  -3.333  -1.397  1.00  0.00    -0.454 OA
ATOM     13  O   UNL     1       9.404  -2.547  -3.142  1.00  0.00    -0.454 OA
ATOM     14  C   UNL     1       9.325  -3.685  -2.317  1.00  0.00     0.468 C 
ENDBRANCH   5   6
ENDBRANCH   1   5
TORSDOF 3
ENDMDL
MODEL 5
REMARK VINA RESULT:      -7.0      1.944      2.530
REMARK SMILES CC(=O)CCc1ccc2c(c1)OCO2
REMARK SMILES IDX 4 1 2 2 1 3 3 4 5 5 6 6 7 7 11 8 8 9 10 10 9 11 12 12 14 13
REMARK SMILES IDX 13 14
REMARK H PARENT
REMARK Flexibility Score: inf
ROOT
ATOM      1  C   UNL     1       6.913   0.900   1.206  1.00  0.00     0.080 C 
ENDROOT
BRANCH   1   2
ATOM      2  C   UNL     1       5.471   1.201   1.426  1.00  0.00     0.130 C 
ATOM      3  C   UNL     1       4.729   2.149   0.554  1.00  0.00     0.087 C 
ATOM      4  O   UNL     1       4.853   0.674   2.337  1.00  0.00    -0.300 OA
ENDBRANCH   1   2
BRANCH   1   5
ATOM      5  C   UNL     1       7.289   1.048  -0.255  1.00  0.00     0.043 C 
BRANCH   5   6
ATOM      6  C   UNL     1       7.622  -0.251  -0.868  1.00  0.00    -0.044 A 
ATOM      7  C   UNL     1       7.620  -0.428  -2.256  1.00  0.00     0.008 A 
ATOM      8  C   UNL     1       7.946  -1.321  -0.066  1.00  0.00     0.054 A 
ATOM      9  C   UNL     1       7.941  -1.669  -2.775  1.00  0.00     0.051 A 
ATOM     10  C   UNL     1       8.271  -2.573  -0.595  1.00  0.00     0.166 A 
ATOM     11  C   UNL     1       8.268  -2.749  -1.961  1.00  0.00     0.165 A 
ATOM     12  O   UNL     1       8.623  -3.775  -0.017  1.00  0.00    -0.454 OA
ATOM     13  O   UNL     1       8.623  -4.068  -2.196  1.00  0.00    -0.454 OA
ATOM     14  C   UNL     1       8.944  -4.730  -0.996  1.00  0.00     0.468 C 
ENDBRANCH   5   6
ENDBRANCH   1   5
TORSDOF 3
ENDMDL
