@<TRIPOS>MOLECULE
/home/cewinharhar/GITHUB/reincatalyze/data/processed/docking_pred/2023-May-24-1506_sub9_nm5_bs15_s42_ex16_mel10_mts10000_k50_ec02_g099_lra3e-4_lrc3e-3/be159ddb300952c005bf82764a5ce22912cca304_ligand_9.pdbqt
 14 15 0 0 0
SMALL
GASTEIGER

@<TRIPOS>ATOM
      1  C          5.5600    1.9110    1.2710 C.3     1  UNL1        0.0800
      2  C          5.1150    0.7000    2.0170 C.2     1  UNL1        0.1300
      3  C          6.0070   -0.4750    2.2010 C.3     1  UNL1        0.0870
      4  O          3.9970    0.6390    2.5010 O.2     1  UNL1       -0.3000
      5  C          5.4230    1.7160   -0.2260 C.3     1  UNL1        0.0430
      6  C          6.5880    1.0160   -0.7950 C.2     1  UNL1       -0.0440
      7  C          7.8950    1.4540   -0.5560 C.2     1  UNL1        0.0080
      8  C          6.3970   -0.0990   -1.5810 C.2     1  UNL1        0.0540
      9  C          8.9500    0.7560   -1.1160 C.2     1  UNL1        0.0510
     10  C          7.4670   -0.8010   -2.1440 C.2     1  UNL1        0.1660
     11  C          8.7540   -0.3700   -1.9100 C.2     1  UNL1        0.1650
     12  O          7.5370   -1.9190   -2.9480 O.2     1  UNL1       -0.4540
     13  O          9.5970   -1.2420   -2.5810 O.2     1  UNL1       -0.4540
     14  C          8.8720   -2.2910   -3.1780 C.3     1  UNL1        0.4680
@<TRIPOS>BOND
     1    14    12    1
     2    14    13    1
     3    12    10    1
     4    13    11    1
     5    10    11    2
     6    10     8    1
     7    11     9    1
     8     8     6    2
     9     9     7    2
    10     6     7    1
    11     6     5    1
    12     5     1    1
    13     1     2    1
    14     2     3    1
    15     2     4    2
