@<TRIPOS>MOLECULE
/home/cewinharhar/GITHUB/reincatalyze/data/processed/docking_pred/2023-May-24-1506_sub9_nm5_bs15_s42_ex16_mel10_mts10000_k50_ec02_g099_lra3e-4_lrc3e-3/bef029ec7f2d3d0301694813bb63cef4e6663bb8_ligand_9.pdbqt
 14 15 0 0 0
SMALL
GASTEIGER

@<TRIPOS>ATOM
      1  C          6.3830    1.1670    0.9080 C.3     1  UNL1        0.0800
      2  C          5.6900    0.3370    1.9330 C.2     1  UNL1        0.1300
      3  C          6.3260   -0.8730    2.5180 C.3     1  UNL1        0.0870
      4  O          4.5710    0.6290    2.3240 O.2     1  UNL1       -0.3000
      5  C          5.8690    0.8640   -0.4850 C.3     1  UNL1        0.0430
      6  C          6.8250    0.0480   -1.2540 C.2     1  UNL1       -0.0440
      7  C          7.5180    0.5710   -2.3520 C.2     1  UNL1        0.0080
      8  C          7.0510   -1.2610   -0.8930 C.2     1  UNL1        0.0540
      9  C          8.4040   -0.2420   -3.0360 C.2     1  UNL1        0.0510
     10  C          7.9480   -2.0780   -1.5870 C.2     1  UNL1        0.1660
     11  C          8.6300   -1.5650   -2.6670 C.2     1  UNL1        0.1650
     12  O          8.3400   -3.3900   -1.4270 O.2     1  UNL1       -0.4540
     13  O          9.4360   -2.5820   -3.1530 O.2     1  UNL1       -0.4540
     14  C          9.3510   -3.7290   -2.3420 C.3     1  UNL1        0.4680
@<TRIPOS>BOND
     1    13    11    1
     2    13    14    1
     3     9    11    2
     4     9     7    1
     5    11    10    1
     6     7     6    2
     7    14    12    1
     8    10    12    1
     9    10     8    2
    10     6     8    1
    11     6     5    1
    12     5     1    1
    13     1     2    1
    14     2     4    2
    15     2     3    1
