@<TRIPOS>MOLECULE
/home/cewinharhar/GITHUB/reincatalyze/data/processed/docking_pred/2023-May-24-1506_sub9_nm5_bs15_s42_ex16_mel10_mts10000_k50_ec02_g099_lra3e-4_lrc3e-3/bef029ec7f2d3d0301694813bb63cef4e6663bb8_ligand_9.pdbqt
 14 15 0 0 0
SMALL
GASTEIGER

@<TRIPOS>ATOM
      1  C          5.3460   -0.0850    1.9450 C.3     1  UNL1        0.0800
      2  C          4.4590    1.1000    1.7800 C.2     1  UNL1        0.1300
      3  C          4.7360    2.1470    0.7600 C.3     1  UNL1        0.0870
      4  O          3.4720    1.2470    2.4830 O.2     1  UNL1       -0.3000
      5  C          6.8090    0.3100    1.8870 C.3     1  UNL1        0.0430
      6  C          7.4190   -0.0420    0.5930 C.2     1  UNL1       -0.0440
      7  C          7.9340    0.9370   -0.2650 C.2     1  UNL1        0.0080
      8  C          7.4920   -1.3620    0.2090 C.2     1  UNL1        0.0540
      9  C          8.4960    0.5470   -1.4670 C.2     1  UNL1        0.0510
     10  C          8.0610   -1.7500   -1.0070 C.2     1  UNL1        0.1660
     11  C          8.5670   -0.7880   -1.8520 C.2     1  UNL1        0.1650
     12  O          8.2490   -2.9770   -1.6080 O.2     1  UNL1       -0.4540
     13  O          9.0610   -1.4510   -2.9650 O.2     1  UNL1       -0.4540
     14  C          8.9620   -2.8460   -2.8110 C.3     1  UNL1        0.4680
@<TRIPOS>BOND
     1    13    14    1
     2    13    11    1
     3    14    12    1
     4    11     9    2
     5    11    10    1
     6    12    10    1
     7     9     7    1
     8    10     8    2
     9     7     6    2
    10     8     6    1
    11     6     5    1
    12     3     2    1
    13     2     1    1
    14     2     4    2
    15     5     1    1
