@<TRIPOS>MOLECULE
/home/cewinharhar/GITHUB/reincatalyze/data/processed/docking_pred/2023-May-24-1506_sub9_nm5_bs15_s42_ex16_mel10_mts10000_k50_ec02_g099_lra3e-4_lrc3e-3/bef029ec7f2d3d0301694813bb63cef4e6663bb8_ligand_9.pdbqt
 14 15 0 0 0
SMALL
GASTEIGER

@<TRIPOS>ATOM
      1  C          5.8430    1.4490   -0.2830 C.3     1  UNL1        0.0800
      2  C          5.1570    1.3360    1.0340 C.2     1  UNL1        0.1300
      3  C          5.4790    0.2430    1.9900 C.3     1  UNL1        0.0870
      4  O          4.3050    2.1430    1.3680 O.2     1  UNL1       -0.3000
      5  C          7.3240    1.1470   -0.1610 C.3     1  UNL1        0.0430
      6  C          7.6720   -0.1400   -0.7870 C.2     1  UNL1       -0.0440
      7  C          7.7310   -0.2870   -2.1780 C.2     1  UNL1        0.0080
      8  C          7.9520   -1.2310    0.0050 C.2     1  UNL1        0.0540
      9  C          8.0650   -1.5200   -2.7090 C.2     1  UNL1        0.0510
     10  C          8.2890   -2.4750   -0.5360 C.2     1  UNL1        0.1660
     11  C          8.3460   -2.6200   -1.9050 C.2     1  UNL1        0.1650
     12  O          8.6040   -3.6920    0.0290 O.2     1  UNL1       -0.4540
     13  O          8.6990   -3.9370   -2.1530 O.2     1  UNL1       -0.4540
     14  C          8.9610   -4.6280   -0.9550 C.3     1  UNL1        0.4680
@<TRIPOS>BOND
     1     9     7    1
     2     9    11    2
     3     7     6    2
     4    13    11    1
     5    13    14    1
     6    11    10    1
     7    14    12    1
     8     6     5    1
     9     6     8    1
    10    10     8    2
    11    10    12    1
    12     1     5    1
    13     1     2    1
    14     2     4    2
    15     2     3    1
