MODEL 1
REMARK VINA RESULT:      -7.7      0.000      0.000
REMARK SMILES CC(=O)CCc1ccc2c(c1)OCO2
REMARK SMILES IDX 4 1 2 2 1 3 3 4 5 5 6 6 7 7 11 8 8 9 10 10 9 11 12 12 14 13
REMARK SMILES IDX 13 14
REMARK H PARENT
REMARK Flexibility Score: inf
ROOT
ATOM      1  C   UNL     1       5.485   1.915   1.269  1.00  0.00     0.080 C 
ENDROOT
BRANCH   1   2
ATOM      2  C   UNL     1       5.011   0.705   1.996  1.00  0.00     0.130 C 
ATOM      3  C   UNL     1       5.842  -0.526   2.089  1.00  0.00     0.087 C 
ATOM      4  O   UNL     1       3.919   0.688   2.540  1.00  0.00    -0.300 OA
ENDBRANCH   1   2
BRANCH   1   5
ATOM      5  C   UNL     1       5.372   1.734  -0.232  1.00  0.00     0.043 C 
BRANCH   5   6
ATOM      6  C   UNL     1       6.545   1.038  -0.789  1.00  0.00    -0.044 A 
ATOM      7  C   UNL     1       7.849   1.469  -0.521  1.00  0.00     0.008 A 
ATOM      8  C   UNL     1       6.366  -0.067  -1.590  1.00  0.00     0.054 A 
ATOM      9  C   UNL     1       8.912   0.775  -1.071  1.00  0.00     0.051 A 
ATOM     10  C   UNL     1       7.443  -0.766  -2.143  1.00  0.00     0.166 A 
ATOM     11  C   UNL     1       8.727  -0.341  -1.881  1.00  0.00     0.165 A 
ATOM     12  O   UNL     1       7.525  -1.874  -2.959  1.00  0.00    -0.454 OA
ATOM     13  O   UNL     1       9.579  -1.207  -2.547  1.00  0.00    -0.454 OA
ATOM     14  C   UNL     1       8.863  -2.247  -3.169  1.00  0.00     0.468 C 
ENDBRANCH   5   6
ENDBRANCH   1   5
TORSDOF 3
ENDMDL
MODEL 2
REMARK VINA RESULT:      -7.5      1.940      2.392
REMARK SMILES CC(=O)CCc1ccc2c(c1)OCO2
REMARK SMILES IDX 4 1 2 2 1 3 3 4 5 5 6 6 7 7 11 8 8 9 10 10 9 11 12 12 14 13
REMARK SMILES IDX 13 14
REMARK H PARENT
REMARK Flexibility Score: inf
ROOT
ATOM      1  C   UNL     1       5.843   1.449  -0.283  1.00  0.00     0.080 C 
ENDROOT
BRANCH   1   2
ATOM      2  C   UNL     1       5.157   1.336   1.034  1.00  0.00     0.130 C 
ATOM      3  C   UNL     1       5.479   0.243   1.990  1.00  0.00     0.087 C 
ATOM      4  O   UNL     1       4.305   2.143   1.368  1.00  0.00    -0.300 OA
ENDBRANCH   1   2
BRANCH   1   5
ATOM      5  C   UNL     1       7.324   1.147  -0.161  1.00  0.00     0.043 C 
BRANCH   5   6
ATOM      6  C   UNL     1       7.672  -0.140  -0.787  1.00  0.00    -0.044 A 
ATOM      7  C   UNL     1       7.731  -0.287  -2.178  1.00  0.00     0.008 A 
ATOM      8  C   UNL     1       7.952  -1.231   0.005  1.00  0.00     0.054 A 
ATOM      9  C   UNL     1       8.065  -1.520  -2.709  1.00  0.00     0.051 A 
ATOM     10  C   UNL     1       8.289  -2.475  -0.536  1.00  0.00     0.166 A 
ATOM     11  C   UNL     1       8.346  -2.620  -1.905  1.00  0.00     0.165 A 
ATOM     12  O   UNL     1       8.604  -3.692   0.029  1.00  0.00    -0.454 OA
ATOM     13  O   UNL     1       8.699  -3.937  -2.153  1.00  0.00    -0.454 OA
ATOM     14  C   UNL     1       8.961  -4.628  -0.955  1.00  0.00     0.468 C 
ENDBRANCH   5   6
ENDBRANCH   1   5
TORSDOF 3
ENDMDL
MODEL 3
REMARK VINA RESULT:      -7.3      2.067      2.637
REMARK SMILES CC(=O)CCc1ccc2c(c1)OCO2
REMARK SMILES IDX 4 1 2 2 1 3 3 4 5 5 6 6 7 7 11 8 8 9 10 10 9 11 12 12 14 13
REMARK SMILES IDX 13 14
REMARK H PARENT
REMARK Flexibility Score: inf
ROOT
ATOM      1  C   UNL     1       5.394  -0.073   2.019  1.00  0.00     0.080 C 
ENDROOT
BRANCH   1   2
ATOM      2  C   UNL     1       4.558   1.134   1.771  1.00  0.00     0.130 C 
ATOM      3  C   UNL     1       4.907   2.122   0.715  1.00  0.00     0.087 C 
ATOM      4  O   UNL     1       3.555   1.349   2.432  1.00  0.00    -0.300 OA
ENDBRANCH   1   2
BRANCH   1   5
ATOM      5  C   UNL     1       6.839   0.167   1.626  1.00  0.00     0.043 C 
BRANCH   5   6
ATOM      6  C   UNL     1       7.274  -0.748   0.556  1.00  0.00    -0.044 A 
ATOM      7  C   UNL     1       7.159  -0.403  -0.795  1.00  0.00     0.008 A 
ATOM      8  C   UNL     1       7.809  -1.973   0.882  1.00  0.00     0.054 A 
ATOM      9  C   UNL     1       7.585  -1.302  -1.756  1.00  0.00     0.051 A 
ATOM     10  C   UNL     1       8.239  -2.878  -0.092  1.00  0.00     0.166 A 
ATOM     11  C   UNL     1       8.126  -2.540  -1.423  1.00  0.00     0.165 A 
ATOM     12  O   UNL     1       8.796  -4.138  -0.025  1.00  0.00    -0.454 OA
ATOM     13  O   UNL     1       8.622  -3.609  -2.152  1.00  0.00    -0.454 OA
ATOM     14  C   UNL     1       9.141  -4.606  -1.304  1.00  0.00     0.468 C 
ENDBRANCH   5   6
ENDBRANCH   1   5
TORSDOF 3
ENDMDL
MODEL 4
REMARK VINA RESULT:      -7.1      1.283      1.521
REMARK SMILES CC(=O)CCc1ccc2c(c1)OCO2
REMARK SMILES IDX 4 1 2 2 1 3 3 4 5 5 6 6 7 7 11 8 8 9 10 10 9 11 12 12 14 13
REMARK SMILES IDX 13 14
REMARK H PARENT
REMARK Flexibility Score: inf
ROOT
ATOM      1  C   UNL     1       6.383   1.167   0.908  1.00  0.00     0.080 C 
ENDROOT
BRANCH   1   2
ATOM      2  C   UNL     1       5.690   0.337   1.933  1.00  0.00     0.130 C 
ATOM      3  C   UNL     1       6.326  -0.873   2.518  1.00  0.00     0.087 C 
ATOM      4  O   UNL     1       4.571   0.629   2.324  1.00  0.00    -0.300 OA
ENDBRANCH   1   2
BRANCH   1   5
ATOM      5  C   UNL     1       5.869   0.864  -0.485  1.00  0.00     0.043 C 
BRANCH   5   6
ATOM      6  C   UNL     1       6.825   0.048  -1.254  1.00  0.00    -0.044 A 
ATOM      7  C   UNL     1       7.518   0.571  -2.352  1.00  0.00     0.008 A 
ATOM      8  C   UNL     1       7.051  -1.261  -0.893  1.00  0.00     0.054 A 
ATOM      9  C   UNL     1       8.404  -0.242  -3.036  1.00  0.00     0.051 A 
ATOM     10  C   UNL     1       7.948  -2.078  -1.587  1.00  0.00     0.166 A 
ATOM     11  C   UNL     1       8.630  -1.565  -2.667  1.00  0.00     0.165 A 
ATOM     12  O   UNL     1       8.340  -3.390  -1.427  1.00  0.00    -0.454 OA
ATOM     13  O   UNL     1       9.436  -2.582  -3.153  1.00  0.00    -0.454 OA
ATOM     14  C   UNL     1       9.351  -3.729  -2.342  1.00  0.00     0.468 C 
ENDBRANCH   5   6
ENDBRANCH   1   5
TORSDOF 3
ENDMDL
MODEL 5
REMARK VINA RESULT:      -6.8      1.248      1.740
REMARK SMILES CC(=O)CCc1ccc2c(c1)OCO2
REMARK SMILES IDX 4 1 2 2 1 3 3 4 5 5 6 6 7 7 11 8 8 9 10 10 9 11 12 12 14 13
REMARK SMILES IDX 13 14
REMARK H PARENT
REMARK Flexibility Score: inf
ROOT
ATOM      1  C   UNL     1       5.346  -0.085   1.945  1.00  0.00     0.080 C 
ENDROOT
BRANCH   1   2
ATOM      2  C   UNL     1       4.459   1.100   1.780  1.00  0.00     0.130 C 
ATOM      3  C   UNL     1       4.736   2.147   0.760  1.00  0.00     0.087 C 
ATOM      4  O   UNL     1       3.472   1.247   2.483  1.00  0.00    -0.300 OA
ENDBRANCH   1   2
BRANCH   1   5
ATOM      5  C   UNL     1       6.809   0.310   1.887  1.00  0.00     0.043 C 
BRANCH   5   6
ATOM      6  C   UNL     1       7.419  -0.042   0.593  1.00  0.00    -0.044 A 
ATOM      7  C   UNL     1       7.934   0.937  -0.265  1.00  0.00     0.008 A 
ATOM      8  C   UNL     1       7.492  -1.362   0.209  1.00  0.00     0.054 A 
ATOM      9  C   UNL     1       8.496   0.547  -1.467  1.00  0.00     0.051 A 
ATOM     10  C   UNL     1       8.061  -1.750  -1.007  1.00  0.00     0.166 A 
ATOM     11  C   UNL     1       8.567  -0.788  -1.852  1.00  0.00     0.165 A 
ATOM     12  O   UNL     1       8.249  -2.977  -1.608  1.00  0.00    -0.454 OA
ATOM     13  O   UNL     1       9.061  -1.451  -2.965  1.00  0.00    -0.454 OA
ATOM     14  C   UNL     1       8.962  -2.846  -2.811  1.00  0.00     0.468 C 
ENDBRANCH   5   6
ENDBRANCH   1   5
TORSDOF 3
ENDMDL
