@<TRIPOS>MOLECULE
/home/cewinharhar/GITHUB/reincatalyze/data/processed/docking_pred/2023-May-24-1506_sub9_nm5_bs15_s42_ex16_mel10_mts10000_k50_ec02_g099_lra3e-4_lrc3e-3/bf1bd72bf83e0bbc7f208f1f88a3802cf16c22f1_ligand_9.pdbqt
 14 15 0 0 0
SMALL
GASTEIGER

@<TRIPOS>ATOM
      1  C          5.9660    1.1540   -0.2090 C.3     1  UNL1        0.0800
      2  C          5.9180    1.1470    1.2800 C.2     1  UNL1        0.1300
      3  C          5.3750   -0.0120    2.0390 C.3     1  UNL1        0.0870
      4  O          6.3260    2.1000    1.9240 O.2     1  UNL1       -0.3000
      5  C          7.3950    1.1110   -0.7140 C.3     1  UNL1        0.0430
      6  C          7.7670   -0.2340   -1.1880 C.2     1  UNL1       -0.0440
      7  C          7.9270   -0.5120   -2.5510 C.2     1  UNL1        0.0080
      8  C          7.9660   -1.2470   -0.2790 C.2     1  UNL1        0.0540
      9  C          8.2780   -1.7920   -2.9370 C.2     1  UNL1        0.0510
     10  C          8.3220   -2.5400   -0.6740 C.2     1  UNL1        0.1660
     11  C          8.4790   -2.8150   -2.0150 C.2     1  UNL1        0.1650
     12  O          8.5720   -3.7010    0.0250 O.2     1  UNL1       -0.4540
     13  O          8.8270   -4.1530   -2.1110 O.2     1  UNL1       -0.4540
     14  C          8.9860   -4.7300   -0.8370 C.3     1  UNL1        0.4680
@<TRIPOS>BOND
     1     9     7    1
     2     9    11    2
     3     7     6    2
     4    13    11    1
     5    13    14    1
     6    11    10    1
     7     6     5    1
     8     6     8    1
     9    14    12    1
    10     5     1    1
    11    10     8    2
    12    10    12    1
    13     1     2    1
    14     2     4    2
    15     2     3    1
