@<TRIPOS>MOLECULE
/home/cewinharhar/GITHUB/reincatalyze/data/processed/docking_pred/2023-May-24-1506_sub9_nm5_bs15_s42_ex16_mel10_mts10000_k50_ec02_g099_lra3e-4_lrc3e-3/bf1bd72bf83e0bbc7f208f1f88a3802cf16c22f1_ligand_9.pdbqt
 14 15 0 0 0
SMALL
GASTEIGER

@<TRIPOS>ATOM
      1  C          6.3880    1.2060    0.9410 C.3     1  UNL1        0.0800
      2  C          5.6510    0.3920    1.9470 C.2     1  UNL1        0.1300
      3  C          6.2420   -0.8360    2.5430 C.3     1  UNL1        0.0870
      4  O          4.5320    0.7130    2.3140 O.2     1  UNL1       -0.3000
      5  C          5.8800    0.9380   -0.4620 C.3     1  UNL1        0.0430
      6  C          6.8200    0.1070   -1.2350 C.2     1  UNL1       -0.0440
      7  C          7.4930    0.6100   -2.3540 C.2     1  UNL1        0.0080
      8  C          7.0500   -1.1960   -0.8550 C.2     1  UNL1        0.0540
      9  C          8.3640   -0.2170   -3.0400 C.2     1  UNL1        0.0510
     10  C          7.9320   -2.0270   -1.5510 C.2     1  UNL1        0.1660
     11  C          8.5940   -1.5330   -2.6530 C.2     1  UNL1        0.1650
     12  O          8.3250   -3.3370   -1.3760 O.2     1  UNL1       -0.4540
     13  O          9.3890   -2.5610   -3.1370 O.2     1  UNL1       -0.4540
     14  C          9.3180   -3.6930   -2.3030 C.3     1  UNL1        0.4680
@<TRIPOS>BOND
     1    13    11    1
     2    13    14    1
     3     9    11    2
     4     9     7    1
     5    11    10    1
     6     7     6    2
     7    14    12    1
     8    10    12    1
     9    10     8    2
    10     6     8    1
    11     6     5    1
    12     5     1    1
    13     1     2    1
    14     2     4    2
    15     2     3    1
