@<TRIPOS>MOLECULE
/home/cewinharhar/GITHUB/reincatalyze/data/processed/docking_pred/2023-May-24-1506_sub9_nm5_bs15_s42_ex16_mel10_mts10000_k50_ec02_g099_lra3e-4_lrc3e-3/bfaa3bc067c86e8b5ef89a85d12e30cfe25fe09e_ligand_9.pdbqt
 14 15 0 0 0
SMALL
GASTEIGER

@<TRIPOS>ATOM
      1  C          5.4010   -0.0760    2.0150 C.3     1  UNL1        0.0800
      2  C          4.5590    1.1270    1.7650 C.2     1  UNL1        0.1300
      3  C          4.9140    2.1270    0.7230 C.3     1  UNL1        0.0870
      4  O          3.5460    1.3290    2.4150 O.2     1  UNL1       -0.3000
      5  C          6.8420    0.1680    1.6130 C.3     1  UNL1        0.0430
      6  C          7.2730   -0.7470    0.5410 C.2     1  UNL1       -0.0440
      7  C          7.1480   -0.4040   -0.8100 C.2     1  UNL1        0.0080
      8  C          7.8160   -1.9700    0.8650 C.2     1  UNL1        0.0540
      9  C          7.5710   -1.3030   -1.7720 C.2     1  UNL1        0.0510
     10  C          8.2420   -2.8750   -0.1110 C.2     1  UNL1        0.1660
     11  C          8.1180   -2.5380   -1.4410 C.2     1  UNL1        0.1650
     12  O          8.8040   -4.1320   -0.0460 O.2     1  UNL1       -0.4540
     13  O          8.6130   -3.6070   -2.1720 O.2     1  UNL1       -0.4540
     14  C          9.1420   -4.6000   -1.3270 C.3     1  UNL1        0.4680
@<TRIPOS>BOND
     1    13    11    1
     2    13    14    1
     3     9    11    2
     4     9     7    1
     5    11    10    1
     6    14    12    1
     7     7     6    2
     8    10    12    1
     9    10     8    2
    10     6     8    1
    11     6     5    1
    12     3     2    1
    13     5     1    1
    14     2     1    1
    15     2     4    2
