@<TRIPOS>MOLECULE
/home/cewinharhar/GITHUB/reincatalyze/data/processed/docking_pred/2023-May-24-1506_sub9_nm5_bs15_s42_ex16_mel10_mts10000_k50_ec02_g099_lra3e-4_lrc3e-3/bfaa3bc067c86e8b5ef89a85d12e30cfe25fe09e_ligand_9.pdbqt
 14 15 0 0 0
SMALL
GASTEIGER

@<TRIPOS>ATOM
      1  C          6.7800    0.5780    0.9850 C.3     1  UNL1        0.0800
      2  C          5.4310    1.1020    1.3370 C.2     1  UNL1        0.1300
      3  C          4.7560    2.1390    0.5110 C.3     1  UNL1        0.0870
      4  O          4.8370    0.6930    2.3210 O.2     1  UNL1       -0.3000
      5  C          7.0400    0.6840   -0.5050 C.3     1  UNL1        0.0430
      6  C          7.5790   -0.5720   -1.0560 C.2     1  UNL1       -0.0440
      7  C          7.8610   -0.7130   -2.4200 C.2     1  UNL1        0.0080
      8  C          7.8160   -1.6390   -0.2190 C.2     1  UNL1        0.0540
      9  C          8.3660   -1.9150   -2.8800 C.2     1  UNL1        0.0510
     10  C          8.3270   -2.8520   -0.6890 C.2     1  UNL1        0.1660
     11  C          8.6040   -2.9910   -2.0310 C.2     1  UNL1        0.1650
     12  O          8.6440   -4.0420   -0.0680 O.2     1  UNL1       -0.4540
     13  O          9.0920   -4.2770   -2.2080 O.2     1  UNL1       -0.4540
     14  C          9.2190   -4.9460   -0.9760 C.3     1  UNL1        0.4680
@<TRIPOS>BOND
     1     9     7    1
     2     9    11    2
     3     7     6    2
     4    13    11    1
     5    13    14    1
     6    11    10    1
     7     6     5    1
     8     6     8    1
     9    14    12    1
    10    10     8    2
    11    10    12    1
    12     5     1    1
    13     3     2    1
    14     1     2    1
    15     2     4    2
