MODEL 1
REMARK VINA RESULT:      -7.7      0.000      0.000
REMARK SMILES CC(=O)CCc1ccc2c(c1)OCO2
REMARK SMILES IDX 4 1 2 2 1 3 3 4 5 5 6 6 7 7 11 8 8 9 10 10 9 11 12 12 14 13
REMARK SMILES IDX 13 14
REMARK H PARENT
REMARK Flexibility Score: inf
ROOT
ATOM      1  C   UNL     1       5.509   1.926   1.249  1.00  0.00     0.080 C 
ENDROOT
BRANCH   1   2
ATOM      2  C   UNL     1       5.026   0.727   1.990  1.00  0.00     0.130 C 
ATOM      3  C   UNL     1       5.856  -0.500   2.116  1.00  0.00     0.087 C 
ATOM      4  O   UNL     1       3.925   0.718   2.518  1.00  0.00    -0.300 OA
ENDBRANCH   1   2
BRANCH   1   5
ATOM      5  C   UNL     1       5.390   1.731  -0.249  1.00  0.00     0.043 C 
BRANCH   5   6
ATOM      6  C   UNL     1       6.562   1.030  -0.804  1.00  0.00    -0.044 A 
ATOM      7  C   UNL     1       7.867   1.460  -0.540  1.00  0.00     0.008 A 
ATOM      8  C   UNL     1       6.379  -0.078  -1.600  1.00  0.00     0.054 A 
ATOM      9  C   UNL     1       8.928   0.762  -1.087  1.00  0.00     0.051 A 
ATOM     10  C   UNL     1       7.455  -0.781  -2.151  1.00  0.00     0.166 A 
ATOM     11  C   UNL     1       8.740  -0.358  -1.893  1.00  0.00     0.165 A 
ATOM     12  O   UNL     1       7.534  -1.894  -2.962  1.00  0.00    -0.454 OA
ATOM     13  O   UNL     1       9.590  -1.229  -2.556  1.00  0.00    -0.454 OA
ATOM     14  C   UNL     1       8.871  -2.271  -3.171  1.00  0.00     0.468 C 
ENDBRANCH   5   6
ENDBRANCH   1   5
TORSDOF 3
ENDMDL
MODEL 2
REMARK VINA RESULT:      -7.4      1.951      2.377
REMARK SMILES CC(=O)CCc1ccc2c(c1)OCO2
REMARK SMILES IDX 4 1 2 2 1 3 3 4 5 5 6 6 7 7 11 8 8 9 10 10 9 11 12 12 14 13
REMARK SMILES IDX 13 14
REMARK H PARENT
REMARK Flexibility Score: inf
ROOT
ATOM      1  C   UNL     1       5.796   1.415  -0.182  1.00  0.00     0.080 C 
ENDROOT
BRANCH   1   2
ATOM      2  C   UNL     1       5.087   1.272   1.121  1.00  0.00     0.130 C 
ATOM      3  C   UNL     1       5.346   0.123   2.029  1.00  0.00     0.087 C 
ATOM      4  O   UNL     1       4.267   2.100   1.482  1.00  0.00    -0.300 OA
ENDBRANCH   1   2
BRANCH   1   5
ATOM      5  C   UNL     1       7.272   1.100  -0.042  1.00  0.00     0.043 C 
BRANCH   5   6
ATOM      6  C   UNL     1       7.622  -0.176  -0.692  1.00  0.00    -0.044 A 
ATOM      7  C   UNL     1       7.634  -0.311  -2.085  1.00  0.00     0.008 A 
ATOM      8  C   UNL     1       7.948  -1.268   0.081  1.00  0.00     0.054 A 
ATOM      9  C   UNL     1       7.971  -1.532  -2.638  1.00  0.00     0.051 A 
ATOM     10  C   UNL     1       8.289  -2.501  -0.484  1.00  0.00     0.166 A 
ATOM     11  C   UNL     1       8.300  -2.634  -1.854  1.00  0.00     0.165 A 
ATOM     12  O   UNL     1       8.646  -3.717   0.060  1.00  0.00    -0.454 OA
ATOM     13  O   UNL     1       8.668  -3.942  -2.127  1.00  0.00    -0.454 OA
ATOM     14  C   UNL     1       8.985  -4.638  -0.945  1.00  0.00     0.468 C 
ENDBRANCH   5   6
ENDBRANCH   1   5
TORSDOF 3
ENDMDL
MODEL 3
REMARK VINA RESULT:      -7.2      2.054      2.588
REMARK SMILES CC(=O)CCc1ccc2c(c1)OCO2
REMARK SMILES IDX 4 1 2 2 1 3 3 4 5 5 6 6 7 7 11 8 8 9 10 10 9 11 12 12 14 13
REMARK SMILES IDX 13 14
REMARK H PARENT
REMARK Flexibility Score: inf
ROOT
ATOM      1  C   UNL     1       5.513   0.025   1.993  1.00  0.00     0.080 C 
ENDROOT
BRANCH   1   2
ATOM      2  C   UNL     1       4.611   1.177   1.711  1.00  0.00     0.130 C 
ATOM      3  C   UNL     1       4.897   2.143   0.616  1.00  0.00     0.087 C 
ATOM      4  O   UNL     1       3.606   1.364   2.377  1.00  0.00    -0.300 OA
ENDBRANCH   1   2
BRANCH   1   5
ATOM      5  C   UNL     1       6.921   0.296   1.503  1.00  0.00     0.043 C 
BRANCH   5   6
ATOM      6  C   UNL     1       7.327  -0.655   0.453  1.00  0.00    -0.044 A 
ATOM      7  C   UNL     1       7.199  -0.345  -0.906  1.00  0.00     0.008 A 
ATOM      8  C   UNL     1       7.847  -1.880   0.806  1.00  0.00     0.054 A 
ATOM      9  C   UNL     1       7.597  -1.278  -1.847  1.00  0.00     0.051 A 
ATOM     10  C   UNL     1       8.249  -2.818  -0.150  1.00  0.00     0.166 A 
ATOM     11  C   UNL     1       8.122  -2.515  -1.487  1.00  0.00     0.165 A 
ATOM     12  O   UNL     1       8.786  -4.084  -0.055  1.00  0.00    -0.454 OA
ATOM     13  O   UNL     1       8.591  -3.612  -2.193  1.00  0.00    -0.454 OA
ATOM     14  C   UNL     1       9.106  -4.593  -1.325  1.00  0.00     0.468 C 
ENDBRANCH   5   6
ENDBRANCH   1   5
TORSDOF 3
ENDMDL
MODEL 4
REMARK VINA RESULT:      -7.1      1.268      1.484
REMARK SMILES CC(=O)CCc1ccc2c(c1)OCO2
REMARK SMILES IDX 4 1 2 2 1 3 3 4 5 5 6 6 7 7 11 8 8 9 10 10 9 11 12 12 14 13
REMARK SMILES IDX 13 14
REMARK H PARENT
REMARK Flexibility Score: inf
ROOT
ATOM      1  C   UNL     1       6.379   1.219   0.913  1.00  0.00     0.080 C 
ENDROOT
BRANCH   1   2
ATOM      2  C   UNL     1       5.670   0.406   1.940  1.00  0.00     0.130 C 
ATOM      3  C   UNL     1       6.286  -0.810   2.534  1.00  0.00     0.087 C 
ATOM      4  O   UNL     1       4.555   0.717   2.325  1.00  0.00    -0.300 OA
ENDBRANCH   1   2
BRANCH   1   5
ATOM      5  C   UNL     1       5.864   0.917  -0.481  1.00  0.00     0.043 C 
BRANCH   5   6
ATOM      6  C   UNL     1       6.814   0.092  -1.248  1.00  0.00    -0.044 A 
ATOM      7  C   UNL     1       7.500   0.602  -2.355  1.00  0.00     0.008 A 
ATOM      8  C   UNL     1       7.042  -1.213  -0.873  1.00  0.00     0.054 A 
ATOM      9  C   UNL     1       8.381  -0.218  -3.036  1.00  0.00     0.051 A 
ATOM     10  C   UNL     1       7.934  -2.039  -1.564  1.00  0.00     0.166 A 
ATOM     11  C   UNL     1       8.608  -1.537  -2.655  1.00  0.00     0.165 A 
ATOM     12  O   UNL     1       8.327  -3.349  -1.393  1.00  0.00    -0.454 OA
ATOM     13  O   UNL     1       9.411  -2.560  -3.135  1.00  0.00    -0.454 OA
ATOM     14  C   UNL     1       9.331  -3.698  -2.310  1.00  0.00     0.468 C 
ENDBRANCH   5   6
ENDBRANCH   1   5
TORSDOF 3
ENDMDL
MODEL 5
REMARK VINA RESULT:      -6.8      1.249      1.743
REMARK SMILES CC(=O)CCc1ccc2c(c1)OCO2
REMARK SMILES IDX 4 1 2 2 1 3 3 4 5 5 6 6 7 7 11 8 8 9 10 10 9 11 12 12 14 13
REMARK SMILES IDX 13 14
REMARK H PARENT
REMARK Flexibility Score: inf
ROOT
ATOM      1  C   UNL     1       5.360  -0.076   1.965  1.00  0.00     0.080 C 
ENDROOT
BRANCH   1   2
ATOM      2  C   UNL     1       4.472   1.107   1.784  1.00  0.00     0.130 C 
ATOM      3  C   UNL     1       4.756   2.146   0.758  1.00  0.00     0.087 C 
ATOM      4  O   UNL     1       3.479   1.257   2.477  1.00  0.00    -0.300 OA
ENDBRANCH   1   2
BRANCH   1   5
ATOM      5  C   UNL     1       6.822   0.318   1.900  1.00  0.00     0.043 C 
BRANCH   5   6
ATOM      6  C   UNL     1       7.427  -0.039   0.605  1.00  0.00    -0.044 A 
ATOM      7  C   UNL     1       7.943   0.936  -0.257  1.00  0.00     0.008 A 
ATOM      8  C   UNL     1       7.495  -1.360   0.224  1.00  0.00     0.054 A 
ATOM      9  C   UNL     1       8.500   0.541  -1.459  1.00  0.00     0.051 A 
ATOM     10  C   UNL     1       8.059  -1.754  -0.992  1.00  0.00     0.166 A 
ATOM     11  C   UNL     1       8.566  -0.795  -1.841  1.00  0.00     0.165 A 
ATOM     12  O   UNL     1       8.241  -2.983  -1.590  1.00  0.00    -0.454 OA
ATOM     13  O   UNL     1       9.055  -1.462  -2.954  1.00  0.00    -0.454 OA
ATOM     14  C   UNL     1       8.951  -2.857  -2.795  1.00  0.00     0.468 C 
ENDBRANCH   5   6
ENDBRANCH   1   5
TORSDOF 3
ENDMDL
