@<TRIPOS>MOLECULE
/home/cewinharhar/GITHUB/reincatalyze/data/processed/docking_pred/2023-May-24-1506_sub9_nm5_bs15_s42_ex16_mel10_mts10000_k50_ec02_g099_lra3e-4_lrc3e-3/c00c8b20774af87dd702fd508d588995eeb45aaa_ligand_9.pdbqt
 14 15 0 0 0
SMALL
GASTEIGER

@<TRIPOS>ATOM
      1  C          5.7960    1.4150   -0.1820 C.3     1  UNL1        0.0800
      2  C          5.0870    1.2720    1.1210 C.2     1  UNL1        0.1300
      3  C          5.3460    0.1230    2.0290 C.3     1  UNL1        0.0870
      4  O          4.2670    2.1000    1.4820 O.2     1  UNL1       -0.3000
      5  C          7.2720    1.1000   -0.0420 C.3     1  UNL1        0.0430
      6  C          7.6220   -0.1760   -0.6920 C.2     1  UNL1       -0.0440
      7  C          7.6340   -0.3110   -2.0850 C.2     1  UNL1        0.0080
      8  C          7.9480   -1.2680    0.0810 C.2     1  UNL1        0.0540
      9  C          7.9710   -1.5320   -2.6380 C.2     1  UNL1        0.0510
     10  C          8.2890   -2.5010   -0.4840 C.2     1  UNL1        0.1660
     11  C          8.3000   -2.6340   -1.8540 C.2     1  UNL1        0.1650
     12  O          8.6460   -3.7170    0.0600 O.2     1  UNL1       -0.4540
     13  O          8.6680   -3.9420   -2.1270 O.2     1  UNL1       -0.4540
     14  C          8.9850   -4.6380   -0.9450 C.3     1  UNL1        0.4680
@<TRIPOS>BOND
     1     9     7    1
     2     9    11    2
     3    13    11    1
     4    13    14    1
     5     7     6    2
     6    11    10    1
     7    14    12    1
     8     6     5    1
     9     6     8    1
    10    10    12    1
    11    10     8    2
    12     1     5    1
    13     1     2    1
    14     2     4    2
    15     2     3    1
