@<TRIPOS>MOLECULE
/home/cewinharhar/GITHUB/reincatalyze/data/processed/docking_pred/2023-May-24-1506_sub9_nm5_bs15_s42_ex16_mel10_mts10000_k50_ec02_g099_lra3e-4_lrc3e-3/c00c8b20774af87dd702fd508d588995eeb45aaa_ligand_9.pdbqt
 14 15 0 0 0
SMALL
GASTEIGER

@<TRIPOS>ATOM
      1  C          5.5130    0.0250    1.9930 C.3     1  UNL1        0.0800
      2  C          4.6110    1.1770    1.7110 C.2     1  UNL1        0.1300
      3  C          4.8970    2.1430    0.6160 C.3     1  UNL1        0.0870
      4  O          3.6060    1.3640    2.3770 O.2     1  UNL1       -0.3000
      5  C          6.9210    0.2960    1.5030 C.3     1  UNL1        0.0430
      6  C          7.3270   -0.6550    0.4530 C.2     1  UNL1       -0.0440
      7  C          7.1990   -0.3450   -0.9060 C.2     1  UNL1        0.0080
      8  C          7.8470   -1.8800    0.8060 C.2     1  UNL1        0.0540
      9  C          7.5970   -1.2780   -1.8470 C.2     1  UNL1        0.0510
     10  C          8.2490   -2.8180   -0.1500 C.2     1  UNL1        0.1660
     11  C          8.1220   -2.5150   -1.4870 C.2     1  UNL1        0.1650
     12  O          8.7860   -4.0840   -0.0550 O.2     1  UNL1       -0.4540
     13  O          8.5910   -3.6120   -2.1930 O.2     1  UNL1       -0.4540
     14  C          9.1060   -4.5930   -1.3250 C.3     1  UNL1        0.4680
@<TRIPOS>BOND
     1    13    11    1
     2    13    14    1
     3     9    11    2
     4     9     7    1
     5    11    10    1
     6    14    12    1
     7     7     6    2
     8    10    12    1
     9    10     8    2
    10     6     8    1
    11     6     5    1
    12     3     2    1
    13     5     1    1
    14     2     1    1
    15     2     4    2
