@<TRIPOS>MOLECULE
/home/cewinharhar/GITHUB/reincatalyze/data/processed/docking_pred/2023-May-24-1506_sub9_nm5_bs15_s42_ex16_mel10_mts10000_k50_ec02_g099_lra3e-4_lrc3e-3/c00c8b20774af87dd702fd508d588995eeb45aaa_ligand_9.pdbqt
 14 15 0 0 0
SMALL
GASTEIGER

@<TRIPOS>ATOM
      1  C          6.3790    1.2190    0.9130 C.3     1  UNL1        0.0800
      2  C          5.6700    0.4060    1.9400 C.2     1  UNL1        0.1300
      3  C          6.2860   -0.8100    2.5340 C.3     1  UNL1        0.0870
      4  O          4.5550    0.7170    2.3250 O.2     1  UNL1       -0.3000
      5  C          5.8640    0.9170   -0.4810 C.3     1  UNL1        0.0430
      6  C          6.8140    0.0920   -1.2480 C.2     1  UNL1       -0.0440
      7  C          7.5000    0.6020   -2.3550 C.2     1  UNL1        0.0080
      8  C          7.0420   -1.2130   -0.8730 C.2     1  UNL1        0.0540
      9  C          8.3810   -0.2180   -3.0360 C.2     1  UNL1        0.0510
     10  C          7.9340   -2.0390   -1.5640 C.2     1  UNL1        0.1660
     11  C          8.6080   -1.5370   -2.6550 C.2     1  UNL1        0.1650
     12  O          8.3270   -3.3490   -1.3930 O.2     1  UNL1       -0.4540
     13  O          9.4110   -2.5600   -3.1350 O.2     1  UNL1       -0.4540
     14  C          9.3310   -3.6980   -2.3100 C.3     1  UNL1        0.4680
@<TRIPOS>BOND
     1    13    11    1
     2    13    14    1
     3     9    11    2
     4     9     7    1
     5    11    10    1
     6     7     6    2
     7    14    12    1
     8    10    12    1
     9    10     8    2
    10     6     8    1
    11     6     5    1
    12     5     1    1
    13     1     2    1
    14     2     4    2
    15     2     3    1
