MODEL 1
REMARK VINA RESULT:      -7.6      0.000      0.000
REMARK SMILES CC(=O)CCc1ccc2c(c1)OCO2
REMARK SMILES IDX 4 1 2 2 1 3 3 4 5 5 6 6 7 7 11 8 8 9 10 10 9 11 12 12 14 13
REMARK SMILES IDX 13 14
REMARK H PARENT
REMARK Flexibility Score: inf
ROOT
ATOM      1  C   UNL     1       5.515   1.901   1.275  1.00  0.00     0.080 C 
ENDROOT
BRANCH   1   2
ATOM      2  C   UNL     1       5.072   0.680   2.005  1.00  0.00     0.130 C 
ATOM      3  C   UNL     1       5.959  -0.504   2.158  1.00  0.00     0.087 C 
ATOM      4  O   UNL     1       3.959   0.617   2.502  1.00  0.00    -0.300 OA
ENDBRANCH   1   2
BRANCH   1   5
ATOM      5  C   UNL     1       5.391   1.720  -0.225  1.00  0.00     0.043 C 
BRANCH   5   6
ATOM      6  C   UNL     1       6.561   1.024  -0.790  1.00  0.00    -0.044 A 
ATOM      7  C   UNL     1       7.866   1.465  -0.544  1.00  0.00     0.008 A 
ATOM      8  C   UNL     1       6.377  -0.090  -1.577  1.00  0.00     0.054 A 
ATOM      9  C   UNL     1       8.925   0.771  -1.100  1.00  0.00     0.051 A 
ATOM     10  C   UNL     1       7.451  -0.789  -2.137  1.00  0.00     0.166 A 
ATOM     11  C   UNL     1       8.736  -0.354  -1.896  1.00  0.00     0.165 A 
ATOM     12  O   UNL     1       7.529  -1.906  -2.941  1.00  0.00    -0.454 OA
ATOM     13  O   UNL     1       9.584  -1.223  -2.565  1.00  0.00    -0.454 OA
ATOM     14  C   UNL     1       8.866  -2.274  -3.165  1.00  0.00     0.468 C 
ENDBRANCH   5   6
ENDBRANCH   1   5
TORSDOF 3
ENDMDL
MODEL 2
REMARK VINA RESULT:      -7.4      1.934      2.400
REMARK SMILES CC(=O)CCc1ccc2c(c1)OCO2
REMARK SMILES IDX 4 1 2 2 1 3 3 4 5 5 6 6 7 7 11 8 8 9 10 10 9 11 12 12 14 13
REMARK SMILES IDX 13 14
REMARK H PARENT
REMARK Flexibility Score: inf
ROOT
ATOM      1  C   UNL     1       5.775   1.370  -0.279  1.00  0.00     0.080 C 
ENDROOT
BRANCH   1   2
ATOM      2  C   UNL     1       5.177   1.266   1.082  1.00  0.00     0.130 C 
ATOM      3  C   UNL     1       5.428   0.091   1.958  1.00  0.00     0.087 C 
ATOM      4  O   UNL     1       4.457   2.150   1.518  1.00  0.00    -0.300 OA
ENDBRANCH   1   2
BRANCH   1   5
ATOM      5  C   UNL     1       7.270   1.120  -0.243  1.00  0.00     0.043 C 
BRANCH   5   6
ATOM      6  C   UNL     1       7.621  -0.179  -0.844  1.00  0.00    -0.044 A 
ATOM      7  C   UNL     1       7.650  -0.361  -2.231  1.00  0.00     0.008 A 
ATOM      8  C   UNL     1       7.933  -1.245  -0.031  1.00  0.00     0.054 A 
ATOM      9  C   UNL     1       7.988  -1.602  -2.738  1.00  0.00     0.051 A 
ATOM     10  C   UNL     1       8.275  -2.498  -0.548  1.00  0.00     0.166 A 
ATOM     11  C   UNL     1       8.302  -2.678  -1.913  1.00  0.00     0.165 A 
ATOM     12  O   UNL     1       8.620  -3.696   0.041  1.00  0.00    -0.454 OA
ATOM     13  O   UNL     1       8.668  -3.996  -2.136  1.00  0.00    -0.454 OA
ATOM     14  C   UNL     1       8.966  -4.652  -0.927  1.00  0.00     0.468 C 
ENDBRANCH   5   6
ENDBRANCH   1   5
TORSDOF 3
ENDMDL
MODEL 3
REMARK VINA RESULT:      -7.2      2.084      2.615
REMARK SMILES CC(=O)CCc1ccc2c(c1)OCO2
REMARK SMILES IDX 4 1 2 2 1 3 3 4 5 5 6 6 7 7 11 8 8 9 10 10 9 11 12 12 14 13
REMARK SMILES IDX 13 14
REMARK H PARENT
REMARK Flexibility Score: inf
ROOT
ATOM      1  C   UNL     1       5.588   0.036   1.942  1.00  0.00     0.080 C 
ENDROOT
BRANCH   1   2
ATOM      2  C   UNL     1       4.677   1.170   1.622  1.00  0.00     0.130 C 
ATOM      3  C   UNL     1       4.961   2.109   0.504  1.00  0.00     0.087 C 
ATOM      4  O   UNL     1       3.663   1.363   2.274  1.00  0.00    -0.300 OA
ENDBRANCH   1   2
BRANCH   1   5
ATOM      5  C   UNL     1       6.992   0.298   1.435  1.00  0.00     0.043 C 
BRANCH   5   6
ATOM      6  C   UNL     1       7.392  -0.677   0.405  1.00  0.00    -0.044 A 
ATOM      7  C   UNL     1       7.285  -0.387  -0.960  1.00  0.00     0.008 A 
ATOM      8  C   UNL     1       7.887  -1.904   0.783  1.00  0.00     0.054 A 
ATOM      9  C   UNL     1       7.677  -1.341  -1.881  1.00  0.00     0.051 A 
ATOM     10  C   UNL     1       8.282  -2.865  -0.152  1.00  0.00     0.166 A 
ATOM     11  C   UNL     1       8.176  -2.581  -1.495  1.00  0.00     0.165 A 
ATOM     12  O   UNL     1       8.797  -4.139  -0.031  1.00  0.00    -0.454 OA
ATOM     13  O   UNL     1       8.633  -3.697  -2.179  1.00  0.00    -0.454 OA
ATOM     14  C   UNL     1       9.121  -4.673  -1.289  1.00  0.00     0.468 C 
ENDBRANCH   5   6
ENDBRANCH   1   5
TORSDOF 3
ENDMDL
MODEL 4
REMARK VINA RESULT:      -7.1      1.258      1.473
REMARK SMILES CC(=O)CCc1ccc2c(c1)OCO2
REMARK SMILES IDX 4 1 2 2 1 3 3 4 5 5 6 6 7 7 11 8 8 9 10 10 9 11 12 12 14 13
REMARK SMILES IDX 13 14
REMARK H PARENT
REMARK Flexibility Score: inf
ROOT
ATOM      1  C   UNL     1       6.375   1.169   0.957  1.00  0.00     0.080 C 
ENDROOT
BRANCH   1   2
ATOM      2  C   UNL     1       5.637   0.355   1.963  1.00  0.00     0.130 C 
ATOM      3  C   UNL     1       6.224  -0.878   2.552  1.00  0.00     0.087 C 
ATOM      4  O   UNL     1       4.521   0.679   2.334  1.00  0.00    -0.300 OA
ENDBRANCH   1   2
BRANCH   1   5
ATOM      5  C   UNL     1       5.865   0.906  -0.446  1.00  0.00     0.043 C 
BRANCH   5   6
ATOM      6  C   UNL     1       6.810   0.085  -1.225  1.00  0.00    -0.044 A 
ATOM      7  C   UNL     1       7.478   0.599  -2.343  1.00  0.00     0.008 A 
ATOM      8  C   UNL     1       7.050  -1.218  -0.853  1.00  0.00     0.054 A 
ATOM      9  C   UNL     1       8.354  -0.217  -3.035  1.00  0.00     0.051 A 
ATOM     10  C   UNL     1       7.937  -2.039  -1.555  1.00  0.00     0.166 A 
ATOM     11  C   UNL     1       8.594  -1.534  -2.656  1.00  0.00     0.165 A 
ATOM     12  O   UNL     1       8.340  -3.347  -1.388  1.00  0.00    -0.454 OA
ATOM     13  O   UNL     1       9.395  -2.553  -3.146  1.00  0.00    -0.454 OA
ATOM     14  C   UNL     1       9.334  -3.691  -2.319  1.00  0.00     0.468 C 
ENDBRANCH   5   6
ENDBRANCH   1   5
TORSDOF 3
ENDMDL
MODEL 5
REMARK VINA RESULT:      -6.8      1.189      5.158
REMARK SMILES CC(=O)CCc1ccc2c(c1)OCO2
REMARK SMILES IDX 4 1 2 2 1 3 3 4 5 5 6 6 7 7 11 8 8 9 10 10 9 11 12 12 14 13
REMARK SMILES IDX 13 14
REMARK H PARENT
REMARK Flexibility Score: inf
ROOT
ATOM      1  C   UNL     1       8.334   0.211  -2.659  1.00  0.00     0.080 C 
ENDROOT
BRANCH   1   2
ATOM      2  C   UNL     1       8.014  -1.242  -2.737  1.00  0.00     0.130 C 
ATOM      3  C   UNL     1       9.062  -2.259  -3.019  1.00  0.00     0.087 C 
ATOM      4  O   UNL     1       6.872  -1.641  -2.571  1.00  0.00    -0.300 OA
ENDBRANCH   1   2
BRANCH   1   5
ATOM      5  C   UNL     1       8.854   0.586  -1.286  1.00  0.00     0.043 C 
BRANCH   5   6
ATOM      6  C   UNL     1       7.817   0.439  -0.249  1.00  0.00    -0.044 A 
ATOM      7  C   UNL     1       7.919  -0.527   0.758  1.00  0.00     0.008 A 
ATOM      8  C   UNL     1       6.718   1.268  -0.262  1.00  0.00     0.054 A 
ATOM      9  C   UNL     1       6.915  -0.618   1.705  1.00  0.00     0.051 A 
ATOM     10  C   UNL     1       5.706   1.172   0.698  1.00  0.00     0.166 A 
ATOM     11  C   UNL     1       5.805   0.221   1.689  1.00  0.00     0.165 A 
ATOM     12  O   UNL     1       4.532   1.867   0.898  1.00  0.00    -0.454 OA
ATOM     13  O   UNL     1       4.678   0.354   2.486  1.00  0.00    -0.454 OA
ATOM     14  C   UNL     1       3.890   1.445   2.074  1.00  0.00     0.468 C 
ENDBRANCH   5   6
ENDBRANCH   1   5
TORSDOF 3
ENDMDL
