@<TRIPOS>MOLECULE
/home/cewinharhar/GITHUB/reincatalyze/data/processed/docking_pred/2023-May-24-1506_sub9_nm5_bs15_s42_ex16_mel10_mts10000_k50_ec02_g099_lra3e-4_lrc3e-3/c054a7f490e8e5c171bc57af56a9ae5cb4d717f8_ligand_9.pdbqt
 14 15 0 0 0
SMALL
GASTEIGER

@<TRIPOS>ATOM
      1  C          6.3750    1.1690    0.9570 C.3     1  UNL1        0.0800
      2  C          5.6370    0.3550    1.9630 C.2     1  UNL1        0.1300
      3  C          6.2240   -0.8780    2.5520 C.3     1  UNL1        0.0870
      4  O          4.5210    0.6790    2.3340 O.2     1  UNL1       -0.3000
      5  C          5.8650    0.9060   -0.4460 C.3     1  UNL1        0.0430
      6  C          6.8100    0.0850   -1.2250 C.2     1  UNL1       -0.0440
      7  C          7.4780    0.5990   -2.3430 C.2     1  UNL1        0.0080
      8  C          7.0500   -1.2180   -0.8530 C.2     1  UNL1        0.0540
      9  C          8.3540   -0.2170   -3.0350 C.2     1  UNL1        0.0510
     10  C          7.9370   -2.0390   -1.5550 C.2     1  UNL1        0.1660
     11  C          8.5940   -1.5340   -2.6560 C.2     1  UNL1        0.1650
     12  O          8.3400   -3.3470   -1.3880 O.2     1  UNL1       -0.4540
     13  O          9.3950   -2.5530   -3.1460 O.2     1  UNL1       -0.4540
     14  C          9.3340   -3.6910   -2.3190 C.3     1  UNL1        0.4680
@<TRIPOS>BOND
     1    13    11    1
     2    13    14    1
     3     9    11    2
     4     9     7    1
     5    11    10    1
     6     7     6    2
     7    14    12    1
     8    10    12    1
     9    10     8    2
    10     6     8    1
    11     6     5    1
    12     5     1    1
    13     1     2    1
    14     2     4    2
    15     2     3    1
