@<TRIPOS>MOLECULE
/home/cewinharhar/GITHUB/reincatalyze/data/processed/docking_pred/2023-May-24-1506_sub9_nm5_bs15_s42_ex16_mel10_mts10000_k50_ec02_g099_lra3e-4_lrc3e-3/c054a7f490e8e5c171bc57af56a9ae5cb4d717f8_ligand_9.pdbqt
 14 15 0 0 0
SMALL
GASTEIGER

@<TRIPOS>ATOM
      1  C          8.3340    0.2110   -2.6590 C.3     1  UNL1        0.0800
      2  C          8.0140   -1.2420   -2.7370 C.2     1  UNL1        0.1300
      3  C          9.0620   -2.2590   -3.0190 C.3     1  UNL1        0.0870
      4  O          6.8720   -1.6410   -2.5710 O.2     1  UNL1       -0.3000
      5  C          8.8540    0.5860   -1.2860 C.3     1  UNL1        0.0430
      6  C          7.8170    0.4390   -0.2490 C.2     1  UNL1       -0.0440
      7  C          7.9190   -0.5270    0.7580 C.2     1  UNL1        0.0080
      8  C          6.7180    1.2680   -0.2620 C.2     1  UNL1        0.0540
      9  C          6.9150   -0.6180    1.7050 C.2     1  UNL1        0.0510
     10  C          5.7060    1.1720    0.6980 C.2     1  UNL1        0.1660
     11  C          5.8050    0.2210    1.6890 C.2     1  UNL1        0.1650
     12  O          4.5320    1.8670    0.8980 O.2     1  UNL1       -0.4540
     13  O          4.6780    0.3540    2.4860 O.2     1  UNL1       -0.4540
     14  C          3.8900    1.4450    2.0740 C.3     1  UNL1        0.4680
@<TRIPOS>BOND
     1     3     2    1
     2     2     1    1
     3     2     4    2
     4     1     5    1
     5     5     6    1
     6     8     6    2
     7     8    10    1
     8     6     7    1
     9    10    12    1
    10    10    11    2
    11     7     9    2
    12    12    14    1
    13    11     9    1
    14    11    13    1
    15    14    13    1
