@<TRIPOS>MOLECULE
/home/cewinharhar/GITHUB/reincatalyze/data/processed/docking_pred/2023-May-24-1506_sub9_nm5_bs15_s42_ex16_mel10_mts10000_k50_ec02_g099_lra3e-4_lrc3e-3/c1e407d4abf657a23e7fbbacfb8eba162f3b2d32_ligand_9.pdbqt
 14 15 0 0 0
SMALL
GASTEIGER

@<TRIPOS>ATOM
      1  C          5.7610    1.3240   -0.3790 C.3     1  UNL1        0.0800
      2  C          5.1980    1.2740    0.9990 C.2     1  UNL1        0.1300
      3  C          5.5210    0.1630    1.9350 C.3     1  UNL1        0.0870
      4  O          4.4500    2.1500    1.4030 O.2     1  UNL1       -0.3000
      5  C          7.2600    1.0960   -0.3700 C.3     1  UNL1        0.0430
      6  C          7.6190   -0.2040   -0.9660 C.2     1  UNL1       -0.0440
      7  C          7.6530   -0.3900   -2.3520 C.2     1  UNL1        0.0080
      8  C          7.9320   -1.2660   -0.1480 C.2     1  UNL1        0.0540
      9  C          7.9980   -1.6320   -2.8540 C.2     1  UNL1        0.0510
     10  C          8.2800   -2.5190   -0.6600 C.2     1  UNL1        0.1660
     11  C          8.3130   -2.7030   -2.0250 C.2     1  UNL1        0.1650
     12  O          8.6270   -3.7140   -0.0660 O.2     1  UNL1       -0.4540
     13  O          8.6840   -4.0210   -2.2420 O.2     1  UNL1       -0.4540
     14  C          8.9810   -4.6720   -1.0300 C.3     1  UNL1        0.4680
@<TRIPOS>BOND
     1     9     7    1
     2     9    11    2
     3     7     6    2
     4    13    11    1
     5    13    14    1
     6    11    10    1
     7    14    12    1
     8     6     5    1
     9     6     8    1
    10    10     8    2
    11    10    12    1
    12     1     5    1
    13     1     2    1
    14     2     4    2
    15     2     3    1
