@<TRIPOS>MOLECULE
/home/cewinharhar/GITHUB/reincatalyze/data/processed/docking_pred/2023-May-24-1506_sub9_nm5_bs15_s42_ex16_mel10_mts10000_k50_ec02_g099_lra3e-4_lrc3e-3/c29b145d1c4cebd65a3cbcdf5f53bb88223b6c47_ligand_9.pdbqt
 14 15 0 0 0
SMALL
GASTEIGER

@<TRIPOS>ATOM
      1  C          5.2970   -0.0920    1.9770 C.3     1  UNL1        0.0800
      2  C          4.4340    1.1090    1.7970 C.2     1  UNL1        0.1300
      3  C          4.7400    2.1440    0.7730 C.3     1  UNL1        0.0870
      4  O          3.4450    1.2800    2.4910 O.2     1  UNL1       -0.3000
      5  C          6.7670    0.2750    1.9320 C.3     1  UNL1        0.0430
      6  C          7.3740   -0.0560    0.6310 C.2     1  UNL1       -0.0440
      7  C          7.8640    0.9390   -0.2230 C.2     1  UNL1        0.0080
      8  C          7.4670   -1.3710    0.2360 C.2     1  UNL1        0.0540
      9  C          8.4240    0.5690   -1.4320 C.2     1  UNL1        0.0510
     10  C          8.0350   -1.7400   -0.9870 C.2     1  UNL1        0.1660
     11  C          8.5170   -0.7620   -1.8290 C.2     1  UNL1        0.1650
     12  O          8.2400   -2.9590   -1.5990 O.2     1  UNL1       -0.4540
     13  O          9.0140   -1.4070   -2.9500 O.2     1  UNL1       -0.4540
     14  C          8.9410   -2.8050   -2.8060 C.3     1  UNL1        0.4680
@<TRIPOS>BOND
     1    13    14    1
     2    13    11    1
     3    14    12    1
     4    11     9    2
     5    11    10    1
     6    12    10    1
     7     9     7    1
     8    10     8    2
     9     7     6    2
    10     8     6    1
    11     6     5    1
    12     3     2    1
    13     2     1    1
    14     2     4    2
    15     5     1    1
