MODEL 1
REMARK VINA RESULT:      -7.7      0.000      0.000
REMARK SMILES CC(=O)CCc1ccc2c(c1)OCO2
REMARK SMILES IDX 4 1 2 2 1 3 3 4 5 5 6 6 7 7 11 8 8 9 10 10 9 11 12 12 14 13
REMARK SMILES IDX 13 14
REMARK H PARENT
REMARK Flexibility Score: inf
ROOT
ATOM      1  C   UNL     1       5.604   2.149   1.378  1.00  0.00     0.080 C 
ENDROOT
BRANCH   1   2
ATOM      2  C   UNL     1       4.838   1.078   2.073  1.00  0.00     0.130 C 
ATOM      3  C   UNL     1       5.350  -0.316   2.163  1.00  0.00     0.087 C 
ATOM      4  O   UNL     1       3.759   1.315   2.593  1.00  0.00    -0.300 OA
ENDBRANCH   1   2
BRANCH   1   5
ATOM      5  C   UNL     1       5.490   2.018  -0.128  1.00  0.00     0.043 C 
BRANCH   5   6
ATOM      6  C   UNL     1       6.608   1.243  -0.695  1.00  0.00    -0.044 A 
ATOM      7  C   UNL     1       7.941   1.606  -0.469  1.00  0.00     0.008 A 
ATOM      8  C   UNL     1       6.347   0.132  -1.465  1.00  0.00     0.054 A 
ATOM      9  C   UNL     1       8.948   0.840  -1.027  1.00  0.00     0.051 A 
ATOM     10  C   UNL     1       7.369  -0.639  -2.025  1.00  0.00     0.166 A 
ATOM     11  C   UNL     1       8.681  -0.282  -1.805  1.00  0.00     0.165 A 
ATOM     12  O   UNL     1       7.368  -1.770  -2.815  1.00  0.00    -0.454 OA
ATOM     13  O   UNL     1       9.466  -1.211  -2.469  1.00  0.00    -0.454 OA
ATOM     14  C   UNL     1       8.677  -2.223  -3.047  1.00  0.00     0.468 C 
ENDBRANCH   5   6
ENDBRANCH   1   5
TORSDOF 3
ENDMDL
MODEL 2
REMARK VINA RESULT:      -7.2      2.089      2.592
REMARK SMILES CC(=O)CCc1ccc2c(c1)OCO2
REMARK SMILES IDX 4 1 2 2 1 3 3 4 5 5 6 6 7 7 11 8 8 9 10 10 9 11 12 12 14 13
REMARK SMILES IDX 13 14
REMARK H PARENT
REMARK Flexibility Score: inf
ROOT
ATOM      1  C   UNL     1       5.460  -0.017   2.078  1.00  0.00     0.080 C 
ENDROOT
BRANCH   1   2
ATOM      2  C   UNL     1       4.622   1.195   1.856  1.00  0.00     0.130 C 
ATOM      3  C   UNL     1       4.907   2.149   0.752  1.00  0.00     0.087 C 
ATOM      4  O   UNL     1       3.672   1.441   2.582  1.00  0.00    -0.300 OA
ENDBRANCH   1   2
BRANCH   1   5
ATOM      5  C   UNL     1       6.895   0.221   1.654  1.00  0.00     0.043 C 
BRANCH   5   6
ATOM      6  C   UNL     1       7.300  -0.683   0.563  1.00  0.00    -0.044 A 
ATOM      7  C   UNL     1       7.159  -0.320  -0.781  1.00  0.00     0.008 A 
ATOM      8  C   UNL     1       7.834  -1.916   0.862  1.00  0.00     0.054 A 
ATOM      9  C   UNL     1       7.557  -1.210  -1.762  1.00  0.00     0.051 A 
ATOM     10  C   UNL     1       8.236  -2.812  -0.134  1.00  0.00     0.166 A 
ATOM     11  C   UNL     1       8.096  -2.456  -1.457  1.00  0.00     0.165 A 
ATOM     12  O   UNL     1       8.785  -4.076  -0.095  1.00  0.00    -0.454 OA
ATOM     13  O   UNL     1       8.568  -3.519  -2.210  1.00  0.00    -0.454 OA
ATOM     14  C   UNL     1       9.099  -4.530  -1.386  1.00  0.00     0.468 C 
ENDBRANCH   5   6
ENDBRANCH   1   5
TORSDOF 3
ENDMDL
MODEL 3
REMARK VINA RESULT:      -7.1      0.975      1.089
REMARK SMILES CC(=O)CCc1ccc2c(c1)OCO2
REMARK SMILES IDX 4 1 2 2 1 3 3 4 5 5 6 6 7 7 11 8 8 9 10 10 9 11 12 12 14 13
REMARK SMILES IDX 13 14
REMARK H PARENT
REMARK Flexibility Score: inf
ROOT
ATOM      1  C   UNL     1       5.007   0.794   1.495  1.00  0.00     0.080 C 
ENDROOT
BRANCH   1   2
ATOM      2  C   UNL     1       6.068   0.205   2.359  1.00  0.00     0.130 C 
ATOM      3  C   UNL     1       6.422  -1.238   2.287  1.00  0.00     0.087 C 
ATOM      4  O   UNL     1       6.682   0.896   3.156  1.00  0.00    -0.300 OA
ENDBRANCH   1   2
BRANCH   1   5
ATOM      5  C   UNL     1       5.599   1.711   0.443  1.00  0.00     0.043 C 
BRANCH   5   6
ATOM      6  C   UNL     1       6.667   1.044  -0.323  1.00  0.00    -0.044 A 
ATOM      7  C   UNL     1       7.983   1.521  -0.314  1.00  0.00     0.008 A 
ATOM      8  C   UNL     1       6.376  -0.076  -1.068  1.00  0.00     0.054 A 
ATOM      9  C   UNL     1       8.944   0.854  -1.052  1.00  0.00     0.051 A 
ATOM     10  C   UNL     1       7.351  -0.748  -1.811  1.00  0.00     0.166 A 
ATOM     11  C   UNL     1       8.645  -0.278  -1.804  1.00  0.00     0.165 A 
ATOM     12  O   UNL     1       7.313  -1.864  -2.620  1.00  0.00    -0.454 OA
ATOM     13  O   UNL     1       9.384  -1.126  -2.615  1.00  0.00    -0.454 OA
ATOM     14  C   UNL     1       8.598  -2.197  -3.080  1.00  0.00     0.468 C 
ENDBRANCH   5   6
ENDBRANCH   1   5
TORSDOF 3
ENDMDL
MODEL 4
REMARK VINA RESULT:      -7.1      1.693      2.093
REMARK SMILES CC(=O)CCc1ccc2c(c1)OCO2
REMARK SMILES IDX 4 1 2 2 1 3 3 4 5 5 6 6 7 7 11 8 8 9 10 10 9 11 12 12 14 13
REMARK SMILES IDX 13 14
REMARK H PARENT
REMARK Flexibility Score: inf
ROOT
ATOM      1  C   UNL     1       5.435   1.399   0.335  1.00  0.00     0.080 C 
ENDROOT
BRANCH   1   2
ATOM      2  C   UNL     1       5.249   1.214   1.801  1.00  0.00     0.130 C 
ATOM      3  C   UNL     1       6.360   0.754   2.677  1.00  0.00     0.087 C 
ATOM      4  O   UNL     1       4.171   1.434   2.329  1.00  0.00    -0.300 OA
ENDBRANCH   1   2
BRANCH   1   5
ATOM      5  C   UNL     1       6.904   1.408  -0.037  1.00  0.00     0.043 C 
BRANCH   5   6
ATOM      6  C   UNL     1       7.299   0.171  -0.734  1.00  0.00    -0.044 A 
ATOM      7  C   UNL     1       7.259   0.072  -2.130  1.00  0.00     0.008 A 
ATOM      8  C   UNL     1       7.720  -0.918  -0.006  1.00  0.00     0.054 A 
ATOM      9  C   UNL     1       7.642  -1.114  -2.729  1.00  0.00     0.051 A 
ATOM     10  C   UNL     1       8.107  -2.115  -0.617  1.00  0.00     0.166 A 
ATOM     11  C   UNL     1       8.067  -2.214  -1.990  1.00  0.00     0.165 A 
ATOM     12  O   UNL     1       8.556  -3.321  -0.121  1.00  0.00    -0.454 OA
ATOM     13  O   UNL     1       8.498  -3.491  -2.312  1.00  0.00    -0.454 OA
ATOM     14  C   UNL     1       8.904  -4.196  -1.163  1.00  0.00     0.468 C 
ENDBRANCH   5   6
ENDBRANCH   1   5
TORSDOF 3
ENDMDL
MODEL 5
REMARK VINA RESULT:      -7.0      1.244      5.222
REMARK SMILES CC(=O)CCc1ccc2c(c1)OCO2
REMARK SMILES IDX 4 1 2 2 1 3 3 4 5 5 6 6 7 7 11 8 8 9 10 10 9 11 12 12 14 13
REMARK SMILES IDX 13 14
REMARK H PARENT
REMARK Flexibility Score: inf
ROOT
ATOM      1  C   UNL     1       8.279   0.226  -2.643  1.00  0.00     0.080 C 
ENDROOT
BRANCH   1   2
ATOM      2  C   UNL     1       8.007  -1.236  -2.743  1.00  0.00     0.130 C 
ATOM      3  C   UNL     1       9.092  -2.214  -3.026  1.00  0.00     0.087 C 
ATOM      4  O   UNL     1       6.878  -1.675  -2.596  1.00  0.00    -0.300 OA
ENDBRANCH   1   2
BRANCH   1   5
ATOM      5  C   UNL     1       8.809   0.594  -1.272  1.00  0.00     0.043 C 
BRANCH   5   6
ATOM      6  C   UNL     1       7.777   0.451  -0.230  1.00  0.00    -0.044 A 
ATOM      7  C   UNL     1       7.852  -0.552   0.744  1.00  0.00     0.008 A 
ATOM      8  C   UNL     1       6.709   1.319  -0.203  1.00  0.00     0.054 A 
ATOM      9  C   UNL     1       6.855  -0.637   1.698  1.00  0.00     0.051 A 
ATOM     10  C   UNL     1       5.704   1.229   0.764  1.00  0.00     0.166 A 
ATOM     11  C   UNL     1       5.777   0.242   1.722  1.00  0.00     0.165 A 
ATOM     12  O   UNL     1       4.558   1.960   1.000  1.00  0.00    -0.454 OA
ATOM     13  O   UNL     1       4.664   0.390   2.535  1.00  0.00    -0.454 OA
ATOM     14  C   UNL     1       3.913   1.522   2.168  1.00  0.00     0.468 C 
ENDBRANCH   5   6
ENDBRANCH   1   5
TORSDOF 3
ENDMDL
