MODEL 1
REMARK VINA RESULT:      -7.7      0.000      0.000
REMARK SMILES CC(=O)CCc1ccc2c(c1)OCO2
REMARK SMILES IDX 4 1 2 2 1 3 3 4 5 5 6 6 7 7 11 8 8 9 10 10 9 11 12 12 14 13
REMARK SMILES IDX 13 14
REMARK H PARENT
REMARK Flexibility Score: inf
ROOT
ATOM      1  C   UNL     1       5.514   1.941   1.256  1.00  0.00     0.080 C 
ENDROOT
BRANCH   1   2
ATOM      2  C   UNL     1       5.091   0.723   2.001  1.00  0.00     0.130 C 
ATOM      3  C   UNL     1       6.003  -0.439   2.179  1.00  0.00     0.087 C 
ATOM      4  O   UNL     1       3.976   0.643   2.491  1.00  0.00    -0.300 OA
ENDBRANCH   1   2
BRANCH   1   5
ATOM      5  C   UNL     1       5.389   1.741  -0.242  1.00  0.00     0.043 C 
BRANCH   5   6
ATOM      6  C   UNL     1       6.557   1.034  -0.797  1.00  0.00    -0.044 A 
ATOM      7  C   UNL     1       7.864   1.460  -0.535  1.00  0.00     0.008 A 
ATOM      8  C   UNL     1       6.369  -0.073  -1.592  1.00  0.00     0.054 A 
ATOM      9  C   UNL     1       8.922   0.757  -1.083  1.00  0.00     0.051 A 
ATOM     10  C   UNL     1       7.442  -0.781  -2.143  1.00  0.00     0.166 A 
ATOM     11  C   UNL     1       8.728  -0.362  -1.887  1.00  0.00     0.165 A 
ATOM     12  O   UNL     1       7.515  -1.895  -2.953  1.00  0.00    -0.454 OA
ATOM     13  O   UNL     1       9.574  -1.237  -2.551  1.00  0.00    -0.454 OA
ATOM     14  C   UNL     1       8.850  -2.277  -3.164  1.00  0.00     0.468 C 
ENDBRANCH   5   6
ENDBRANCH   1   5
TORSDOF 3
ENDMDL
MODEL 2
REMARK VINA RESULT:      -7.4      1.829      2.281
REMARK SMILES CC(=O)CCc1ccc2c(c1)OCO2
REMARK SMILES IDX 4 1 2 2 1 3 3 4 5 5 6 6 7 7 11 8 8 9 10 10 9 11 12 12 14 13
REMARK SMILES IDX 13 14
REMARK H PARENT
REMARK Flexibility Score: inf
ROOT
ATOM      1  C   UNL     1       5.718   1.458  -0.267  1.00  0.00     0.080 C 
ENDROOT
BRANCH   1   2
ATOM      2  C   UNL     1       5.071   1.286   1.064  1.00  0.00     0.130 C 
ATOM      3  C   UNL     1       5.404   0.140   1.952  1.00  0.00     0.087 C 
ATOM      4  O   UNL     1       4.243   2.087   1.466  1.00  0.00    -0.300 OA
ENDBRANCH   1   2
BRANCH   1   5
ATOM      5  C   UNL     1       7.209   1.193  -0.192  1.00  0.00     0.043 C 
BRANCH   5   6
ATOM      6  C   UNL     1       7.572  -0.073  -0.854  1.00  0.00    -0.044 A 
ATOM      7  C   UNL     1       7.595  -0.191  -2.248  1.00  0.00     0.008 A 
ATOM      8  C   UNL     1       7.902  -1.171  -0.092  1.00  0.00     0.054 A 
ATOM      9  C   UNL     1       7.945  -1.404  -2.813  1.00  0.00     0.051 A 
ATOM     10  C   UNL     1       8.255  -2.395  -0.668  1.00  0.00     0.166 A 
ATOM     11  C   UNL     1       8.277  -2.512  -2.040  1.00  0.00     0.165 A 
ATOM     12  O   UNL     1       8.617  -3.614  -0.136  1.00  0.00    -0.454 OA
ATOM     13  O   UNL     1       8.656  -3.815  -2.325  1.00  0.00    -0.454 OA
ATOM     14  C   UNL     1       8.970  -4.522  -1.148  1.00  0.00     0.468 C 
ENDBRANCH   5   6
ENDBRANCH   1   5
TORSDOF 3
ENDMDL
MODEL 3
REMARK VINA RESULT:      -7.2      2.072      2.640
REMARK SMILES CC(=O)CCc1ccc2c(c1)OCO2
REMARK SMILES IDX 4 1 2 2 1 3 3 4 5 5 6 6 7 7 11 8 8 9 10 10 9 11 12 12 14 13
REMARK SMILES IDX 13 14
REMARK H PARENT
REMARK Flexibility Score: inf
ROOT
ATOM      1  C   UNL     1       5.466  -0.041   1.998  1.00  0.00     0.080 C 
ENDROOT
BRANCH   1   2
ATOM      2  C   UNL     1       4.612   1.152   1.746  1.00  0.00     0.130 C 
ATOM      3  C   UNL     1       4.931   2.129   0.671  1.00  0.00     0.087 C 
ATOM      4  O   UNL     1       3.617   1.365   2.421  1.00  0.00    -0.300 OA
ENDBRANCH   1   2
BRANCH   1   5
ATOM      5  C   UNL     1       6.897   0.205   1.562  1.00  0.00     0.043 C 
BRANCH   5   6
ATOM      6  C   UNL     1       7.316  -0.735   0.506  1.00  0.00    -0.044 A 
ATOM      7  C   UNL     1       7.184  -0.420  -0.851  1.00  0.00     0.008 A 
ATOM      8  C   UNL     1       7.852  -1.955   0.853  1.00  0.00     0.054 A 
ATOM      9  C   UNL     1       7.595  -1.341  -1.797  1.00  0.00     0.051 A 
ATOM     10  C   UNL     1       8.266  -2.883  -0.108  1.00  0.00     0.166 A 
ATOM     11  C   UNL     1       8.136  -2.573  -1.443  1.00  0.00     0.165 A 
ATOM     12  O   UNL     1       8.820  -4.142  -0.020  1.00  0.00    -0.454 OA
ATOM     13  O   UNL     1       8.620  -3.660  -2.155  1.00  0.00    -0.454 OA
ATOM     14  C   UNL     1       9.147  -4.639  -1.292  1.00  0.00     0.468 C 
ENDBRANCH   5   6
ENDBRANCH   1   5
TORSDOF 3
ENDMDL
MODEL 4
REMARK VINA RESULT:      -7.1      1.251      1.455
REMARK SMILES CC(=O)CCc1ccc2c(c1)OCO2
REMARK SMILES IDX 4 1 2 2 1 3 3 4 5 5 6 6 7 7 11 8 8 9 10 10 9 11 12 12 14 13
REMARK SMILES IDX 13 14
REMARK H PARENT
REMARK Flexibility Score: inf
ROOT
ATOM      1  C   UNL     1       6.359   1.240   0.926  1.00  0.00     0.080 C 
ENDROOT
BRANCH   1   2
ATOM      2  C   UNL     1       5.653   0.401   1.935  1.00  0.00     0.130 C 
ATOM      3  C   UNL     1       6.286  -0.810   2.523  1.00  0.00     0.087 C 
ATOM      4  O   UNL     1       4.528   0.687   2.310  1.00  0.00    -0.300 OA
ENDBRANCH   1   2
BRANCH   1   5
ATOM      5  C   UNL     1       5.856   0.954  -0.475  1.00  0.00     0.043 C 
BRANCH   5   6
ATOM      6  C   UNL     1       6.806   0.127  -1.239  1.00  0.00    -0.044 A 
ATOM      7  C   UNL     1       7.499   0.636  -2.344  1.00  0.00     0.008 A 
ATOM      8  C   UNL     1       7.028  -1.179  -0.865  1.00  0.00     0.054 A 
ATOM      9  C   UNL     1       8.379  -0.187  -3.022  1.00  0.00     0.051 A 
ATOM     10  C   UNL     1       7.920  -2.007  -1.553  1.00  0.00     0.166 A 
ATOM     11  C   UNL     1       8.600  -1.507  -2.641  1.00  0.00     0.165 A 
ATOM     12  O   UNL     1       8.307  -3.319  -1.381  1.00  0.00    -0.454 OA
ATOM     13  O   UNL     1       9.401  -2.533  -3.119  1.00  0.00    -0.454 OA
ATOM     14  C   UNL     1       9.314  -3.671  -2.295  1.00  0.00     0.468 C 
ENDBRANCH   5   6
ENDBRANCH   1   5
TORSDOF 3
ENDMDL
MODEL 5
REMARK VINA RESULT:      -6.9      2.003      2.659
REMARK SMILES CC(=O)CCc1ccc2c(c1)OCO2
REMARK SMILES IDX 4 1 2 2 1 3 3 4 5 5 6 6 7 7 11 8 8 9 10 10 9 11 12 12 14 13
REMARK SMILES IDX 13 14
REMARK H PARENT
REMARK Flexibility Score: inf
ROOT
ATOM      1  C   UNL     1       6.780   0.578   0.985  1.00  0.00     0.080 C 
ENDROOT
BRANCH   1   2
ATOM      2  C   UNL     1       5.431   1.102   1.337  1.00  0.00     0.130 C 
ATOM      3  C   UNL     1       4.756   2.139   0.511  1.00  0.00     0.087 C 
ATOM      4  O   UNL     1       4.837   0.693   2.321  1.00  0.00    -0.300 OA
ENDBRANCH   1   2
BRANCH   1   5
ATOM      5  C   UNL     1       7.040   0.684  -0.505  1.00  0.00     0.043 C 
BRANCH   5   6
ATOM      6  C   UNL     1       7.579  -0.572  -1.056  1.00  0.00    -0.044 A 
ATOM      7  C   UNL     1       7.861  -0.713  -2.420  1.00  0.00     0.008 A 
ATOM      8  C   UNL     1       7.816  -1.639  -0.219  1.00  0.00     0.054 A 
ATOM      9  C   UNL     1       8.366  -1.915  -2.880  1.00  0.00     0.051 A 
ATOM     10  C   UNL     1       8.327  -2.852  -0.689  1.00  0.00     0.166 A 
ATOM     11  C   UNL     1       8.604  -2.991  -2.031  1.00  0.00     0.165 A 
ATOM     12  O   UNL     1       8.644  -4.042  -0.068  1.00  0.00    -0.454 OA
ATOM     13  O   UNL     1       9.092  -4.277  -2.208  1.00  0.00    -0.454 OA
ATOM     14  C   UNL     1       9.219  -4.946  -0.976  1.00  0.00     0.468 C 
ENDBRANCH   5   6
ENDBRANCH   1   5
TORSDOF 3
ENDMDL
