@<TRIPOS>MOLECULE
/home/cewinharhar/GITHUB/reincatalyze/data/processed/docking_pred/2023-May-24-1506_sub9_nm5_bs15_s42_ex16_mel10_mts10000_k50_ec02_g099_lra3e-4_lrc3e-3/c2bbe2b0b698b4c34a14c6b9d782c5d04fb4e97c_ligand_9.pdbqt
 14 15 0 0 0
SMALL
GASTEIGER

@<TRIPOS>ATOM
      1  C          5.5140    1.9410    1.2560 C.3     1  UNL1        0.0800
      2  C          5.0910    0.7230    2.0010 C.2     1  UNL1        0.1300
      3  C          6.0030   -0.4390    2.1790 C.3     1  UNL1        0.0870
      4  O          3.9760    0.6430    2.4910 O.2     1  UNL1       -0.3000
      5  C          5.3890    1.7410   -0.2420 C.3     1  UNL1        0.0430
      6  C          6.5570    1.0340   -0.7970 C.2     1  UNL1       -0.0440
      7  C          7.8640    1.4600   -0.5350 C.2     1  UNL1        0.0080
      8  C          6.3690   -0.0730   -1.5920 C.2     1  UNL1        0.0540
      9  C          8.9220    0.7570   -1.0830 C.2     1  UNL1        0.0510
     10  C          7.4420   -0.7810   -2.1430 C.2     1  UNL1        0.1660
     11  C          8.7280   -0.3620   -1.8870 C.2     1  UNL1        0.1650
     12  O          7.5150   -1.8950   -2.9530 O.2     1  UNL1       -0.4540
     13  O          9.5740   -1.2370   -2.5510 O.2     1  UNL1       -0.4540
     14  C          8.8500   -2.2770   -3.1640 C.3     1  UNL1        0.4680
@<TRIPOS>BOND
     1    14    12    1
     2    14    13    1
     3    12    10    1
     4    13    11    1
     5    10    11    2
     6    10     8    1
     7    11     9    1
     8     8     6    2
     9     9     7    2
    10     6     7    1
    11     6     5    1
    12     5     1    1
    13     1     2    1
    14     2     3    1
    15     2     4    2
