@<TRIPOS>MOLECULE
/home/cewinharhar/GITHUB/reincatalyze/data/processed/docking_pred/2023-May-24-1506_sub9_nm5_bs15_s42_ex16_mel10_mts10000_k50_ec02_g099_lra3e-4_lrc3e-3/c2bbe2b0b698b4c34a14c6b9d782c5d04fb4e97c_ligand_9.pdbqt
 14 15 0 0 0
SMALL
GASTEIGER

@<TRIPOS>ATOM
      1  C          5.7180    1.4580   -0.2670 C.3     1  UNL1        0.0800
      2  C          5.0710    1.2860    1.0640 C.2     1  UNL1        0.1300
      3  C          5.4040    0.1400    1.9520 C.3     1  UNL1        0.0870
      4  O          4.2430    2.0870    1.4660 O.2     1  UNL1       -0.3000
      5  C          7.2090    1.1930   -0.1920 C.3     1  UNL1        0.0430
      6  C          7.5720   -0.0730   -0.8540 C.2     1  UNL1       -0.0440
      7  C          7.5950   -0.1910   -2.2480 C.2     1  UNL1        0.0080
      8  C          7.9020   -1.1710   -0.0920 C.2     1  UNL1        0.0540
      9  C          7.9450   -1.4040   -2.8130 C.2     1  UNL1        0.0510
     10  C          8.2550   -2.3950   -0.6680 C.2     1  UNL1        0.1660
     11  C          8.2770   -2.5120   -2.0400 C.2     1  UNL1        0.1650
     12  O          8.6170   -3.6140   -0.1360 O.2     1  UNL1       -0.4540
     13  O          8.6560   -3.8150   -2.3250 O.2     1  UNL1       -0.4540
     14  C          8.9700   -4.5220   -1.1480 C.3     1  UNL1        0.4680
@<TRIPOS>BOND
     1     9     7    1
     2     9    11    2
     3    13    11    1
     4    13    14    1
     5     7     6    2
     6    11    10    1
     7    14    12    1
     8     6     5    1
     9     6     8    1
    10    10    12    1
    11    10     8    2
    12     1     5    1
    13     1     2    1
    14     2     4    2
    15     2     3    1
