@<TRIPOS>MOLECULE
/home/cewinharhar/GITHUB/reincatalyze/data/processed/docking_pred/2023-May-24-1506_sub9_nm5_bs15_s42_ex16_mel10_mts10000_k50_ec02_g099_lra3e-4_lrc3e-3/c2cf7de4590cac8405b5d64b0c7519304df0e251_ligand_9.pdbqt
 14 15 0 0 0
SMALL
GASTEIGER

@<TRIPOS>ATOM
      1  C          8.2740    0.1720   -2.6580 C.3     1  UNL1        0.0800
      2  C          7.9590   -1.2820   -2.7180 C.2     1  UNL1        0.1300
      3  C          9.0100   -2.2990   -2.9910 C.3     1  UNL1        0.0870
      4  O          6.8190   -1.6840   -2.5440 O.2     1  UNL1       -0.3000
      5  C          8.8110    0.5630   -1.2950 C.3     1  UNL1        0.0430
      6  C          7.7860    0.4280   -0.2450 C.2     1  UNL1       -0.0440
      7  C          7.9250   -0.4920    0.8010 C.2     1  UNL1        0.0080
      8  C          6.6620    1.2220   -0.2820 C.2     1  UNL1        0.0540
      9  C          6.9310   -0.5740    1.7590 C.2     1  UNL1        0.0510
     10  C          5.6610    1.1350    0.6900 C.2     1  UNL1        0.1660
     11  C          5.7960    0.2300    1.7180 C.2     1  UNL1        0.1650
     12  O          4.4670    1.8020    0.8710 O.2     1  UNL1       -0.4540
     13  O          4.6720    0.3610    2.5190 O.2     1  UNL1       -0.4540
     14  C          3.8480    1.4100    2.0690 C.3     1  UNL1        0.4680
@<TRIPOS>BOND
     1     3     2    1
     2     2     1    1
     3     2     4    2
     4     1     5    1
     5     5     6    1
     6     8     6    2
     7     8    10    1
     8     6     7    1
     9    10    12    1
    10    10    11    2
    11     7     9    2
    12    12    14    1
    13    11     9    1
    14    11    13    1
    15    14    13    1
