@<TRIPOS>MOLECULE
/home/cewinharhar/GITHUB/reincatalyze/data/processed/docking_pred/2023-May-24-1506_sub9_nm5_bs15_s42_ex16_mel10_mts10000_k50_ec02_g099_lra3e-4_lrc3e-3/c2cf7de4590cac8405b5d64b0c7519304df0e251_ligand_9.pdbqt
 14 15 0 0 0
SMALL
GASTEIGER

@<TRIPOS>ATOM
      1  C          5.4600    1.9200    1.2640 C.3     1  UNL1        0.0800
      2  C          4.9660    0.7090    1.9760 C.2     1  UNL1        0.1300
      3  C          5.7790   -0.5340    2.0600 C.3     1  UNL1        0.0870
      4  O          3.8710    0.7020    2.5150 O.2     1  UNL1       -0.3000
      5  C          5.3590    1.7540   -0.2400 C.3     1  UNL1        0.0430
      6  C          6.5320    1.0510   -0.7920 C.2     1  UNL1       -0.0440
      7  C          7.8370    1.4770   -0.5190 C.2     1  UNL1        0.0080
      8  C          6.3500   -0.0520   -1.5940 C.2     1  UNL1        0.0540
      9  C          8.8980    0.7780   -1.0640 C.2     1  UNL1        0.0510
     10  C          7.4270   -0.7560   -2.1420 C.2     1  UNL1        0.1660
     11  C          8.7110   -0.3370   -1.8750 C.2     1  UNL1        0.1650
     12  O          7.5070   -1.8650   -2.9570 O.2     1  UNL1       -0.4540
     13  O          9.5630   -1.2070   -2.5380 O.2     1  UNL1       -0.4540
     14  C          8.8440   -2.2440   -3.1620 C.3     1  UNL1        0.4680
@<TRIPOS>BOND
     1    14    12    1
     2    14    13    1
     3    12    10    1
     4    13    11    1
     5    10    11    2
     6    10     8    1
     7    11     9    1
     8     8     6    2
     9     9     7    2
    10     6     7    1
    11     6     5    1
    12     5     1    1
    13     1     2    1
    14     2     3    1
    15     2     4    2
