MODEL 1
REMARK VINA RESULT:      -7.7      0.000      0.000
REMARK SMILES CC(=O)CCc1ccc2c(c1)OCO2
REMARK SMILES IDX 4 1 2 2 1 3 3 4 5 5 6 6 7 7 11 8 8 9 10 10 9 11 12 12 14 13
REMARK SMILES IDX 13 14
REMARK H PARENT
REMARK Flexibility Score: inf
ROOT
ATOM      1  C   UNL     1       5.460   1.920   1.264  1.00  0.00     0.080 C 
ENDROOT
BRANCH   1   2
ATOM      2  C   UNL     1       4.966   0.709   1.976  1.00  0.00     0.130 C 
ATOM      3  C   UNL     1       5.779  -0.534   2.060  1.00  0.00     0.087 C 
ATOM      4  O   UNL     1       3.871   0.702   2.515  1.00  0.00    -0.300 OA
ENDBRANCH   1   2
BRANCH   1   5
ATOM      5  C   UNL     1       5.359   1.754  -0.240  1.00  0.00     0.043 C 
BRANCH   5   6
ATOM      6  C   UNL     1       6.532   1.051  -0.792  1.00  0.00    -0.044 A 
ATOM      7  C   UNL     1       7.837   1.477  -0.519  1.00  0.00     0.008 A 
ATOM      8  C   UNL     1       6.350  -0.052  -1.594  1.00  0.00     0.054 A 
ATOM      9  C   UNL     1       8.898   0.778  -1.064  1.00  0.00     0.051 A 
ATOM     10  C   UNL     1       7.427  -0.756  -2.142  1.00  0.00     0.166 A 
ATOM     11  C   UNL     1       8.711  -0.337  -1.875  1.00  0.00     0.165 A 
ATOM     12  O   UNL     1       7.507  -1.865  -2.957  1.00  0.00    -0.454 OA
ATOM     13  O   UNL     1       9.563  -1.207  -2.538  1.00  0.00    -0.454 OA
ATOM     14  C   UNL     1       8.844  -2.244  -3.162  1.00  0.00     0.468 C 
ENDBRANCH   5   6
ENDBRANCH   1   5
TORSDOF 3
ENDMDL
MODEL 2
REMARK VINA RESULT:      -7.5      1.932      2.383
REMARK SMILES CC(=O)CCc1ccc2c(c1)OCO2
REMARK SMILES IDX 4 1 2 2 1 3 3 4 5 5 6 6 7 7 11 8 8 9 10 10 9 11 12 12 14 13
REMARK SMILES IDX 13 14
REMARK H PARENT
REMARK Flexibility Score: inf
ROOT
ATOM      1  C   UNL     1       5.706   1.377  -0.308  1.00  0.00     0.080 C 
ENDROOT
BRANCH   1   2
ATOM      2  C   UNL     1       5.021   1.266   1.010  1.00  0.00     0.130 C 
ATOM      3  C   UNL     1       5.266   0.117   1.922  1.00  0.00     0.087 C 
ATOM      4  O   UNL     1       4.234   2.121   1.381  1.00  0.00    -0.300 OA
ENDBRANCH   1   2
BRANCH   1   5
ATOM      5  C   UNL     1       7.192   1.108  -0.180  1.00  0.00     0.043 C 
BRANCH   5   6
ATOM      6  C   UNL     1       7.572  -0.170  -0.809  1.00  0.00    -0.044 A 
ATOM      7  C   UNL     1       7.635  -0.313  -2.199  1.00  0.00     0.008 A 
ATOM      8  C   UNL     1       7.877  -1.254  -0.018  1.00  0.00     0.054 A 
ATOM      9  C   UNL     1       7.998  -1.536  -2.732  1.00  0.00     0.051 A 
ATOM     10  C   UNL     1       8.245  -2.489  -0.562  1.00  0.00     0.166 A 
ATOM     11  C   UNL     1       8.305  -2.631  -1.930  1.00  0.00     0.165 A 
ATOM     12  O   UNL     1       8.588  -3.699   0.003  1.00  0.00    -0.454 OA
ATOM     13  O   UNL     1       8.690  -3.939  -2.180  1.00  0.00    -0.454 OA
ATOM     14  C   UNL     1       8.968  -4.625  -0.983  1.00  0.00     0.468 C 
ENDBRANCH   5   6
ENDBRANCH   1   5
TORSDOF 3
ENDMDL
MODEL 3
REMARK VINA RESULT:      -7.3      2.102      2.637
REMARK SMILES CC(=O)CCc1ccc2c(c1)OCO2
REMARK SMILES IDX 4 1 2 2 1 3 3 4 5 5 6 6 7 7 11 8 8 9 10 10 9 11 12 12 14 13
REMARK SMILES IDX 13 14
REMARK H PARENT
REMARK Flexibility Score: inf
ROOT
ATOM      1  C   UNL     1       5.495  -0.006   1.944  1.00  0.00     0.080 C 
ENDROOT
BRANCH   1   2
ATOM      2  C   UNL     1       4.612   1.151   1.626  1.00  0.00     0.130 C 
ATOM      3  C   UNL     1       4.919   2.084   0.509  1.00  0.00     0.087 C 
ATOM      4  O   UNL     1       3.603   1.368   2.278  1.00  0.00    -0.300 OA
ENDBRANCH   1   2
BRANCH   1   5
ATOM      5  C   UNL     1       6.917   0.245   1.485  1.00  0.00     0.043 C 
BRANCH   5   6
ATOM      6  C   UNL     1       7.333  -0.713   0.445  1.00  0.00    -0.044 A 
ATOM      7  C   UNL     1       7.217  -0.411  -0.917  1.00  0.00     0.008 A 
ATOM      8  C   UNL     1       7.851  -1.934   0.810  1.00  0.00     0.054 A 
ATOM      9  C   UNL     1       7.624  -1.349  -1.848  1.00  0.00     0.051 A 
ATOM     10  C   UNL     1       8.261  -2.879  -0.136  1.00  0.00     0.166 A 
ATOM     11  C   UNL     1       8.147  -2.584  -1.476  1.00  0.00     0.165 A 
ATOM     12  O   UNL     1       8.799  -4.144  -0.028  1.00  0.00    -0.454 OA
ATOM     13  O   UNL     1       8.622  -3.685  -2.171  1.00  0.00    -0.454 OA
ATOM     14  C   UNL     1       9.130  -4.660  -1.292  1.00  0.00     0.468 C 
ENDBRANCH   5   6
ENDBRANCH   1   5
TORSDOF 3
ENDMDL
MODEL 4
REMARK VINA RESULT:      -7.0      1.276      1.507
REMARK SMILES CC(=O)CCc1ccc2c(c1)OCO2
REMARK SMILES IDX 4 1 2 2 1 3 3 4 5 5 6 6 7 7 11 8 8 9 10 10 9 11 12 12 14 13
REMARK SMILES IDX 13 14
REMARK H PARENT
REMARK Flexibility Score: inf
ROOT
ATOM      1  C   UNL     1       6.355   1.170   0.920  1.00  0.00     0.080 C 
ENDROOT
BRANCH   1   2
ATOM      2  C   UNL     1       5.644   0.344   1.935  1.00  0.00     0.130 C 
ATOM      3  C   UNL     1       6.265  -0.869   2.529  1.00  0.00     0.087 C 
ATOM      4  O   UNL     1       4.521   0.643   2.311  1.00  0.00    -0.300 OA
ENDBRANCH   1   2
BRANCH   1   5
ATOM      5  C   UNL     1       5.849   0.878  -0.479  1.00  0.00     0.043 C 
BRANCH   5   6
ATOM      6  C   UNL     1       6.810   0.069  -1.250  1.00  0.00    -0.044 A 
ATOM      7  C   UNL     1       7.508   0.601  -2.340  1.00  0.00     0.008 A 
ATOM      8  C   UNL     1       7.035  -1.242  -0.897  1.00  0.00     0.054 A 
ATOM      9  C   UNL     1       8.398  -0.206  -3.025  1.00  0.00     0.051 A 
ATOM     10  C   UNL     1       7.936  -2.054  -1.592  1.00  0.00     0.166 A 
ATOM     11  C   UNL     1       8.623  -1.532  -2.665  1.00  0.00     0.165 A 
ATOM     12  O   UNL     1       8.329  -3.367  -1.440  1.00  0.00    -0.454 OA
ATOM     13  O   UNL     1       9.433  -2.545  -3.155  1.00  0.00    -0.454 OA
ATOM     14  C   UNL     1       9.345  -3.698  -2.352  1.00  0.00     0.468 C 
ENDBRANCH   5   6
ENDBRANCH   1   5
TORSDOF 3
ENDMDL
MODEL 5
REMARK VINA RESULT:      -6.9      1.203      5.149
REMARK SMILES CC(=O)CCc1ccc2c(c1)OCO2
REMARK SMILES IDX 4 1 2 2 1 3 3 4 5 5 6 6 7 7 11 8 8 9 10 10 9 11 12 12 14 13
REMARK SMILES IDX 13 14
REMARK H PARENT
REMARK Flexibility Score: inf
ROOT
ATOM      1  C   UNL     1       8.274   0.172  -2.658  1.00  0.00     0.080 C 
ENDROOT
BRANCH   1   2
ATOM      2  C   UNL     1       7.959  -1.282  -2.718  1.00  0.00     0.130 C 
ATOM      3  C   UNL     1       9.010  -2.299  -2.991  1.00  0.00     0.087 C 
ATOM      4  O   UNL     1       6.819  -1.684  -2.544  1.00  0.00    -0.300 OA
ENDBRANCH   1   2
BRANCH   1   5
ATOM      5  C   UNL     1       8.811   0.563  -1.295  1.00  0.00     0.043 C 
BRANCH   5   6
ATOM      6  C   UNL     1       7.786   0.428  -0.245  1.00  0.00    -0.044 A 
ATOM      7  C   UNL     1       7.925  -0.492   0.801  1.00  0.00     0.008 A 
ATOM      8  C   UNL     1       6.662   1.222  -0.282  1.00  0.00     0.054 A 
ATOM      9  C   UNL     1       6.931  -0.574   1.759  1.00  0.00     0.051 A 
ATOM     10  C   UNL     1       5.661   1.135   0.690  1.00  0.00     0.166 A 
ATOM     11  C   UNL     1       5.796   0.230   1.718  1.00  0.00     0.165 A 
ATOM     12  O   UNL     1       4.467   1.802   0.871  1.00  0.00    -0.454 OA
ATOM     13  O   UNL     1       4.672   0.361   2.519  1.00  0.00    -0.454 OA
ATOM     14  C   UNL     1       3.848   1.410   2.069  1.00  0.00     0.468 C 
ENDBRANCH   5   6
ENDBRANCH   1   5
TORSDOF 3
ENDMDL
