@<TRIPOS>MOLECULE
/home/cewinharhar/GITHUB/reincatalyze/data/processed/docking_pred/2023-May-24-1506_sub9_nm5_bs15_s42_ex16_mel10_mts10000_k50_ec02_g099_lra3e-4_lrc3e-3/c584487daa348165e33ca71579c90fd99cb4babd_ligand_9.pdbqt
 14 15 0 0 0
SMALL
GASTEIGER

@<TRIPOS>ATOM
      1  C          5.5280    1.9110    1.2950 C.3     1  UNL1        0.0800
      2  C          5.0370    0.6950    2.0020 C.2     1  UNL1        0.1300
      3  C          5.8810   -0.5220    2.1410 C.3     1  UNL1        0.0870
      4  O          3.9190    0.6630    2.4910 O.2     1  UNL1       -0.3000
      5  C          5.4090    1.7580   -0.2090 C.3     1  UNL1        0.0430
      6  C          6.5670    1.0460   -0.7780 C.2     1  UNL1       -0.0440
      7  C          7.8790    1.4640   -0.5300 C.2     1  UNL1        0.0080
      8  C          6.3640   -0.0600   -1.5730 C.2     1  UNL1        0.0540
      9  C          8.9270    0.7550   -1.0910 C.2     1  UNL1        0.0510
     10  C          7.4260   -0.7730   -2.1370 C.2     1  UNL1        0.1660
     11  C          8.7180   -0.3620   -1.8940 C.2     1  UNL1        0.1650
     12  O          7.4850   -1.8860   -2.9490 O.2     1  UNL1       -0.4540
     13  O          9.5510   -1.2400   -2.5690 O.2     1  UNL1       -0.4540
     14  C          8.8150   -2.2750   -3.1760 C.3     1  UNL1        0.4680
@<TRIPOS>BOND
     1    14    12    1
     2    14    13    1
     3    12    10    1
     4    13    11    1
     5    10    11    2
     6    10     8    1
     7    11     9    1
     8     8     6    2
     9     9     7    2
    10     6     7    1
    11     6     5    1
    12     5     1    1
    13     1     2    1
    14     2     3    1
    15     2     4    2
