@<TRIPOS>MOLECULE
/home/cewinharhar/GITHUB/reincatalyze/data/processed/docking_pred/2023-May-24-1506_sub9_nm5_bs15_s42_ex16_mel10_mts10000_k50_ec02_g099_lra3e-4_lrc3e-3/c584487daa348165e33ca71579c90fd99cb4babd_ligand_9.pdbqt
 14 15 0 0 0
SMALL
GASTEIGER

@<TRIPOS>ATOM
      1  C          5.6770    1.3910   -0.2520 C.3     1  UNL1        0.0800
      2  C          5.0100    1.2330    1.0700 C.2     1  UNL1        0.1300
      3  C          5.2860    0.0670    1.9500 C.3     1  UNL1        0.0870
      4  O          4.2100    2.0640    1.4710 O.2     1  UNL1       -0.3000
      5  C          7.1690    1.1410   -0.1490 C.3     1  UNL1        0.0430
      6  C          7.5530   -0.1400   -0.7690 C.2     1  UNL1       -0.0440
      7  C          7.6140   -0.2920   -2.1590 C.2     1  UNL1        0.0080
      8  C          7.8640   -1.2180    0.0280 C.2     1  UNL1        0.0540
      9  C          7.9820   -1.5170   -2.6850 C.2     1  UNL1        0.0510
     10  C          8.2360   -2.4540   -0.5080 C.2     1  UNL1        0.1660
     11  C          8.2950   -2.6050   -1.8760 C.2     1  UNL1        0.1650
     12  O          8.5870   -3.6590    0.0630 O.2     1  UNL1       -0.4540
     13  O          8.6850   -3.9120   -2.1190 O.2     1  UNL1       -0.4540
     14  C          8.9680   -4.5900   -0.9180 C.3     1  UNL1        0.4680
@<TRIPOS>BOND
     1     9     7    1
     2     9    11    2
     3     7     6    2
     4    13    11    1
     5    13    14    1
     6    11    10    1
     7    14    12    1
     8     6     5    1
     9     6     8    1
    10    10     8    2
    11    10    12    1
    12     1     5    1
    13     1     2    1
    14     2     4    2
    15     2     3    1
