@<TRIPOS>MOLECULE
/home/cewinharhar/GITHUB/reincatalyze/data/processed/docking_pred/2023-May-24-1506_sub9_nm5_bs15_s42_ex16_mel10_mts10000_k50_ec02_g099_lra3e-4_lrc3e-3/c584487daa348165e33ca71579c90fd99cb4babd_ligand_9.pdbqt
 14 15 0 0 0
SMALL
GASTEIGER

@<TRIPOS>ATOM
      1  C          5.3140   -0.0890    1.9360 C.3     1  UNL1        0.0800
      2  C          4.4310    1.0970    1.7620 C.2     1  UNL1        0.1300
      3  C          4.7010    2.1270    0.7240 C.3     1  UNL1        0.0870
      4  O          3.4520    1.2590    2.4730 O.2     1  UNL1       -0.3000
      5  C          6.7780    0.3040    1.8920 C.3     1  UNL1        0.0430
      6  C          7.3980   -0.0420    0.6000 C.2     1  UNL1       -0.0440
      7  C          7.9250    0.9400   -0.2460 C.2     1  UNL1        0.0080
      8  C          7.4670   -1.3600    0.2080 C.2     1  UNL1        0.0540
      9  C          8.4960    0.5550   -1.4460 C.2     1  UNL1        0.0510
     10  C          8.0450   -1.7430   -1.0060 C.2     1  UNL1        0.1660
     11  C          8.5630   -0.7780   -1.8400 C.2     1  UNL1        0.1650
     12  O          8.2310   -2.9670   -1.6130 O.2     1  UNL1       -0.4540
     13  O          9.0630   -1.4360   -2.9530 O.2     1  UNL1       -0.4540
     14  C          8.9550   -2.8320   -2.8090 C.3     1  UNL1        0.4680
@<TRIPOS>BOND
     1    13    14    1
     2    13    11    1
     3    14    12    1
     4    11     9    2
     5    11    10    1
     6    12    10    1
     7     9     7    1
     8    10     8    2
     9     7     6    2
    10     8     6    1
    11     6     5    1
    12     3     2    1
    13     2     1    1
    14     2     4    2
    15     5     1    1
