MODEL 1
REMARK VINA RESULT:      -7.6      0.000      0.000
REMARK SMILES CC(=O)CCc1ccc2c(c1)OCO2
REMARK SMILES IDX 4 1 2 2 1 3 3 4 5 5 6 6 7 7 11 8 8 9 10 10 9 11 12 12 14 13
REMARK SMILES IDX 13 14
REMARK H PARENT
REMARK Flexibility Score: inf
ROOT
ATOM      1  C   UNL     1       5.528   1.911   1.295  1.00  0.00     0.080 C 
ENDROOT
BRANCH   1   2
ATOM      2  C   UNL     1       5.037   0.695   2.002  1.00  0.00     0.130 C 
ATOM      3  C   UNL     1       5.881  -0.522   2.141  1.00  0.00     0.087 C 
ATOM      4  O   UNL     1       3.919   0.663   2.491  1.00  0.00    -0.300 OA
ENDBRANCH   1   2
BRANCH   1   5
ATOM      5  C   UNL     1       5.409   1.758  -0.209  1.00  0.00     0.043 C 
BRANCH   5   6
ATOM      6  C   UNL     1       6.567   1.046  -0.778  1.00  0.00    -0.044 A 
ATOM      7  C   UNL     1       7.879   1.464  -0.530  1.00  0.00     0.008 A 
ATOM      8  C   UNL     1       6.364  -0.060  -1.573  1.00  0.00     0.054 A 
ATOM      9  C   UNL     1       8.927   0.755  -1.091  1.00  0.00     0.051 A 
ATOM     10  C   UNL     1       7.426  -0.773  -2.137  1.00  0.00     0.166 A 
ATOM     11  C   UNL     1       8.718  -0.362  -1.894  1.00  0.00     0.165 A 
ATOM     12  O   UNL     1       7.485  -1.886  -2.949  1.00  0.00    -0.454 OA
ATOM     13  O   UNL     1       9.551  -1.240  -2.569  1.00  0.00    -0.454 OA
ATOM     14  C   UNL     1       8.815  -2.275  -3.176  1.00  0.00     0.468 C 
ENDBRANCH   5   6
ENDBRANCH   1   5
TORSDOF 3
ENDMDL
MODEL 2
REMARK VINA RESULT:      -7.4      1.931      2.352
REMARK SMILES CC(=O)CCc1ccc2c(c1)OCO2
REMARK SMILES IDX 4 1 2 2 1 3 3 4 5 5 6 6 7 7 11 8 8 9 10 10 9 11 12 12 14 13
REMARK SMILES IDX 13 14
REMARK H PARENT
REMARK Flexibility Score: inf
ROOT
ATOM      1  C   UNL     1       5.677   1.391  -0.252  1.00  0.00     0.080 C 
ENDROOT
BRANCH   1   2
ATOM      2  C   UNL     1       5.010   1.233   1.070  1.00  0.00     0.130 C 
ATOM      3  C   UNL     1       5.286   0.067   1.950  1.00  0.00     0.087 C 
ATOM      4  O   UNL     1       4.210   2.064   1.471  1.00  0.00    -0.300 OA
ENDBRANCH   1   2
BRANCH   1   5
ATOM      5  C   UNL     1       7.169   1.141  -0.149  1.00  0.00     0.043 C 
BRANCH   5   6
ATOM      6  C   UNL     1       7.553  -0.140  -0.769  1.00  0.00    -0.044 A 
ATOM      7  C   UNL     1       7.614  -0.292  -2.159  1.00  0.00     0.008 A 
ATOM      8  C   UNL     1       7.864  -1.218   0.028  1.00  0.00     0.054 A 
ATOM      9  C   UNL     1       7.982  -1.517  -2.685  1.00  0.00     0.051 A 
ATOM     10  C   UNL     1       8.236  -2.454  -0.508  1.00  0.00     0.166 A 
ATOM     11  C   UNL     1       8.295  -2.605  -1.876  1.00  0.00     0.165 A 
ATOM     12  O   UNL     1       8.587  -3.659   0.063  1.00  0.00    -0.454 OA
ATOM     13  O   UNL     1       8.685  -3.912  -2.119  1.00  0.00    -0.454 OA
ATOM     14  C   UNL     1       8.968  -4.590  -0.918  1.00  0.00     0.468 C 
ENDBRANCH   5   6
ENDBRANCH   1   5
TORSDOF 3
ENDMDL
MODEL 3
REMARK VINA RESULT:      -7.3      2.078      2.637
REMARK SMILES CC(=O)CCc1ccc2c(c1)OCO2
REMARK SMILES IDX 4 1 2 2 1 3 3 4 5 5 6 6 7 7 11 8 8 9 10 10 9 11 12 12 14 13
REMARK SMILES IDX 13 14
REMARK H PARENT
REMARK Flexibility Score: inf
ROOT
ATOM      1  C   UNL     1       5.402  -0.072   2.004  1.00  0.00     0.080 C 
ENDROOT
BRANCH   1   2
ATOM      2  C   UNL     1       4.533   1.112   1.754  1.00  0.00     0.130 C 
ATOM      3  C   UNL     1       4.833   2.086   0.671  1.00  0.00     0.087 C 
ATOM      4  O   UNL     1       3.543   1.318   2.437  1.00  0.00    -0.300 OA
ENDBRANCH   1   2
BRANCH   1   5
ATOM      5  C   UNL     1       6.830   0.193   1.572  1.00  0.00     0.043 C 
BRANCH   5   6
ATOM      6  C   UNL     1       7.265  -0.741   0.518  1.00  0.00    -0.044 A 
ATOM      7  C   UNL     1       7.134  -0.426  -0.840  1.00  0.00     0.008 A 
ATOM      8  C   UNL     1       7.815  -1.954   0.865  1.00  0.00     0.054 A 
ATOM      9  C   UNL     1       7.560  -1.341  -1.785  1.00  0.00     0.051 A 
ATOM     10  C   UNL     1       8.245  -2.875  -0.095  1.00  0.00     0.166 A 
ATOM     11  C   UNL     1       8.115  -2.567  -1.431  1.00  0.00     0.165 A 
ATOM     12  O   UNL     1       8.815  -4.128  -0.006  1.00  0.00    -0.454 OA
ATOM     13  O   UNL     1       8.615  -3.646  -2.142  1.00  0.00    -0.454 OA
ATOM     14  C   UNL     1       9.152  -4.619  -1.278  1.00  0.00     0.468 C 
ENDBRANCH   5   6
ENDBRANCH   1   5
TORSDOF 3
ENDMDL
MODEL 4
REMARK VINA RESULT:      -7.0      1.253      1.454
REMARK SMILES CC(=O)CCc1ccc2c(c1)OCO2
REMARK SMILES IDX 4 1 2 2 1 3 3 4 5 5 6 6 7 7 11 8 8 9 10 10 9 11 12 12 14 13
REMARK SMILES IDX 13 14
REMARK H PARENT
REMARK Flexibility Score: inf
ROOT
ATOM      1  C   UNL     1       6.335   1.222   0.889  1.00  0.00     0.080 C 
ENDROOT
BRANCH   1   2
ATOM      2  C   UNL     1       5.658   0.394   1.926  1.00  0.00     0.130 C 
ATOM      3  C   UNL     1       6.302  -0.818   2.500  1.00  0.00     0.087 C 
ATOM      4  O   UNL     1       4.547   0.688   2.337  1.00  0.00    -0.300 OA
ENDBRANCH   1   2
BRANCH   1   5
ATOM      5  C   UNL     1       5.827   0.888  -0.500  1.00  0.00     0.043 C 
BRANCH   5   6
ATOM      6  C   UNL     1       6.802   0.087  -1.260  1.00  0.00    -0.044 A 
ATOM      7  C   UNL     1       7.531   0.635  -2.322  1.00  0.00     0.008 A 
ATOM      8  C   UNL     1       7.011  -1.231  -0.925  1.00  0.00     0.054 A 
ATOM      9  C   UNL     1       8.434  -0.165  -2.999  1.00  0.00     0.051 A 
ATOM     10  C   UNL     1       7.925  -2.036  -1.612  1.00  0.00     0.166 A 
ATOM     11  C   UNL     1       8.642  -1.498  -2.658  1.00  0.00     0.165 A 
ATOM     12  O   UNL     1       8.307  -3.353  -1.474  1.00  0.00    -0.454 OA
ATOM     13  O   UNL     1       9.458  -2.507  -3.145  1.00  0.00    -0.454 OA
ATOM     14  C   UNL     1       9.344  -3.674  -2.366  1.00  0.00     0.468 C 
ENDBRANCH   5   6
ENDBRANCH   1   5
TORSDOF 3
ENDMDL
MODEL 5
REMARK VINA RESULT:      -6.9      1.249      1.736
REMARK SMILES CC(=O)CCc1ccc2c(c1)OCO2
REMARK SMILES IDX 4 1 2 2 1 3 3 4 5 5 6 6 7 7 11 8 8 9 10 10 9 11 12 12 14 13
REMARK SMILES IDX 13 14
REMARK H PARENT
REMARK Flexibility Score: inf
ROOT
ATOM      1  C   UNL     1       5.314  -0.089   1.936  1.00  0.00     0.080 C 
ENDROOT
BRANCH   1   2
ATOM      2  C   UNL     1       4.431   1.097   1.762  1.00  0.00     0.130 C 
ATOM      3  C   UNL     1       4.701   2.127   0.724  1.00  0.00     0.087 C 
ATOM      4  O   UNL     1       3.452   1.259   2.473  1.00  0.00    -0.300 OA
ENDBRANCH   1   2
BRANCH   1   5
ATOM      5  C   UNL     1       6.778   0.304   1.892  1.00  0.00     0.043 C 
BRANCH   5   6
ATOM      6  C   UNL     1       7.398  -0.042   0.600  1.00  0.00    -0.044 A 
ATOM      7  C   UNL     1       7.925   0.940  -0.246  1.00  0.00     0.008 A 
ATOM      8  C   UNL     1       7.467  -1.360   0.208  1.00  0.00     0.054 A 
ATOM      9  C   UNL     1       8.496   0.555  -1.446  1.00  0.00     0.051 A 
ATOM     10  C   UNL     1       8.045  -1.743  -1.006  1.00  0.00     0.166 A 
ATOM     11  C   UNL     1       8.563  -0.778  -1.840  1.00  0.00     0.165 A 
ATOM     12  O   UNL     1       8.231  -2.967  -1.613  1.00  0.00    -0.454 OA
ATOM     13  O   UNL     1       9.063  -1.436  -2.953  1.00  0.00    -0.454 OA
ATOM     14  C   UNL     1       8.955  -2.832  -2.809  1.00  0.00     0.468 C 
ENDBRANCH   5   6
ENDBRANCH   1   5
TORSDOF 3
ENDMDL
