@<TRIPOS>MOLECULE
/home/cewinharhar/GITHUB/reincatalyze/data/processed/docking_pred/2023-May-24-1506_sub9_nm5_bs15_s42_ex16_mel10_mts10000_k50_ec02_g099_lra3e-4_lrc3e-3/c61eb663c2c3330cf201d691d278f59eb7eebd68_ligand_9.pdbqt
 14 15 0 0 0
SMALL
GASTEIGER

@<TRIPOS>ATOM
      1  C          5.4160   -0.0600    1.9990 C.3     1  UNL1        0.0800
      2  C          4.5720    1.1450    1.7660 C.2     1  UNL1        0.1300
      3  C          4.9030    2.1370    0.7090 C.3     1  UNL1        0.0870
      4  O          3.5780    1.3540    2.4430 O.2     1  UNL1       -0.3000
      5  C          6.8540    0.1870    1.5870 C.3     1  UNL1        0.0430
      6  C          7.2870   -0.7410    0.5270 C.2     1  UNL1       -0.0440
      7  C          7.1620   -0.4150   -0.8280 C.2     1  UNL1        0.0080
      8  C          7.8290   -1.9590    0.8670 C.2     1  UNL1        0.0540
      9  C          7.5860   -1.3260   -1.7790 C.2     1  UNL1        0.0510
     10  C          8.2570   -2.8760   -0.0980 C.2     1  UNL1        0.1660
     11  C          8.1340   -2.5570   -1.4320 C.2     1  UNL1        0.1650
     12  O          8.8200   -4.1320   -0.0170 O.2     1  UNL1       -0.4540
     13  O          8.6300   -3.6340   -2.1500 O.2     1  UNL1       -0.4540
     14  C          9.1580   -4.6160   -1.2910 C.3     1  UNL1        0.4680
@<TRIPOS>BOND
     1    13    11    1
     2    13    14    1
     3     9    11    2
     4     9     7    1
     5    11    10    1
     6    14    12    1
     7     7     6    2
     8    10    12    1
     9    10     8    2
    10     6     8    1
    11     6     5    1
    12     3     2    1
    13     5     1    1
    14     2     1    1
    15     2     4    2
