@<TRIPOS>MOLECULE
/home/cewinharhar/GITHUB/reincatalyze/data/processed/docking_pred/2023-May-24-1506_sub9_nm5_bs15_s42_ex16_mel10_mts10000_k50_ec02_g099_lra3e-4_lrc3e-3/c61eb663c2c3330cf201d691d278f59eb7eebd68_ligand_9.pdbqt
 14 15 0 0 0
SMALL
GASTEIGER

@<TRIPOS>ATOM
      1  C          5.5050    1.9330    1.2590 C.3     1  UNL1        0.0800
      2  C          5.0690    0.7170    2.0010 C.2     1  UNL1        0.1300
      3  C          5.9620   -0.4620    2.1620 C.3     1  UNL1        0.0870
      4  O          3.9580    0.6530    2.5010 O.2     1  UNL1       -0.3000
      5  C          5.3810    1.7370   -0.2390 C.3     1  UNL1        0.0430
      6  C          6.5520    1.0370   -0.7980 C.2     1  UNL1       -0.0440
      7  C          7.8570    1.4740   -0.5440 C.2     1  UNL1        0.0080
      8  C          6.3700   -0.0750   -1.5880 C.2     1  UNL1        0.0540
      9  C          8.9180    0.7770   -1.0940 C.2     1  UNL1        0.0510
     10  C          7.4450   -0.7770   -2.1410 C.2     1  UNL1        0.1660
     11  C          8.7290   -0.3470   -1.8930 C.2     1  UNL1        0.1650
     12  O          7.5240   -1.8930   -2.9470 O.2     1  UNL1       -0.4540
     13  O          9.5790   -1.2170   -2.5570 O.2     1  UNL1       -0.4540
     14  C          8.8610   -2.2650   -3.1630 C.3     1  UNL1        0.4680
@<TRIPOS>BOND
     1    14    12    1
     2    14    13    1
     3    12    10    1
     4    13    11    1
     5    10    11    2
     6    10     8    1
     7    11     9    1
     8     8     6    2
     9     9     7    2
    10     6     7    1
    11     6     5    1
    12     5     1    1
    13     1     2    1
    14     2     3    1
    15     2     4    2
