@<TRIPOS>MOLECULE
/home/cewinharhar/GITHUB/reincatalyze/data/processed/docking_pred/2023-May-24-1506_sub9_nm5_bs15_s42_ex16_mel10_mts10000_k50_ec02_g099_lra3e-4_lrc3e-3/c61eb663c2c3330cf201d691d278f59eb7eebd68_ligand_9.pdbqt
 14 15 0 0 0
SMALL
GASTEIGER

@<TRIPOS>ATOM
      1  C          8.3480    0.1760   -2.6320 C.3     1  UNL1        0.0800
      2  C          8.0820   -1.2850   -2.7580 C.2     1  UNL1        0.1300
      3  C          9.1800   -2.2600   -2.9970 C.3     1  UNL1        0.0870
      4  O          6.9480   -1.7250   -2.6680 O.2     1  UNL1       -0.3000
      5  C          8.8750    0.5220   -1.2540 C.3     1  UNL1        0.0430
      6  C          7.8310    0.3980   -0.2220 C.2     1  UNL1       -0.0440
      7  C          7.9190   -0.5550    0.7990 C.2     1  UNL1        0.0080
      8  C          6.7400    1.2360   -0.2510 C.2     1  UNL1        0.0540
      9  C          6.9080   -0.6250    1.7410 C.2     1  UNL1        0.0510
     10  C          5.7210    1.1620    0.7040 C.2     1  UNL1        0.1660
     11  C          5.8060    0.2230    1.7080 C.2     1  UNL1        0.1650
     12  O          4.5530    1.8710    0.8890 O.2     1  UNL1       -0.4540
     13  O          4.6770    0.3770    2.4970 O.2     1  UNL1       -0.4540
     14  C          3.9010    1.4690    2.0660 C.3     1  UNL1        0.4680
@<TRIPOS>BOND
     1     3     2    1
     2     2     4    2
     3     2     1    1
     4     1     5    1
     5     5     6    1
     6     8     6    2
     7     8    10    1
     8     6     7    1
     9    10    12    1
    10    10    11    2
    11     7     9    2
    12    12    14    1
    13    11     9    1
    14    11    13    1
    15    14    13    1
