@<TRIPOS>MOLECULE
/home/cewinharhar/GITHUB/reincatalyze/data/processed/docking_pred/2023-May-24-1506_sub9_nm5_bs15_s42_ex16_mel10_mts10000_k50_ec02_g099_lra3e-4_lrc3e-3/c61eb663c2c3330cf201d691d278f59eb7eebd68_ligand_9.pdbqt
 14 15 0 0 0
SMALL
GASTEIGER

@<TRIPOS>ATOM
      1  C          5.7150    1.3290   -0.2840 C.3     1  UNL1        0.0800
      2  C          5.1300    1.2650    1.0850 C.2     1  UNL1        0.1300
      3  C          5.4170    0.1320    2.0040 C.3     1  UNL1        0.0870
      4  O          4.3930    2.1480    1.4930 O.2     1  UNL1       -0.3000
      5  C          7.2140    1.1090   -0.2530 C.3     1  UNL1        0.0430
      6  C          7.5890   -0.1830   -0.8550 C.2     1  UNL1       -0.0440
      7  C          7.6500   -0.3550   -2.2430 C.2     1  UNL1        0.0080
      8  C          7.8910   -1.2530   -0.0430 C.2     1  UNL1        0.0540
      9  C          8.0090   -1.5900   -2.7510 C.2     1  UNL1        0.0510
     10  C          8.2540   -2.4990   -0.5610 C.2     1  UNL1        0.1660
     11  C          8.3130   -2.6690   -1.9270 C.2     1  UNL1        0.1650
     12  O          8.5940   -3.6990    0.0270 O.2     1  UNL1       -0.4540
     13  O          8.6930   -3.9830   -2.1510 O.2     1  UNL1       -0.4540
     14  C          8.9700   -4.6460   -0.9400 C.3     1  UNL1        0.4680
@<TRIPOS>BOND
     1     9     7    1
     2     9    11    2
     3     7     6    2
     4    13    11    1
     5    13    14    1
     6    11    10    1
     7    14    12    1
     8     6     5    1
     9     6     8    1
    10    10     8    2
    11    10    12    1
    12     1     5    1
    13     1     2    1
    14     2     4    2
    15     2     3    1
