@<TRIPOS>MOLECULE
/home/cewinharhar/GITHUB/reincatalyze/data/processed/docking_pred/2023-May-24-1506_sub9_nm5_bs15_s42_ex16_mel10_mts10000_k50_ec02_g099_lra3e-4_lrc3e-3/c63ad29e91363ee592d9ff185fc87121b24a9cdc_ligand_9.pdbqt
 14 15 0 0 0
SMALL
GASTEIGER

@<TRIPOS>ATOM
      1  C          5.5080   -0.0210    1.9730 C.3     1  UNL1        0.0800
      2  C          4.6390    1.1540    1.6880 C.2     1  UNL1        0.1300
      3  C          4.9500    2.1070    0.5890 C.3     1  UNL1        0.0870
      4  O          3.6390    1.3710    2.3530 O.2     1  UNL1       -0.3000
      5  C          6.9350    0.2280    1.5260 C.3     1  UNL1        0.0430
      6  C          7.3450   -0.7080    0.4640 C.2     1  UNL1       -0.0440
      7  C          7.2320   -0.3760   -0.8910 C.2     1  UNL1        0.0080
      8  C          7.8560   -1.9410    0.8010 C.2     1  UNL1        0.0540
      9  C          7.6340   -1.2940   -1.8430 C.2     1  UNL1        0.0510
     10  C          8.2610   -2.8660   -0.1650 C.2     1  UNL1        0.1660
     11  C          8.1490   -2.5400   -1.4990 C.2     1  UNL1        0.1650
     12  O          8.7920   -4.1360   -0.0860 O.2     1  UNL1       -0.4540
     13  O          8.6190   -3.6270   -2.2180 O.2     1  UNL1       -0.4540
     14  C          9.1200   -4.6260   -1.3610 C.3     1  UNL1        0.4680
@<TRIPOS>BOND
     1    13    11    1
     2    13    14    1
     3     9    11    2
     4     9     7    1
     5    11    10    1
     6    14    12    1
     7     7     6    2
     8    10    12    1
     9    10     8    2
    10     6     8    1
    11     6     5    1
    12     3     2    1
    13     5     1    1
    14     2     1    1
    15     2     4    2
