@<TRIPOS>MOLECULE
/home/cewinharhar/GITHUB/reincatalyze/data/processed/docking_pred/2023-May-24-1506_sub9_nm5_bs15_s42_ex16_mel10_mts10000_k50_ec02_g099_lra3e-4_lrc3e-3/c63ad29e91363ee592d9ff185fc87121b24a9cdc_ligand_9.pdbqt
 14 15 0 0 0
SMALL
GASTEIGER

@<TRIPOS>ATOM
      1  C          5.7580    1.4180   -0.3110 C.3     1  UNL1        0.0800
      2  C          5.1080    1.3100    1.0250 C.2     1  UNL1        0.1300
      3  C          5.4270    0.2000    1.9610 C.3     1  UNL1        0.0870
      4  O          4.2870    2.1360    1.3910 O.2     1  UNL1       -0.3000
      5  C          7.2460    1.1440   -0.2220 C.3     1  UNL1        0.0430
      6  C          7.6050   -0.1380   -0.8540 C.2     1  UNL1       -0.0440
      7  C          7.6520   -0.2820   -2.2450 C.2     1  UNL1        0.0080
      8  C          7.9040   -1.2260   -0.0660 C.2     1  UNL1        0.0540
      9  C          7.9960   -1.5090   -2.7820 C.2     1  UNL1        0.0510
     10  C          8.2510   -2.4650   -0.6140 C.2     1  UNL1        0.1660
     11  C          8.2970   -2.6080   -1.9820 C.2     1  UNL1        0.1650
     12  O          8.5860   -3.6790   -0.0530 O.2     1  UNL1       -0.4540
     13  O          8.6640   -3.9200   -2.2370 O.2     1  UNL1       -0.4540
     14  C          8.9450   -4.6100   -1.0420 C.3     1  UNL1        0.4680
@<TRIPOS>BOND
     1     9     7    1
     2     9    11    2
     3     7     6    2
     4    13    11    1
     5    13    14    1
     6    11    10    1
     7    14    12    1
     8     6     5    1
     9     6     8    1
    10    10     8    2
    11    10    12    1
    12     1     5    1
    13     1     2    1
    14     2     4    2
    15     2     3    1
