MODEL 1
REMARK VINA RESULT:      -7.6      0.000      0.000
REMARK SMILES CC(=O)CCc1ccc2c(c1)OCO2
REMARK SMILES IDX 4 1 2 2 1 3 3 4 5 5 6 6 7 7 11 8 8 9 10 10 9 11 12 12 14 13
REMARK SMILES IDX 13 14
REMARK H PARENT
REMARK Flexibility Score: inf
ROOT
ATOM      1  C   UNL     1       5.565   1.885   1.288  1.00  0.00     0.080 C 
ENDROOT
BRANCH   1   2
ATOM      2  C   UNL     1       5.111   0.670   2.021  1.00  0.00     0.130 C 
ATOM      3  C   UNL     1       5.997  -0.513   2.195  1.00  0.00     0.087 C 
ATOM      4  O   UNL     1       3.991   0.610   2.502  1.00  0.00    -0.300 OA
ENDBRANCH   1   2
BRANCH   1   5
ATOM      5  C   UNL     1       5.426   1.708  -0.211  1.00  0.00     0.043 C 
BRANCH   5   6
ATOM      6  C   UNL     1       6.587   1.008  -0.788  1.00  0.00    -0.044 A 
ATOM      7  C   UNL     1       7.896   1.445  -0.558  1.00  0.00     0.008 A 
ATOM      8  C   UNL     1       6.391  -0.106  -1.572  1.00  0.00     0.054 A 
ATOM      9  C   UNL     1       8.947   0.747  -1.125  1.00  0.00     0.051 A 
ATOM     10  C   UNL     1       7.456  -0.809  -2.143  1.00  0.00     0.166 A 
ATOM     11  C   UNL     1       8.745  -0.378  -1.918  1.00  0.00     0.165 A 
ATOM     12  O   UNL     1       7.521  -1.926  -2.948  1.00  0.00    -0.454 OA
ATOM     13  O   UNL     1       9.583  -1.250  -2.595  1.00  0.00    -0.454 OA
ATOM     14  C   UNL     1       8.854  -2.299  -3.186  1.00  0.00     0.468 C 
ENDBRANCH   5   6
ENDBRANCH   1   5
TORSDOF 3
ENDMDL
MODEL 2
REMARK VINA RESULT:      -7.4      1.880      2.341
REMARK SMILES CC(=O)CCc1ccc2c(c1)OCO2
REMARK SMILES IDX 4 1 2 2 1 3 3 4 5 5 6 6 7 7 11 8 8 9 10 10 9 11 12 12 14 13
REMARK SMILES IDX 13 14
REMARK H PARENT
REMARK Flexibility Score: inf
ROOT
ATOM      1  C   UNL     1       5.758   1.418  -0.311  1.00  0.00     0.080 C 
ENDROOT
BRANCH   1   2
ATOM      2  C   UNL     1       5.108   1.310   1.025  1.00  0.00     0.130 C 
ATOM      3  C   UNL     1       5.427   0.200   1.961  1.00  0.00     0.087 C 
ATOM      4  O   UNL     1       4.287   2.136   1.391  1.00  0.00    -0.300 OA
ENDBRANCH   1   2
BRANCH   1   5
ATOM      5  C   UNL     1       7.246   1.144  -0.222  1.00  0.00     0.043 C 
BRANCH   5   6
ATOM      6  C   UNL     1       7.605  -0.138  -0.854  1.00  0.00    -0.044 A 
ATOM      7  C   UNL     1       7.652  -0.282  -2.245  1.00  0.00     0.008 A 
ATOM      8  C   UNL     1       7.904  -1.226  -0.066  1.00  0.00     0.054 A 
ATOM      9  C   UNL     1       7.996  -1.509  -2.782  1.00  0.00     0.051 A 
ATOM     10  C   UNL     1       8.251  -2.465  -0.614  1.00  0.00     0.166 A 
ATOM     11  C   UNL     1       8.297  -2.608  -1.982  1.00  0.00     0.165 A 
ATOM     12  O   UNL     1       8.586  -3.679  -0.053  1.00  0.00    -0.454 OA
ATOM     13  O   UNL     1       8.664  -3.920  -2.237  1.00  0.00    -0.454 OA
ATOM     14  C   UNL     1       8.945  -4.610  -1.042  1.00  0.00     0.468 C 
ENDBRANCH   5   6
ENDBRANCH   1   5
TORSDOF 3
ENDMDL
MODEL 3
REMARK VINA RESULT:      -7.2      2.050      2.593
REMARK SMILES CC(=O)CCc1ccc2c(c1)OCO2
REMARK SMILES IDX 4 1 2 2 1 3 3 4 5 5 6 6 7 7 11 8 8 9 10 10 9 11 12 12 14 13
REMARK SMILES IDX 13 14
REMARK H PARENT
REMARK Flexibility Score: inf
ROOT
ATOM      1  C   UNL     1       5.508  -0.021   1.973  1.00  0.00     0.080 C 
ENDROOT
BRANCH   1   2
ATOM      2  C   UNL     1       4.639   1.154   1.688  1.00  0.00     0.130 C 
ATOM      3  C   UNL     1       4.950   2.107   0.589  1.00  0.00     0.087 C 
ATOM      4  O   UNL     1       3.639   1.371   2.353  1.00  0.00    -0.300 OA
ENDBRANCH   1   2
BRANCH   1   5
ATOM      5  C   UNL     1       6.935   0.228   1.526  1.00  0.00     0.043 C 
BRANCH   5   6
ATOM      6  C   UNL     1       7.345  -0.708   0.464  1.00  0.00    -0.044 A 
ATOM      7  C   UNL     1       7.232  -0.376  -0.891  1.00  0.00     0.008 A 
ATOM      8  C   UNL     1       7.856  -1.941   0.801  1.00  0.00     0.054 A 
ATOM      9  C   UNL     1       7.634  -1.294  -1.843  1.00  0.00     0.051 A 
ATOM     10  C   UNL     1       8.261  -2.866  -0.165  1.00  0.00     0.166 A 
ATOM     11  C   UNL     1       8.149  -2.540  -1.499  1.00  0.00     0.165 A 
ATOM     12  O   UNL     1       8.792  -4.136  -0.086  1.00  0.00    -0.454 OA
ATOM     13  O   UNL     1       8.619  -3.627  -2.218  1.00  0.00    -0.454 OA
ATOM     14  C   UNL     1       9.120  -4.626  -1.361  1.00  0.00     0.468 C 
ENDBRANCH   5   6
ENDBRANCH   1   5
TORSDOF 3
ENDMDL
MODEL 4
REMARK VINA RESULT:      -7.1      1.247      1.446
REMARK SMILES CC(=O)CCc1ccc2c(c1)OCO2
REMARK SMILES IDX 4 1 2 2 1 3 3 4 5 5 6 6 7 7 11 8 8 9 10 10 9 11 12 12 14 13
REMARK SMILES IDX 13 14
REMARK H PARENT
REMARK Flexibility Score: inf
ROOT
ATOM      1  C   UNL     1       6.381   1.214   0.937  1.00  0.00     0.080 C 
ENDROOT
BRANCH   1   2
ATOM      2  C   UNL     1       5.646   0.385   1.932  1.00  0.00     0.130 C 
ATOM      3  C   UNL     1       6.250  -0.837   2.528  1.00  0.00     0.087 C 
ATOM      4  O   UNL     1       4.519   0.687   2.289  1.00  0.00    -0.300 OA
ENDBRANCH   1   2
BRANCH   1   5
ATOM      5  C   UNL     1       5.884   0.954  -0.471  1.00  0.00     0.043 C 
BRANCH   5   6
ATOM      6  C   UNL     1       6.825   0.117  -1.237  1.00  0.00    -0.044 A 
ATOM      7  C   UNL     1       7.509   0.615  -2.352  1.00  0.00     0.008 A 
ATOM      8  C   UNL     1       7.046  -1.186  -0.854  1.00  0.00     0.054 A 
ATOM      9  C   UNL     1       8.381  -0.217  -3.031  1.00  0.00     0.051 A 
ATOM     10  C   UNL     1       7.929  -2.023  -1.544  1.00  0.00     0.166 A 
ATOM     11  C   UNL     1       8.601  -1.534  -2.641  1.00  0.00     0.165 A 
ATOM     12  O   UNL     1       8.314  -3.335  -1.365  1.00  0.00    -0.454 OA
ATOM     13  O   UNL     1       9.394  -2.566  -3.118  1.00  0.00    -0.454 OA
ATOM     14  C   UNL     1       9.311  -3.697  -2.285  1.00  0.00     0.468 C 
ENDBRANCH   5   6
ENDBRANCH   1   5
TORSDOF 3
ENDMDL
MODEL 5
REMARK VINA RESULT:      -6.9      1.903      2.454
REMARK SMILES CC(=O)CCc1ccc2c(c1)OCO2
REMARK SMILES IDX 4 1 2 2 1 3 3 4 5 5 6 6 7 7 11 8 8 9 10 10 9 11 12 12 14 13
REMARK SMILES IDX 13 14
REMARK H PARENT
REMARK Flexibility Score: inf
ROOT
ATOM      1  C   UNL     1       6.618   1.244   1.301  1.00  0.00     0.080 C 
ENDROOT
BRANCH   1   2
ATOM      2  C   UNL     1       5.188   1.592   1.071  1.00  0.00     0.130 C 
ATOM      3  C   UNL     1       4.719   2.148  -0.226  1.00  0.00     0.087 C 
ATOM      4  O   UNL     1       4.355   1.429   1.948  1.00  0.00    -0.300 OA
ENDBRANCH   1   2
BRANCH   1   5
ATOM      5  C   UNL     1       7.435   1.407   0.035  1.00  0.00     0.043 C 
BRANCH   5   6
ATOM      6  C   UNL     1       7.737   0.108  -0.592  1.00  0.00    -0.044 A 
ATOM      7  C   UNL     1       7.806  -0.037  -1.982  1.00  0.00     0.008 A 
ATOM      8  C   UNL     1       7.960  -0.996   0.200  1.00  0.00     0.054 A 
ATOM      9  C   UNL     1       8.094  -1.281  -2.513  1.00  0.00     0.051 A 
ATOM     10  C   UNL     1       8.252  -2.251  -0.342  1.00  0.00     0.166 A 
ATOM     11  C   UNL     1       8.319  -2.395  -1.710  1.00  0.00     0.165 A 
ATOM     12  O   UNL     1       8.509  -3.482   0.223  1.00  0.00    -0.454 OA
ATOM     13  O   UNL     1       8.620  -3.725  -1.959  1.00  0.00    -0.454 OA
ATOM     14  C   UNL     1       8.838  -4.429  -0.760  1.00  0.00     0.468 C 
ENDBRANCH   5   6
ENDBRANCH   1   5
TORSDOF 3
ENDMDL
