@<TRIPOS>MOLECULE
/home/cewinharhar/GITHUB/reincatalyze/data/processed/docking_pred/2023-May-24-1506_sub9_nm5_bs15_s42_ex16_mel10_mts10000_k50_ec02_g099_lra3e-4_lrc3e-3/c63ad29e91363ee592d9ff185fc87121b24a9cdc_ligand_9.pdbqt
 14 15 0 0 0
SMALL
GASTEIGER

@<TRIPOS>ATOM
      1  C          5.5650    1.8850    1.2880 C.3     1  UNL1        0.0800
      2  C          5.1110    0.6700    2.0210 C.2     1  UNL1        0.1300
      3  C          5.9970   -0.5130    2.1950 C.3     1  UNL1        0.0870
      4  O          3.9910    0.6100    2.5020 O.2     1  UNL1       -0.3000
      5  C          5.4260    1.7080   -0.2110 C.3     1  UNL1        0.0430
      6  C          6.5870    1.0080   -0.7880 C.2     1  UNL1       -0.0440
      7  C          7.8960    1.4450   -0.5580 C.2     1  UNL1        0.0080
      8  C          6.3910   -0.1060   -1.5720 C.2     1  UNL1        0.0540
      9  C          8.9470    0.7470   -1.1250 C.2     1  UNL1        0.0510
     10  C          7.4560   -0.8090   -2.1430 C.2     1  UNL1        0.1660
     11  C          8.7450   -0.3780   -1.9180 C.2     1  UNL1        0.1650
     12  O          7.5210   -1.9260   -2.9480 O.2     1  UNL1       -0.4540
     13  O          9.5830   -1.2500   -2.5950 O.2     1  UNL1       -0.4540
     14  C          8.8540   -2.2990   -3.1860 C.3     1  UNL1        0.4680
@<TRIPOS>BOND
     1    14    12    1
     2    14    13    1
     3    12    10    1
     4    13    11    1
     5    10    11    2
     6    10     8    1
     7    11     9    1
     8     8     6    2
     9     9     7    2
    10     6     7    1
    11     6     5    1
    12     5     1    1
    13     1     2    1
    14     2     3    1
    15     2     4    2
