@<TRIPOS>MOLECULE
/home/cewinharhar/GITHUB/reincatalyze/data/processed/docking_pred/2023-May-24-1506_sub9_nm5_bs15_s42_ex16_mel10_mts10000_k50_ec02_g099_lra3e-4_lrc3e-3/c63ad29e91363ee592d9ff185fc87121b24a9cdc_ligand_9.pdbqt
 14 15 0 0 0
SMALL
GASTEIGER

@<TRIPOS>ATOM
      1  C          6.6180    1.2440    1.3010 C.3     1  UNL1        0.0800
      2  C          5.1880    1.5920    1.0710 C.2     1  UNL1        0.1300
      3  C          4.7190    2.1480   -0.2260 C.3     1  UNL1        0.0870
      4  O          4.3550    1.4290    1.9480 O.2     1  UNL1       -0.3000
      5  C          7.4350    1.4070    0.0350 C.3     1  UNL1        0.0430
      6  C          7.7370    0.1080   -0.5920 C.2     1  UNL1       -0.0440
      7  C          7.8060   -0.0370   -1.9820 C.2     1  UNL1        0.0080
      8  C          7.9600   -0.9960    0.2000 C.2     1  UNL1        0.0540
      9  C          8.0940   -1.2810   -2.5130 C.2     1  UNL1        0.0510
     10  C          8.2520   -2.2510   -0.3420 C.2     1  UNL1        0.1660
     11  C          8.3190   -2.3950   -1.7100 C.2     1  UNL1        0.1650
     12  O          8.5090   -3.4820    0.2230 O.2     1  UNL1       -0.4540
     13  O          8.6200   -3.7250   -1.9590 O.2     1  UNL1       -0.4540
     14  C          8.8380   -4.4290   -0.7600 C.3     1  UNL1        0.4680
@<TRIPOS>BOND
     1     9     7    1
     2     9    11    2
     3     7     6    2
     4    13    11    1
     5    13    14    1
     6    11    10    1
     7    14    12    1
     8     6     5    1
     9     6     8    1
    10    10     8    2
    11    10    12    1
    12     3     2    1
    13     5     1    1
    14     2     1    1
    15     2     4    2
