@<TRIPOS>MOLECULE
/home/cewinharhar/GITHUB/reincatalyze/data/processed/docking_pred/2023-May-24-1506_sub9_nm5_bs15_s42_ex16_mel10_mts10000_k50_ec02_g099_lra3e-4_lrc3e-3/c645e15ff7586852ea6fa62c5aba29cf5833f83f_ligand_9.pdbqt
 14 15 0 0 0
SMALL
GASTEIGER

@<TRIPOS>ATOM
      1  C          5.5600    1.9160    1.2760 C.3     1  UNL1        0.0800
      2  C          5.1340    0.6960    2.0150 C.2     1  UNL1        0.1300
      3  C          6.0470   -0.4640    2.2020 C.3     1  UNL1        0.0870
      4  O          4.0130    0.6110    2.4920 O.2     1  UNL1       -0.3000
      5  C          5.4240    1.7280   -0.2220 C.3     1  UNL1        0.0430
      6  C          6.5860    1.0210   -0.7920 C.2     1  UNL1       -0.0440
      7  C          7.8960    1.4500   -0.5500 C.2     1  UNL1        0.0080
      8  C          6.3880   -0.0900   -1.5790 C.2     1  UNL1        0.0540
      9  C          8.9460    0.7460   -1.1100 C.2     1  UNL1        0.0510
     10  C          7.4540   -0.7990   -2.1430 C.2     1  UNL1        0.1660
     11  C          8.7430   -0.3770   -1.9070 C.2     1  UNL1        0.1650
     12  O          7.5180   -1.9160   -2.9490 O.2     1  UNL1       -0.4540
     13  O          9.5810   -1.2530   -2.5780 O.2     1  UNL1       -0.4540
     14  C          8.8510   -2.2960   -3.1780 C.3     1  UNL1        0.4680
@<TRIPOS>BOND
     1    14    12    1
     2    14    13    1
     3    12    10    1
     4    13    11    1
     5    10    11    2
     6    10     8    1
     7    11     9    1
     8     8     6    2
     9     9     7    2
    10     6     7    1
    11     6     5    1
    12     5     1    1
    13     1     2    1
    14     2     3    1
    15     2     4    2
