MODEL 1
REMARK VINA RESULT:      -7.6      0.000      0.000
REMARK SMILES CC(=O)CCc1ccc2c(c1)OCO2
REMARK SMILES IDX 4 1 2 2 1 3 3 4 5 5 6 6 7 7 11 8 8 9 10 10 9 11 12 12 14 13
REMARK SMILES IDX 13 14
REMARK H PARENT
REMARK Flexibility Score: inf
ROOT
ATOM      1  C   UNL     1       5.560   1.916   1.276  1.00  0.00     0.080 C 
ENDROOT
BRANCH   1   2
ATOM      2  C   UNL     1       5.134   0.696   2.015  1.00  0.00     0.130 C 
ATOM      3  C   UNL     1       6.047  -0.464   2.202  1.00  0.00     0.087 C 
ATOM      4  O   UNL     1       4.013   0.611   2.492  1.00  0.00    -0.300 OA
ENDBRANCH   1   2
BRANCH   1   5
ATOM      5  C   UNL     1       5.424   1.728  -0.222  1.00  0.00     0.043 C 
BRANCH   5   6
ATOM      6  C   UNL     1       6.586   1.021  -0.792  1.00  0.00    -0.044 A 
ATOM      7  C   UNL     1       7.896   1.450  -0.550  1.00  0.00     0.008 A 
ATOM      8  C   UNL     1       6.388  -0.090  -1.579  1.00  0.00     0.054 A 
ATOM      9  C   UNL     1       8.946   0.746  -1.110  1.00  0.00     0.051 A 
ATOM     10  C   UNL     1       7.454  -0.799  -2.143  1.00  0.00     0.166 A 
ATOM     11  C   UNL     1       8.743  -0.377  -1.907  1.00  0.00     0.165 A 
ATOM     12  O   UNL     1       7.518  -1.916  -2.949  1.00  0.00    -0.454 OA
ATOM     13  O   UNL     1       9.581  -1.253  -2.578  1.00  0.00    -0.454 OA
ATOM     14  C   UNL     1       8.851  -2.296  -3.178  1.00  0.00     0.468 C 
ENDBRANCH   5   6
ENDBRANCH   1   5
TORSDOF 3
ENDMDL
MODEL 2
REMARK VINA RESULT:      -7.4      1.900      2.356
REMARK SMILES CC(=O)CCc1ccc2c(c1)OCO2
REMARK SMILES IDX 4 1 2 2 1 3 3 4 5 5 6 6 7 7 11 8 8 9 10 10 9 11 12 12 14 13
REMARK SMILES IDX 13 14
REMARK H PARENT
REMARK Flexibility Score: inf
ROOT
ATOM      1  C   UNL     1       5.684   1.360  -0.316  1.00  0.00     0.080 C 
ENDROOT
BRANCH   1   2
ATOM      2  C   UNL     1       5.108   1.273   1.056  1.00  0.00     0.130 C 
ATOM      3  C   UNL     1       5.400   0.124   1.954  1.00  0.00     0.087 C 
ATOM      4  O   UNL     1       4.375   2.150   1.484  1.00  0.00    -0.300 OA
ENDBRANCH   1   2
BRANCH   1   5
ATOM      5  C   UNL     1       7.185   1.151  -0.297  1.00  0.00     0.043 C 
BRANCH   5   6
ATOM      6  C   UNL     1       7.563  -0.144  -0.890  1.00  0.00    -0.044 A 
ATOM      7  C   UNL     1       7.632  -0.324  -2.276  1.00  0.00     0.008 A 
ATOM      8  C   UNL     1       7.861  -1.209  -0.070  1.00  0.00     0.054 A 
ATOM      9  C   UNL     1       7.994  -1.561  -2.776  1.00  0.00     0.051 A 
ATOM     10  C   UNL     1       8.227  -2.458  -0.580  1.00  0.00     0.166 A 
ATOM     11  C   UNL     1       8.294  -2.636  -1.944  1.00  0.00     0.165 A 
ATOM     12  O   UNL     1       8.564  -3.655   0.017  1.00  0.00    -0.454 OA
ATOM     13  O   UNL     1       8.676  -3.951  -2.159  1.00  0.00    -0.454 OA
ATOM     14  C   UNL     1       8.946  -4.607  -0.943  1.00  0.00     0.468 C 
ENDBRANCH   5   6
ENDBRANCH   1   5
TORSDOF 3
ENDMDL
MODEL 3
REMARK VINA RESULT:      -7.1      2.079      2.622
REMARK SMILES CC(=O)CCc1ccc2c(c1)OCO2
REMARK SMILES IDX 4 1 2 2 1 3 3 4 5 5 6 6 7 7 11 8 8 9 10 10 9 11 12 12 14 13
REMARK SMILES IDX 13 14
REMARK H PARENT
REMARK Flexibility Score: inf
ROOT
ATOM      1  C   UNL     1       5.552   0.005   1.943  1.00  0.00     0.080 C 
ENDROOT
BRANCH   1   2
ATOM      2  C   UNL     1       4.670   1.166   1.638  1.00  0.00     0.130 C 
ATOM      3  C   UNL     1       4.997   2.132   0.555  1.00  0.00     0.087 C 
ATOM      4  O   UNL     1       3.646   1.360   2.274  1.00  0.00    -0.300 OA
ENDBRANCH   1   2
BRANCH   1   5
ATOM      5  C   UNL     1       6.970   0.251   1.469  1.00  0.00     0.043 C 
BRANCH   5   6
ATOM      6  C   UNL     1       7.373  -0.711   0.428  1.00  0.00    -0.044 A 
ATOM      7  C   UNL     1       7.253  -0.411  -0.934  1.00  0.00     0.008 A 
ATOM      8  C   UNL     1       7.883  -1.936   0.792  1.00  0.00     0.054 A 
ATOM      9  C   UNL     1       7.648  -1.353  -1.866  1.00  0.00     0.051 A 
ATOM     10  C   UNL     1       8.282  -2.885  -0.154  1.00  0.00     0.166 A 
ATOM     11  C   UNL     1       8.163  -2.591  -1.494  1.00  0.00     0.165 A 
ATOM     12  O   UNL     1       8.810  -4.154  -0.047  1.00  0.00    -0.454 OA
ATOM     13  O   UNL     1       8.626  -3.697  -2.190  1.00  0.00    -0.454 OA
ATOM     14  C   UNL     1       9.130  -4.675  -1.312  1.00  0.00     0.468 C 
ENDBRANCH   5   6
ENDBRANCH   1   5
TORSDOF 3
ENDMDL
MODEL 4
REMARK VINA RESULT:      -7.0      1.248      1.457
REMARK SMILES CC(=O)CCc1ccc2c(c1)OCO2
REMARK SMILES IDX 4 1 2 2 1 3 3 4 5 5 6 6 7 7 11 8 8 9 10 10 9 11 12 12 14 13
REMARK SMILES IDX 13 14
REMARK H PARENT
REMARK Flexibility Score: inf
ROOT
ATOM      1  C   UNL     1       6.387   1.182   0.943  1.00  0.00     0.080 C 
ENDROOT
BRANCH   1   2
ATOM      2  C   UNL     1       5.661   0.366   1.957  1.00  0.00     0.130 C 
ATOM      3  C   UNL     1       6.261  -0.860   2.547  1.00  0.00     0.087 C 
ATOM      4  O   UNL     1       4.544   0.683   2.333  1.00  0.00    -0.300 OA
ENDBRANCH   1   2
BRANCH   1   5
ATOM      5  C   UNL     1       5.874   0.905  -0.456  1.00  0.00     0.043 C 
BRANCH   5   6
ATOM      6  C   UNL     1       6.821   0.085  -1.233  1.00  0.00    -0.044 A 
ATOM      7  C   UNL     1       7.502   0.604  -2.340  1.00  0.00     0.008 A 
ATOM      8  C   UNL     1       7.051  -1.222  -0.868  1.00  0.00     0.054 A 
ATOM      9  C   UNL     1       8.380  -0.212  -3.030  1.00  0.00     0.051 A 
ATOM     10  C   UNL     1       7.940  -2.042  -1.569  1.00  0.00     0.166 A 
ATOM     11  C   UNL     1       8.610  -1.533  -2.659  1.00  0.00     0.165 A 
ATOM     12  O   UNL     1       8.335  -3.353  -1.409  1.00  0.00    -0.454 OA
ATOM     13  O   UNL     1       9.411  -2.552  -3.150  1.00  0.00    -0.454 OA
ATOM     14  C   UNL     1       9.335  -3.696  -2.333  1.00  0.00     0.468 C 
ENDBRANCH   5   6
ENDBRANCH   1   5
TORSDOF 3
ENDMDL
MODEL 5
REMARK VINA RESULT:      -6.7      1.252      1.749
REMARK SMILES CC(=O)CCc1ccc2c(c1)OCO2
REMARK SMILES IDX 4 1 2 2 1 3 3 4 5 5 6 6 7 7 11 8 8 9 10 10 9 11 12 12 14 13
REMARK SMILES IDX 13 14
REMARK H PARENT
REMARK Flexibility Score: inf
ROOT
ATOM      1  C   UNL     1       5.328  -0.083   1.960  1.00  0.00     0.080 C 
ENDROOT
BRANCH   1   2
ATOM      2  C   UNL     1       4.452   1.110   1.789  1.00  0.00     0.130 C 
ATOM      3  C   UNL     1       4.739   2.149   0.764  1.00  0.00     0.087 C 
ATOM      4  O   UNL     1       3.467   1.270   2.491  1.00  0.00    -0.300 OA
ENDBRANCH   1   2
BRANCH   1   5
ATOM      5  C   UNL     1       6.794   0.299   1.906  1.00  0.00     0.043 C 
BRANCH   5   6
ATOM      6  C   UNL     1       7.401  -0.050   0.609  1.00  0.00    -0.044 A 
ATOM      7  C   UNL     1       7.909   0.931  -0.251  1.00  0.00     0.008 A 
ATOM      8  C   UNL     1       7.479  -1.369   0.225  1.00  0.00     0.054 A 
ATOM      9  C   UNL     1       8.468   0.545  -1.455  1.00  0.00     0.051 A 
ATOM     10  C   UNL     1       8.046  -1.755  -0.994  1.00  0.00     0.166 A 
ATOM     11  C   UNL     1       8.544  -0.790  -1.840  1.00  0.00     0.165 A 
ATOM     12  O   UNL     1       8.238  -2.981  -1.595  1.00  0.00    -0.454 OA
ATOM     13  O   UNL     1       9.037  -1.451  -2.955  1.00  0.00    -0.454 OA
ATOM     14  C   UNL     1       8.945  -2.847  -2.800  1.00  0.00     0.468 C 
ENDBRANCH   5   6
ENDBRANCH   1   5
TORSDOF 3
ENDMDL
