@<TRIPOS>MOLECULE
/home/cewinharhar/GITHUB/reincatalyze/data/processed/docking_pred/2023-May-24-1506_sub9_nm5_bs15_s42_ex16_mel10_mts10000_k50_ec02_g099_lra3e-4_lrc3e-3/c645e15ff7586852ea6fa62c5aba29cf5833f83f_ligand_9.pdbqt
 14 15 0 0 0
SMALL
GASTEIGER

@<TRIPOS>ATOM
      1  C          5.5520    0.0050    1.9430 C.3     1  UNL1        0.0800
      2  C          4.6700    1.1660    1.6380 C.2     1  UNL1        0.1300
      3  C          4.9970    2.1320    0.5550 C.3     1  UNL1        0.0870
      4  O          3.6460    1.3600    2.2740 O.2     1  UNL1       -0.3000
      5  C          6.9700    0.2510    1.4690 C.3     1  UNL1        0.0430
      6  C          7.3730   -0.7110    0.4280 C.2     1  UNL1       -0.0440
      7  C          7.2530   -0.4110   -0.9340 C.2     1  UNL1        0.0080
      8  C          7.8830   -1.9360    0.7920 C.2     1  UNL1        0.0540
      9  C          7.6480   -1.3530   -1.8660 C.2     1  UNL1        0.0510
     10  C          8.2820   -2.8850   -0.1540 C.2     1  UNL1        0.1660
     11  C          8.1630   -2.5910   -1.4940 C.2     1  UNL1        0.1650
     12  O          8.8100   -4.1540   -0.0470 O.2     1  UNL1       -0.4540
     13  O          8.6260   -3.6970   -2.1900 O.2     1  UNL1       -0.4540
     14  C          9.1300   -4.6750   -1.3120 C.3     1  UNL1        0.4680
@<TRIPOS>BOND
     1    13    11    1
     2    13    14    1
     3     9    11    2
     4     9     7    1
     5    11    10    1
     6    14    12    1
     7     7     6    2
     8    10    12    1
     9    10     8    2
    10     6     8    1
    11     6     5    1
    12     3     2    1
    13     5     1    1
    14     2     1    1
    15     2     4    2
