@<TRIPOS>MOLECULE
/home/cewinharhar/GITHUB/reincatalyze/data/processed/docking_pred/2023-May-24-1506_sub9_nm5_bs15_s42_ex16_mel10_mts10000_k50_ec02_g099_lra3e-4_lrc3e-3/c645e15ff7586852ea6fa62c5aba29cf5833f83f_ligand_9.pdbqt
 14 15 0 0 0
SMALL
GASTEIGER

@<TRIPOS>ATOM
      1  C          5.6840    1.3600   -0.3160 C.3     1  UNL1        0.0800
      2  C          5.1080    1.2730    1.0560 C.2     1  UNL1        0.1300
      3  C          5.4000    0.1240    1.9540 C.3     1  UNL1        0.0870
      4  O          4.3750    2.1500    1.4840 O.2     1  UNL1       -0.3000
      5  C          7.1850    1.1510   -0.2970 C.3     1  UNL1        0.0430
      6  C          7.5630   -0.1440   -0.8900 C.2     1  UNL1       -0.0440
      7  C          7.6320   -0.3240   -2.2760 C.2     1  UNL1        0.0080
      8  C          7.8610   -1.2090   -0.0700 C.2     1  UNL1        0.0540
      9  C          7.9940   -1.5610   -2.7760 C.2     1  UNL1        0.0510
     10  C          8.2270   -2.4580   -0.5800 C.2     1  UNL1        0.1660
     11  C          8.2940   -2.6360   -1.9440 C.2     1  UNL1        0.1650
     12  O          8.5640   -3.6550    0.0170 O.2     1  UNL1       -0.4540
     13  O          8.6760   -3.9510   -2.1590 O.2     1  UNL1       -0.4540
     14  C          8.9460   -4.6070   -0.9430 C.3     1  UNL1        0.4680
@<TRIPOS>BOND
     1     9     7    1
     2     9    11    2
     3     7     6    2
     4    13    11    1
     5    13    14    1
     6    11    10    1
     7    14    12    1
     8     6     5    1
     9     6     8    1
    10    10     8    2
    11    10    12    1
    12     1     5    1
    13     1     2    1
    14     2     4    2
    15     2     3    1
