MODEL 1
REMARK VINA RESULT:      -7.7      0.000      0.000
REMARK SMILES CC(=O)CCc1ccc2c(c1)OCO2
REMARK SMILES IDX 4 1 2 2 1 3 3 4 5 5 6 6 7 7 11 8 8 9 10 10 9 11 12 12 14 13
REMARK SMILES IDX 13 14
REMARK H PARENT
REMARK Flexibility Score: inf
ROOT
ATOM      1  C   UNL     1       5.500   1.945   1.247  1.00  0.00     0.080 C 
ENDROOT
BRANCH   1   2
ATOM      2  C   UNL     1       5.080   0.729   1.997  1.00  0.00     0.130 C 
ATOM      3  C   UNL     1       5.991  -0.435   2.169  1.00  0.00     0.087 C 
ATOM      4  O   UNL     1       3.969   0.652   2.496  1.00  0.00    -0.300 OA
ENDBRANCH   1   2
BRANCH   1   5
ATOM      5  C   UNL     1       5.378   1.738  -0.250  1.00  0.00     0.043 C 
BRANCH   5   6
ATOM      6  C   UNL     1       6.550   1.036  -0.802  1.00  0.00    -0.044 A 
ATOM      7  C   UNL     1       7.855   1.466  -0.534  1.00  0.00     0.008 A 
ATOM      8  C   UNL     1       6.370  -0.071  -1.599  1.00  0.00     0.054 A 
ATOM      9  C   UNL     1       8.917   0.768  -1.079  1.00  0.00     0.051 A 
ATOM     10  C   UNL     1       7.447  -0.774  -2.147  1.00  0.00     0.166 A 
ATOM     11  C   UNL     1       8.731  -0.351  -1.885  1.00  0.00     0.165 A 
ATOM     12  O   UNL     1       7.528  -1.886  -2.958  1.00  0.00    -0.454 OA
ATOM     13  O   UNL     1       9.583  -1.222  -2.546  1.00  0.00    -0.454 OA
ATOM     14  C   UNL     1       8.865  -2.264  -3.164  1.00  0.00     0.468 C 
ENDBRANCH   5   6
ENDBRANCH   1   5
TORSDOF 3
ENDMDL
MODEL 2
REMARK VINA RESULT:      -7.4      1.930      2.422
REMARK SMILES CC(=O)CCc1ccc2c(c1)OCO2
REMARK SMILES IDX 4 1 2 2 1 3 3 4 5 5 6 6 7 7 11 8 8 9 10 10 9 11 12 12 14 13
REMARK SMILES IDX 13 14
REMARK H PARENT
REMARK Flexibility Score: inf
ROOT
ATOM      1  C   UNL     1       5.758   1.264  -0.345  1.00  0.00     0.080 C 
ENDROOT
BRANCH   1   2
ATOM      2  C   UNL     1       5.233   1.222   1.048  1.00  0.00     0.130 C 
ATOM      3  C   UNL     1       5.475   0.056   1.940  1.00  0.00     0.087 C 
ATOM      4  O   UNL     1       4.583   2.150   1.501  1.00  0.00    -0.300 OA
ENDBRANCH   1   2
BRANCH   1   5
ATOM      5  C   UNL     1       7.263   1.080  -0.371  1.00  0.00     0.043 C 
BRANCH   5   6
ATOM      6  C   UNL     1       7.645  -0.220  -0.951  1.00  0.00    -0.044 A 
ATOM      7  C   UNL     1       7.756  -0.401  -2.335  1.00  0.00     0.008 A 
ATOM      8  C   UNL     1       7.903  -1.287  -0.122  1.00  0.00     0.054 A 
ATOM      9  C   UNL     1       8.119  -1.643  -2.822  1.00  0.00     0.051 A 
ATOM     10  C   UNL     1       8.271  -2.541  -0.620  1.00  0.00     0.166 A 
ATOM     11  C   UNL     1       8.379  -2.720  -1.981  1.00  0.00     0.165 A 
ATOM     12  O   UNL     1       8.574  -3.741  -0.012  1.00  0.00    -0.454 OA
ATOM     13  O   UNL     1       8.752  -4.040  -2.183  1.00  0.00    -0.454 OA
ATOM     14  C   UNL     1       8.975  -4.698  -0.959  1.00  0.00     0.468 C 
ENDBRANCH   5   6
ENDBRANCH   1   5
TORSDOF 3
ENDMDL
MODEL 3
REMARK VINA RESULT:      -7.2      2.101      2.632
REMARK SMILES CC(=O)CCc1ccc2c(c1)OCO2
REMARK SMILES IDX 4 1 2 2 1 3 3 4 5 5 6 6 7 7 11 8 8 9 10 10 9 11 12 12 14 13
REMARK SMILES IDX 13 14
REMARK H PARENT
REMARK Flexibility Score: inf
ROOT
ATOM      1  C   UNL     1       5.566   0.001   1.915  1.00  0.00     0.080 C 
ENDROOT
BRANCH   1   2
ATOM      2  C   UNL     1       4.677   1.162   1.631  1.00  0.00     0.130 C 
ATOM      3  C   UNL     1       4.956   2.104   0.514  1.00  0.00     0.087 C 
ATOM      4  O   UNL     1       3.688   1.376   2.313  1.00  0.00    -0.300 OA
ENDBRANCH   1   2
BRANCH   1   5
ATOM      5  C   UNL     1       6.981   0.261   1.438  1.00  0.00     0.043 C 
BRANCH   5   6
ATOM      6  C   UNL     1       7.396  -0.706   0.407  1.00  0.00    -0.044 A 
ATOM      7  C   UNL     1       7.318  -0.403  -0.957  1.00  0.00     0.008 A 
ATOM      8  C   UNL     1       7.877  -1.940   0.783  1.00  0.00     0.054 A 
ATOM      9  C   UNL     1       7.723  -1.350  -1.880  1.00  0.00     0.051 A 
ATOM     10  C   UNL     1       8.285  -2.894  -0.154  1.00  0.00     0.166 A 
ATOM     11  C   UNL     1       8.208  -2.597  -1.496  1.00  0.00     0.165 A 
ATOM     12  O   UNL     1       8.790  -4.172  -0.035  1.00  0.00    -0.454 OA
ATOM     13  O   UNL     1       8.672  -3.709  -2.181  1.00  0.00    -0.454 OA
ATOM     14  C   UNL     1       9.136  -4.696  -1.292  1.00  0.00     0.468 C 
ENDBRANCH   5   6
ENDBRANCH   1   5
TORSDOF 3
ENDMDL
MODEL 4
REMARK VINA RESULT:      -7.1      1.271      1.494
REMARK SMILES CC(=O)CCc1ccc2c(c1)OCO2
REMARK SMILES IDX 4 1 2 2 1 3 3 4 5 5 6 6 7 7 11 8 8 9 10 10 9 11 12 12 14 13
REMARK SMILES IDX 13 14
REMARK H PARENT
REMARK Flexibility Score: inf
ROOT
ATOM      1  C   UNL     1       6.405   1.197   0.933  1.00  0.00     0.080 C 
ENDROOT
BRANCH   1   2
ATOM      2  C   UNL     1       5.667   0.376   1.934  1.00  0.00     0.130 C 
ATOM      3  C   UNL     1       6.261  -0.852   2.526  1.00  0.00     0.087 C 
ATOM      4  O   UNL     1       4.546   0.692   2.299  1.00  0.00    -0.300 OA
ENDBRANCH   1   2
BRANCH   1   5
ATOM      5  C   UNL     1       5.903   0.931  -0.473  1.00  0.00     0.043 C 
BRANCH   5   6
ATOM      6  C   UNL     1       6.844   0.096  -1.240  1.00  0.00    -0.044 A 
ATOM      7  C   UNL     1       7.533   0.597  -2.350  1.00  0.00     0.008 A 
ATOM      8  C   UNL     1       7.060  -1.210  -0.863  1.00  0.00     0.054 A 
ATOM      9  C   UNL     1       8.404  -0.233  -3.031  1.00  0.00     0.051 A 
ATOM     10  C   UNL     1       7.942  -2.046  -1.554  1.00  0.00     0.166 A 
ATOM     11  C   UNL     1       8.619  -1.554  -2.648  1.00  0.00     0.165 A 
ATOM     12  O   UNL     1       8.322  -3.360  -1.381  1.00  0.00    -0.454 OA
ATOM     13  O   UNL     1       9.411  -2.586  -3.127  1.00  0.00    -0.454 OA
ATOM     14  C   UNL     1       9.322  -3.721  -2.300  1.00  0.00     0.468 C 
ENDBRANCH   5   6
ENDBRANCH   1   5
TORSDOF 3
ENDMDL
MODEL 5
REMARK VINA RESULT:      -6.8      1.189      5.164
REMARK SMILES CC(=O)CCc1ccc2c(c1)OCO2
REMARK SMILES IDX 4 1 2 2 1 3 3 4 5 5 6 6 7 7 11 8 8 9 10 10 9 11 12 12 14 13
REMARK SMILES IDX 13 14
REMARK H PARENT
REMARK Flexibility Score: inf
ROOT
ATOM      1  C   UNL     1       8.348   0.189  -2.676  1.00  0.00     0.080 C 
ENDROOT
BRANCH   1   2
ATOM      2  C   UNL     1       8.058  -1.270  -2.766  1.00  0.00     0.130 C 
ATOM      3  C   UNL     1       9.131  -2.264  -3.032  1.00  0.00     0.087 C 
ATOM      4  O   UNL     1       6.922  -1.693  -2.622  1.00  0.00    -0.300 OA
ENDBRANCH   1   2
BRANCH   1   5
ATOM      5  C   UNL     1       8.876   0.561  -1.305  1.00  0.00     0.043 C 
BRANCH   5   6
ATOM      6  C   UNL     1       7.843   0.420  -0.264  1.00  0.00    -0.044 A 
ATOM      7  C   UNL     1       7.951  -0.537   0.752  1.00  0.00     0.008 A 
ATOM      8  C   UNL     1       6.742   1.246  -0.279  1.00  0.00     0.054 A 
ATOM      9  C   UNL     1       6.950  -0.623   1.703  1.00  0.00     0.051 A 
ATOM     10  C   UNL     1       5.733   1.156   0.685  1.00  0.00     0.166 A 
ATOM     11  C   UNL     1       5.838   0.213   1.684  1.00  0.00     0.165 A 
ATOM     12  O   UNL     1       4.558   1.849   0.883  1.00  0.00    -0.454 OA
ATOM     13  O   UNL     1       4.714   0.350   2.484  1.00  0.00    -0.454 OA
ATOM     14  C   UNL     1       3.921   1.435   2.065  1.00  0.00     0.468 C 
ENDBRANCH   5   6
ENDBRANCH   1   5
TORSDOF 3
ENDMDL
