@<TRIPOS>MOLECULE
/home/cewinharhar/GITHUB/reincatalyze/data/processed/docking_pred/2023-May-24-1506_sub9_nm5_bs15_s42_ex16_mel10_mts10000_k50_ec02_g099_lra3e-4_lrc3e-3/c6f7ed627fe12308445a4436d87b5ee6093cef8d_ligand_9.pdbqt
 14 15 0 0 0
SMALL
GASTEIGER

@<TRIPOS>ATOM
      1  C          5.7580    1.2640   -0.3450 C.3     1  UNL1        0.0800
      2  C          5.2330    1.2220    1.0480 C.2     1  UNL1        0.1300
      3  C          5.4750    0.0560    1.9400 C.3     1  UNL1        0.0870
      4  O          4.5830    2.1500    1.5010 O.2     1  UNL1       -0.3000
      5  C          7.2630    1.0800   -0.3710 C.3     1  UNL1        0.0430
      6  C          7.6450   -0.2200   -0.9510 C.2     1  UNL1       -0.0440
      7  C          7.7560   -0.4010   -2.3350 C.2     1  UNL1        0.0080
      8  C          7.9030   -1.2870   -0.1220 C.2     1  UNL1        0.0540
      9  C          8.1190   -1.6430   -2.8220 C.2     1  UNL1        0.0510
     10  C          8.2710   -2.5410   -0.6200 C.2     1  UNL1        0.1660
     11  C          8.3790   -2.7200   -1.9810 C.2     1  UNL1        0.1650
     12  O          8.5740   -3.7410   -0.0120 O.2     1  UNL1       -0.4540
     13  O          8.7520   -4.0400   -2.1830 O.2     1  UNL1       -0.4540
     14  C          8.9750   -4.6980   -0.9590 C.3     1  UNL1        0.4680
@<TRIPOS>BOND
     1     9     7    1
     2     9    11    2
     3     7     6    2
     4    13    11    1
     5    13    14    1
     6    11    10    1
     7    14    12    1
     8     6     5    1
     9     6     8    1
    10    10     8    2
    11    10    12    1
    12     5     1    1
    13     1     2    1
    14     2     4    2
    15     2     3    1
