@<TRIPOS>MOLECULE
/home/cewinharhar/GITHUB/reincatalyze/data/processed/docking_pred/2023-May-24-1506_sub9_nm5_bs15_s42_ex16_mel10_mts10000_k50_ec02_g099_lra3e-4_lrc3e-3/c8a10dea28a77dd5a54e6b3bff917c6d12aef46d_ligand_9.pdbqt
 14 15 0 0 0
SMALL
GASTEIGER

@<TRIPOS>ATOM
      1  C          5.3160   -0.0770    1.9940 C.3     1  UNL1        0.0800
      2  C          4.4470    1.1180    1.8070 C.2     1  UNL1        0.1300
      3  C          4.7480    2.1500    0.7790 C.3     1  UNL1        0.0870
      4  O          3.4550    1.2860    2.4990 O.2     1  UNL1       -0.3000
      5  C          6.7840    0.2950    1.9320 C.3     1  UNL1        0.0430
      6  C          7.3810   -0.0510    0.6300 C.2     1  UNL1       -0.0440
      7  C          7.8660    0.9330   -0.2400 C.2     1  UNL1        0.0080
      8  C          7.4730   -1.3710    0.2510 C.2     1  UNL1        0.0540
      9  C          8.4170    0.5480   -1.4480 C.2     1  UNL1        0.0510
     10  C          8.0310   -1.7560   -0.9720 C.2     1  UNL1        0.1660
     11  C          8.5070   -0.7880   -1.8290 C.2     1  UNL1        0.1650
     12  O          8.2320   -2.9820   -1.5690 O.2     1  UNL1       -0.4540
     13  O          8.9960   -1.4470   -2.9450 O.2     1  UNL1       -0.4540
     14  C          8.9240   -2.8440   -2.7830 C.3     1  UNL1        0.4680
@<TRIPOS>BOND
     1    13    14    1
     2    13    11    1
     3    14    12    1
     4    11     9    2
     5    11    10    1
     6    12    10    1
     7     9     7    1
     8    10     8    2
     9     7     6    2
    10     8     6    1
    11     6     5    1
    12     3     2    1
    13     2     1    1
    14     2     4    2
    15     5     1    1
