MODEL 1
REMARK VINA RESULT:      -7.7      0.000      0.000
REMARK SMILES CC(=O)CCc1ccc2c(c1)OCO2
REMARK SMILES IDX 4 1 2 2 1 3 3 4 5 5 6 6 7 7 11 8 8 9 10 10 9 11 12 12 14 13
REMARK SMILES IDX 13 14
REMARK H PARENT
REMARK Flexibility Score: inf
ROOT
ATOM      1  C   UNL     1       5.514   1.921   1.262  1.00  0.00     0.080 C 
ENDROOT
BRANCH   1   2
ATOM      2  C   UNL     1       5.064   0.708   2.000  1.00  0.00     0.130 C 
ATOM      3  C   UNL     1       5.943  -0.482   2.156  1.00  0.00     0.087 C 
ATOM      4  O   UNL     1       3.952   0.655   2.501  1.00  0.00    -0.300 OA
ENDBRANCH   1   2
BRANCH   1   5
ATOM      5  C   UNL     1       5.390   1.731  -0.237  1.00  0.00     0.043 C 
BRANCH   5   6
ATOM      6  C   UNL     1       6.559   1.031  -0.797  1.00  0.00    -0.044 A 
ATOM      7  C   UNL     1       7.865   1.468  -0.548  1.00  0.00     0.008 A 
ATOM      8  C   UNL     1       6.374  -0.083  -1.584  1.00  0.00     0.054 A 
ATOM      9  C   UNL     1       8.923   0.770  -1.100  1.00  0.00     0.051 A 
ATOM     10  C   UNL     1       7.447  -0.786  -2.139  1.00  0.00     0.166 A 
ATOM     11  C   UNL     1       8.732  -0.356  -1.896  1.00  0.00     0.165 A 
ATOM     12  O   UNL     1       7.524  -1.904  -2.943  1.00  0.00    -0.454 OA
ATOM     13  O   UNL     1       9.580  -1.228  -2.561  1.00  0.00    -0.454 OA
ATOM     14  C   UNL     1       8.860  -2.277  -3.162  1.00  0.00     0.468 C 
ENDBRANCH   5   6
ENDBRANCH   1   5
TORSDOF 3
ENDMDL
MODEL 2
REMARK VINA RESULT:      -7.4      1.789      2.207
REMARK SMILES CC(=O)CCc1ccc2c(c1)OCO2
REMARK SMILES IDX 4 1 2 2 1 3 3 4 5 5 6 6 7 7 11 8 8 9 10 10 9 11 12 12 14 13
REMARK SMILES IDX 13 14
REMARK H PARENT
REMARK Flexibility Score: inf
ROOT
ATOM      1  C   UNL     1       5.611   1.496  -0.154  1.00  0.00     0.080 C 
ENDROOT
BRANCH   1   2
ATOM      2  C   UNL     1       4.971   1.253   1.169  1.00  0.00     0.130 C 
ATOM      3  C   UNL     1       5.379   0.115   2.036  1.00  0.00     0.087 C 
ATOM      4  O   UNL     1       4.087   1.986   1.582  1.00  0.00    -0.300 OA
ENDBRANCH   1   2
BRANCH   1   5
ATOM      5  C   UNL     1       7.105   1.247  -0.096  1.00  0.00     0.043 C 
BRANCH   5   6
ATOM      6  C   UNL     1       7.477  -0.005  -0.779  1.00  0.00    -0.044 A 
ATOM      7  C   UNL     1       7.466  -0.110  -2.175  1.00  0.00     0.008 A 
ATOM      8  C   UNL     1       7.847  -1.103  -0.036  1.00  0.00     0.054 A 
ATOM      9  C   UNL     1       7.825  -1.311  -2.760  1.00  0.00     0.051 A 
ATOM     10  C   UNL     1       8.210  -2.315  -0.633  1.00  0.00     0.166 A 
ATOM     11  C   UNL     1       8.199  -2.419  -2.006  1.00  0.00     0.165 A 
ATOM     12  O   UNL     1       8.610  -3.531  -0.122  1.00  0.00    -0.454 OA
ATOM     13  O   UNL     1       8.597  -3.711  -2.313  1.00  0.00    -0.454 OA
ATOM     14  C   UNL     1       8.954  -4.422  -1.152  1.00  0.00     0.468 C 
ENDBRANCH   5   6
ENDBRANCH   1   5
TORSDOF 3
ENDMDL
MODEL 3
REMARK VINA RESULT:      -7.2      2.063      2.640
REMARK SMILES CC(=O)CCc1ccc2c(c1)OCO2
REMARK SMILES IDX 4 1 2 2 1 3 3 4 5 5 6 6 7 7 11 8 8 9 10 10 9 11 12 12 14 13
REMARK SMILES IDX 13 14
REMARK H PARENT
REMARK Flexibility Score: inf
ROOT
ATOM      1  C   UNL     1       5.402  -0.074   1.999  1.00  0.00     0.080 C 
ENDROOT
BRANCH   1   2
ATOM      2  C   UNL     1       4.575   1.143   1.766  1.00  0.00     0.130 C 
ATOM      3  C   UNL     1       4.920   2.131   0.710  1.00  0.00     0.087 C 
ATOM      4  O   UNL     1       3.584   1.366   2.442  1.00  0.00    -0.300 OA
ENDBRANCH   1   2
BRANCH   1   5
ATOM      5  C   UNL     1       6.848   0.160   1.609  1.00  0.00     0.043 C 
BRANCH   5   6
ATOM      6  C   UNL     1       7.282  -0.761   0.543  1.00  0.00    -0.044 A 
ATOM      7  C   UNL     1       7.161  -0.425  -0.810  1.00  0.00     0.008 A 
ATOM      8  C   UNL     1       7.824  -1.981   0.876  1.00  0.00     0.054 A 
ATOM      9  C   UNL     1       7.586  -1.329  -1.766  1.00  0.00     0.051 A 
ATOM     10  C   UNL     1       8.254  -2.891  -0.095  1.00  0.00     0.166 A 
ATOM     11  C   UNL     1       8.133  -2.562  -1.427  1.00  0.00     0.165 A 
ATOM     12  O   UNL     1       8.816  -4.148  -0.022  1.00  0.00    -0.454 OA
ATOM     13  O   UNL     1       8.631  -3.635  -2.151  1.00  0.00    -0.454 OA
ATOM     14  C   UNL     1       9.157  -4.623  -1.299  1.00  0.00     0.468 C 
ENDBRANCH   5   6
ENDBRANCH   1   5
TORSDOF 3
ENDMDL
MODEL 4
REMARK VINA RESULT:      -7.1      1.262      1.477
REMARK SMILES CC(=O)CCc1ccc2c(c1)OCO2
REMARK SMILES IDX 4 1 2 2 1 3 3 4 5 5 6 6 7 7 11 8 8 9 10 10 9 11 12 12 14 13
REMARK SMILES IDX 13 14
REMARK H PARENT
REMARK Flexibility Score: inf
ROOT
ATOM      1  C   UNL     1       6.392   1.192   0.949  1.00  0.00     0.080 C 
ENDROOT
BRANCH   1   2
ATOM      2  C   UNL     1       5.655   0.376   1.953  1.00  0.00     0.130 C 
ATOM      3  C   UNL     1       6.247  -0.852   2.548  1.00  0.00     0.087 C 
ATOM      4  O   UNL     1       4.535   0.694   2.319  1.00  0.00    -0.300 OA
ENDBRANCH   1   2
BRANCH   1   5
ATOM      5  C   UNL     1       5.883   0.929  -0.455  1.00  0.00     0.043 C 
BRANCH   5   6
ATOM      6  C   UNL     1       6.822   0.099  -1.230  1.00  0.00    -0.044 A 
ATOM      7  C   UNL     1       7.494   0.603  -2.350  1.00  0.00     0.008 A 
ATOM      8  C   UNL     1       7.054  -1.204  -0.851  1.00  0.00     0.054 A 
ATOM      9  C   UNL     1       8.365  -0.222  -3.038  1.00  0.00     0.051 A 
ATOM     10  C   UNL     1       7.936  -2.034  -1.550  1.00  0.00     0.166 A 
ATOM     11  C   UNL     1       8.596  -1.539  -2.652  1.00  0.00     0.165 A 
ATOM     12  O   UNL     1       8.330  -3.344  -1.377  1.00  0.00    -0.454 OA
ATOM     13  O   UNL     1       9.391  -2.565  -3.138  1.00  0.00    -0.454 OA
ATOM     14  C   UNL     1       9.322  -3.699  -2.306  1.00  0.00     0.468 C 
ENDBRANCH   5   6
ENDBRANCH   1   5
TORSDOF 3
ENDMDL
MODEL 5
REMARK VINA RESULT:      -6.8      1.261      1.755
REMARK SMILES CC(=O)CCc1ccc2c(c1)OCO2
REMARK SMILES IDX 4 1 2 2 1 3 3 4 5 5 6 6 7 7 11 8 8 9 10 10 9 11 12 12 14 13
REMARK SMILES IDX 13 14
REMARK H PARENT
REMARK Flexibility Score: inf
ROOT
ATOM      1  C   UNL     1       5.316  -0.077   1.994  1.00  0.00     0.080 C 
ENDROOT
BRANCH   1   2
ATOM      2  C   UNL     1       4.447   1.118   1.807  1.00  0.00     0.130 C 
ATOM      3  C   UNL     1       4.748   2.150   0.779  1.00  0.00     0.087 C 
ATOM      4  O   UNL     1       3.455   1.286   2.499  1.00  0.00    -0.300 OA
ENDBRANCH   1   2
BRANCH   1   5
ATOM      5  C   UNL     1       6.784   0.295   1.932  1.00  0.00     0.043 C 
BRANCH   5   6
ATOM      6  C   UNL     1       7.381  -0.051   0.630  1.00  0.00    -0.044 A 
ATOM      7  C   UNL     1       7.866   0.933  -0.240  1.00  0.00     0.008 A 
ATOM      8  C   UNL     1       7.473  -1.371   0.251  1.00  0.00     0.054 A 
ATOM      9  C   UNL     1       8.417   0.548  -1.448  1.00  0.00     0.051 A 
ATOM     10  C   UNL     1       8.031  -1.756  -0.972  1.00  0.00     0.166 A 
ATOM     11  C   UNL     1       8.507  -0.788  -1.829  1.00  0.00     0.165 A 
ATOM     12  O   UNL     1       8.232  -2.982  -1.569  1.00  0.00    -0.454 OA
ATOM     13  O   UNL     1       8.996  -1.447  -2.945  1.00  0.00    -0.454 OA
ATOM     14  C   UNL     1       8.924  -2.844  -2.783  1.00  0.00     0.468 C 
ENDBRANCH   5   6
ENDBRANCH   1   5
TORSDOF 3
ENDMDL
