@<TRIPOS>MOLECULE
/home/cewinharhar/GITHUB/reincatalyze/data/processed/docking_pred/2023-May-24-1506_sub9_nm5_bs15_s42_ex16_mel10_mts10000_k50_ec02_g099_lra3e-4_lrc3e-3/ca2511eb0ea692a115cf18c67ef7ccdfaa736476_ligand_9.pdbqt
 14 15 0 0 0
SMALL
GASTEIGER

@<TRIPOS>ATOM
      1  C          5.7420    1.2740   -0.2910 C.3     1  UNL1        0.0800
      2  C          5.2530    1.2390    1.1150 C.2     1  UNL1        0.1300
      3  C          5.5650    0.1030    2.0220 C.3     1  UNL1        0.0870
      4  O          4.5770    2.1500    1.5660 O.2     1  UNL1       -0.3000
      5  C          7.2460    1.0900   -0.3560 C.3     1  UNL1        0.0430
      6  C          7.6120   -0.2060   -0.9540 C.2     1  UNL1       -0.0440
      7  C          7.6390   -0.3930   -2.3410 C.2     1  UNL1        0.0080
      8  C          7.9410   -1.2650   -0.1380 C.2     1  UNL1        0.0540
      9  C          7.9920   -1.6310   -2.8450 C.2     1  UNL1        0.0510
     10  C          8.2980   -2.5150   -0.6530 C.2     1  UNL1        0.1660
     11  C          8.3230   -2.7000   -2.0170 C.2     1  UNL1        0.1650
     12  O          8.6600   -3.7060   -0.0610 O.2     1  UNL1       -0.4540
     13  O          8.7050   -4.0140   -2.2370 O.2     1  UNL1       -0.4540
     14  C          9.0170   -4.6620   -1.0270 C.3     1  UNL1        0.4680
@<TRIPOS>BOND
     1     9     7    1
     2     9    11    2
     3     7     6    2
     4    13    11    1
     5    13    14    1
     6    11    10    1
     7    14    12    1
     8     6     5    1
     9     6     8    1
    10    10     8    2
    11    10    12    1
    12     5     1    1
    13     1     2    1
    14     2     4    2
    15     2     3    1
