@<TRIPOS>MOLECULE
/home/cewinharhar/GITHUB/reincatalyze/data/processed/docking_pred/2023-May-24-1506_sub9_nm5_bs15_s42_ex16_mel10_mts10000_k50_ec02_g099_lra3e-4_lrc3e-3/ca2511eb0ea692a115cf18c67ef7ccdfaa736476_ligand_9.pdbqt
 14 15 0 0 0
SMALL
GASTEIGER

@<TRIPOS>ATOM
      1  C          5.4490   -0.0210    2.0020 C.3     1  UNL1        0.0800
      2  C          4.5720    1.1570    1.7550 C.2     1  UNL1        0.1300
      3  C          4.8790    2.1500    0.6910 C.3     1  UNL1        0.0870
      4  O          3.5680    1.3420    2.4250 O.2     1  UNL1       -0.3000
      5  C          6.8710    0.2480    1.5510 C.3     1  UNL1        0.0430
      6  C          7.2890   -0.6750    0.4800 C.2     1  UNL1       -0.0440
      7  C          7.1380   -0.3460   -0.8720 C.2     1  UNL1        0.0080
      8  C          7.8430   -1.8920    0.8060 C.2     1  UNL1        0.0540
      9  C          7.5490   -1.2510   -1.8330 C.2     1  UNL1        0.0510
     10  C          8.2560   -2.8040   -0.1690 C.2     1  UNL1        0.1660
     11  C          8.1080   -2.4810   -1.4990 C.2     1  UNL1        0.1650
     12  O          8.8260   -4.0580   -0.1020 O.2     1  UNL1       -0.4540
     13  O          8.5960   -3.5540   -2.2290 O.2     1  UNL1       -0.4540
     14  C          9.1440   -4.5370   -1.3830 C.3     1  UNL1        0.4680
@<TRIPOS>BOND
     1    13    11    1
     2    13    14    1
     3     9    11    2
     4     9     7    1
     5    11    10    1
     6    14    12    1
     7     7     6    2
     8    10    12    1
     9    10     8    2
    10     6     8    1
    11     6     5    1
    12     3     2    1
    13     5     1    1
    14     2     1    1
    15     2     4    2
