MODEL 1
REMARK VINA RESULT:      -7.5      0.000      0.000
REMARK SMILES CC(=O)CCc1ccc2c(c1)OCO2
REMARK SMILES IDX 4 1 2 2 1 3 3 4 5 5 6 6 7 7 11 8 8 9 10 10 9 11 12 12 14 13
REMARK SMILES IDX 13 14
REMARK H PARENT
REMARK Flexibility Score: inf
ROOT
ATOM      1  C   UNL     1       5.567   1.890   1.300  1.00  0.00     0.080 C 
ENDROOT
BRANCH   1   2
ATOM      2  C   UNL     1       5.119   0.670   2.029  1.00  0.00     0.130 C 
ATOM      3  C   UNL     1       6.008  -0.511   2.194  1.00  0.00     0.087 C 
ATOM      4  O   UNL     1       4.002   0.606   2.515  1.00  0.00    -0.300 OA
ENDBRANCH   1   2
BRANCH   1   5
ATOM      5  C   UNL     1       5.429   1.716  -0.199  1.00  0.00     0.043 C 
BRANCH   5   6
ATOM      6  C   UNL     1       6.591   1.017  -0.778  1.00  0.00    -0.044 A 
ATOM      7  C   UNL     1       7.899   1.460  -0.552  1.00  0.00     0.008 A 
ATOM      8  C   UNL     1       6.396  -0.100  -1.558  1.00  0.00     0.054 A 
ATOM      9  C   UNL     1       8.950   0.763  -1.120  1.00  0.00     0.051 A 
ATOM     10  C   UNL     1       7.462  -0.801  -2.130  1.00  0.00     0.166 A 
ATOM     11  C   UNL     1       8.750  -0.366  -1.909  1.00  0.00     0.165 A 
ATOM     12  O   UNL     1       7.528  -1.921  -2.931  1.00  0.00    -0.454 OA
ATOM     13  O   UNL     1       9.589  -1.237  -2.586  1.00  0.00    -0.454 OA
ATOM     14  C   UNL     1       8.862  -2.290  -3.172  1.00  0.00     0.468 C 
ENDBRANCH   5   6
ENDBRANCH   1   5
TORSDOF 3
ENDMDL
MODEL 2
REMARK VINA RESULT:      -7.1      1.892      2.387
REMARK SMILES CC(=O)CCc1ccc2c(c1)OCO2
REMARK SMILES IDX 4 1 2 2 1 3 3 4 5 5 6 6 7 7 11 8 8 9 10 10 9 11 12 12 14 13
REMARK SMILES IDX 13 14
REMARK H PARENT
REMARK Flexibility Score: inf
ROOT
ATOM      1  C   UNL     1       5.742   1.274  -0.291  1.00  0.00     0.080 C 
ENDROOT
BRANCH   1   2
ATOM      2  C   UNL     1       5.253   1.239   1.115  1.00  0.00     0.130 C 
ATOM      3  C   UNL     1       5.565   0.103   2.022  1.00  0.00     0.087 C 
ATOM      4  O   UNL     1       4.577   2.150   1.566  1.00  0.00    -0.300 OA
ENDBRANCH   1   2
BRANCH   1   5
ATOM      5  C   UNL     1       7.246   1.090  -0.356  1.00  0.00     0.043 C 
BRANCH   5   6
ATOM      6  C   UNL     1       7.612  -0.206  -0.954  1.00  0.00    -0.044 A 
ATOM      7  C   UNL     1       7.639  -0.393  -2.341  1.00  0.00     0.008 A 
ATOM      8  C   UNL     1       7.941  -1.265  -0.138  1.00  0.00     0.054 A 
ATOM      9  C   UNL     1       7.992  -1.631  -2.845  1.00  0.00     0.051 A 
ATOM     10  C   UNL     1       8.298  -2.515  -0.653  1.00  0.00     0.166 A 
ATOM     11  C   UNL     1       8.323  -2.700  -2.017  1.00  0.00     0.165 A 
ATOM     12  O   UNL     1       8.660  -3.706  -0.061  1.00  0.00    -0.454 OA
ATOM     13  O   UNL     1       8.705  -4.014  -2.237  1.00  0.00    -0.454 OA
ATOM     14  C   UNL     1       9.017  -4.662  -1.027  1.00  0.00     0.468 C 
ENDBRANCH   5   6
ENDBRANCH   1   5
TORSDOF 3
ENDMDL
MODEL 3
REMARK VINA RESULT:      -6.9      1.241      1.440
REMARK SMILES CC(=O)CCc1ccc2c(c1)OCO2
REMARK SMILES IDX 4 1 2 2 1 3 3 4 5 5 6 6 7 7 11 8 8 9 10 10 9 11 12 12 14 13
REMARK SMILES IDX 13 14
REMARK H PARENT
REMARK Flexibility Score: inf
ROOT
ATOM      1  C   UNL     1       6.365   1.211   0.898  1.00  0.00     0.080 C 
ENDROOT
BRANCH   1   2
ATOM      2  C   UNL     1       5.663   0.395   1.928  1.00  0.00     0.130 C 
ATOM      3  C   UNL     1       6.272  -0.838   2.494  1.00  0.00     0.087 C 
ATOM      4  O   UNL     1       4.561   0.718   2.340  1.00  0.00    -0.300 OA
ENDBRANCH   1   2
BRANCH   1   5
ATOM      5  C   UNL     1       5.849   0.902  -0.493  1.00  0.00     0.043 C 
BRANCH   5   6
ATOM      6  C   UNL     1       6.809   0.091  -1.263  1.00  0.00    -0.044 A 
ATOM      7  C   UNL     1       7.509   0.621  -2.353  1.00  0.00     0.008 A 
ATOM      8  C   UNL     1       7.032  -1.221  -0.909  1.00  0.00     0.054 A 
ATOM      9  C   UNL     1       8.397  -0.188  -3.038  1.00  0.00     0.051 A 
ATOM     10  C   UNL     1       7.932  -2.034  -1.604  1.00  0.00     0.166 A 
ATOM     11  C   UNL     1       8.620  -1.513  -2.678  1.00  0.00     0.165 A 
ATOM     12  O   UNL     1       8.323  -3.347  -1.452  1.00  0.00    -0.454 OA
ATOM     13  O   UNL     1       9.428  -2.528  -3.166  1.00  0.00    -0.454 OA
ATOM     14  C   UNL     1       9.338  -3.681  -2.363  1.00  0.00     0.468 C 
ENDBRANCH   5   6
ENDBRANCH   1   5
TORSDOF 3
ENDMDL
MODEL 4
REMARK VINA RESULT:      -6.9      2.010      2.568
REMARK SMILES CC(=O)CCc1ccc2c(c1)OCO2
REMARK SMILES IDX 4 1 2 2 1 3 3 4 5 5 6 6 7 7 11 8 8 9 10 10 9 11 12 12 14 13
REMARK SMILES IDX 13 14
REMARK H PARENT
REMARK Flexibility Score: inf
ROOT
ATOM      1  C   UNL     1       5.449  -0.021   2.002  1.00  0.00     0.080 C 
ENDROOT
BRANCH   1   2
ATOM      2  C   UNL     1       4.572   1.157   1.755  1.00  0.00     0.130 C 
ATOM      3  C   UNL     1       4.879   2.150   0.691  1.00  0.00     0.087 C 
ATOM      4  O   UNL     1       3.568   1.342   2.425  1.00  0.00    -0.300 OA
ENDBRANCH   1   2
BRANCH   1   5
ATOM      5  C   UNL     1       6.871   0.248   1.551  1.00  0.00     0.043 C 
BRANCH   5   6
ATOM      6  C   UNL     1       7.289  -0.675   0.480  1.00  0.00    -0.044 A 
ATOM      7  C   UNL     1       7.138  -0.346  -0.872  1.00  0.00     0.008 A 
ATOM      8  C   UNL     1       7.843  -1.892   0.806  1.00  0.00     0.054 A 
ATOM      9  C   UNL     1       7.549  -1.251  -1.833  1.00  0.00     0.051 A 
ATOM     10  C   UNL     1       8.256  -2.804  -0.169  1.00  0.00     0.166 A 
ATOM     11  C   UNL     1       8.108  -2.481  -1.499  1.00  0.00     0.165 A 
ATOM     12  O   UNL     1       8.826  -4.058  -0.102  1.00  0.00    -0.454 OA
ATOM     13  O   UNL     1       8.596  -3.554  -2.229  1.00  0.00    -0.454 OA
ATOM     14  C   UNL     1       9.144  -4.537  -1.383  1.00  0.00     0.468 C 
ENDBRANCH   5   6
ENDBRANCH   1   5
TORSDOF 3
ENDMDL
MODEL 5
REMARK VINA RESULT:      -6.8      1.840      2.400
REMARK SMILES CC(=O)CCc1ccc2c(c1)OCO2
REMARK SMILES IDX 4 1 2 2 1 3 3 4 5 5 6 6 7 7 11 8 8 9 10 10 9 11 12 12 14 13
REMARK SMILES IDX 13 14
REMARK H PARENT
REMARK Flexibility Score: inf
ROOT
ATOM      1  C   UNL     1       6.781   0.964   1.330  1.00  0.00     0.080 C 
ENDROOT
BRANCH   1   2
ATOM      2  C   UNL     1       5.314   1.220   1.373  1.00  0.00     0.130 C 
ATOM      3  C   UNL     1       4.655   2.149   0.417  1.00  0.00     0.087 C 
ATOM      4  O   UNL     1       4.607   0.670   2.202  1.00  0.00    -0.300 OA
ENDBRANCH   1   2
BRANCH   1   5
ATOM      5  C   UNL     1       7.341   1.203  -0.059  1.00  0.00     0.043 C 
BRANCH   5   6
ATOM      6  C   UNL     1       7.655  -0.062  -0.747  1.00  0.00    -0.044 A 
ATOM      7  C   UNL     1       7.638  -0.160  -2.143  1.00  0.00     0.008 A 
ATOM      8  C   UNL     1       7.975  -1.178  -0.009  1.00  0.00     0.054 A 
ATOM      9  C   UNL     1       7.942  -1.373  -2.733  1.00  0.00     0.051 A 
ATOM     10  C   UNL     1       8.282  -2.402  -0.611  1.00  0.00     0.166 A 
ATOM     11  C   UNL     1       8.265  -2.500  -1.984  1.00  0.00     0.165 A 
ATOM     12  O   UNL     1       8.626  -3.638  -0.105  1.00  0.00    -0.454 OA
ATOM     13  O   UNL     1       8.604  -3.808  -2.297  1.00  0.00    -0.454 OA
ATOM     14  C   UNL     1       8.930  -4.539  -1.139  1.00  0.00     0.468 C 
ENDBRANCH   5   6
ENDBRANCH   1   5
TORSDOF 3
ENDMDL
