@<TRIPOS>MOLECULE
/home/cewinharhar/GITHUB/reincatalyze/data/processed/docking_pred/2023-May-24-1506_sub9_nm5_bs15_s42_ex16_mel10_mts10000_k50_ec02_g099_lra3e-4_lrc3e-3/ca2511eb0ea692a115cf18c67ef7ccdfaa736476_ligand_9.pdbqt
 14 15 0 0 0
SMALL
GASTEIGER

@<TRIPOS>ATOM
      1  C          6.3650    1.2110    0.8980 C.3     1  UNL1        0.0800
      2  C          5.6630    0.3950    1.9280 C.2     1  UNL1        0.1300
      3  C          6.2720   -0.8380    2.4940 C.3     1  UNL1        0.0870
      4  O          4.5610    0.7180    2.3400 O.2     1  UNL1       -0.3000
      5  C          5.8490    0.9020   -0.4930 C.3     1  UNL1        0.0430
      6  C          6.8090    0.0910   -1.2630 C.2     1  UNL1       -0.0440
      7  C          7.5090    0.6210   -2.3530 C.2     1  UNL1        0.0080
      8  C          7.0320   -1.2210   -0.9090 C.2     1  UNL1        0.0540
      9  C          8.3970   -0.1880   -3.0380 C.2     1  UNL1        0.0510
     10  C          7.9320   -2.0340   -1.6040 C.2     1  UNL1        0.1660
     11  C          8.6200   -1.5130   -2.6780 C.2     1  UNL1        0.1650
     12  O          8.3230   -3.3470   -1.4520 O.2     1  UNL1       -0.4540
     13  O          9.4280   -2.5280   -3.1660 O.2     1  UNL1       -0.4540
     14  C          9.3380   -3.6810   -2.3630 C.3     1  UNL1        0.4680
@<TRIPOS>BOND
     1    13    11    1
     2    13    14    1
     3     9    11    2
     4     9     7    1
     5    11    10    1
     6    14    12    1
     7     7     6    2
     8    10    12    1
     9    10     8    2
    10     6     8    1
    11     6     5    1
    12     5     1    1
    13     1     2    1
    14     2     4    2
    15     2     3    1
