@<TRIPOS>MOLECULE
/home/cewinharhar/GITHUB/reincatalyze/data/processed/docking_pred/2023-May-24-1506_sub9_nm5_bs15_s42_ex16_mel10_mts10000_k50_ec02_g099_lra3e-4_lrc3e-3/cb79d4b49cb2e7af28552c4e2a37cc688e9725fc_ligand_9.pdbqt
 14 15 0 0 0
SMALL
GASTEIGER

@<TRIPOS>ATOM
      1  C          6.3640    1.2170    0.9360 C.3     1  UNL1        0.0800
      2  C          5.6600    0.3690    1.9380 C.2     1  UNL1        0.1300
      3  C          6.2880   -0.8550    2.5030 C.3     1  UNL1        0.0870
      4  O          4.5400    0.6570    2.3270 O.2     1  UNL1       -0.3000
      5  C          5.8560    0.9470   -0.4670 C.3     1  UNL1        0.0430
      6  C          6.8040    0.1260   -1.2420 C.2     1  UNL1       -0.0440
      7  C          7.4930    0.6460   -2.3430 C.2     1  UNL1        0.0080
      8  C          7.0250   -1.1840   -0.8810 C.2     1  UNL1        0.0540
      9  C          8.3700   -0.1720   -3.0320 C.2     1  UNL1        0.0510
     10  C          7.9140   -2.0060   -1.5800 C.2     1  UNL1        0.1660
     11  C          8.5920   -1.4960   -2.6650 C.2     1  UNL1        0.1650
     12  O          8.3000   -3.3200   -1.4230 O.2     1  UNL1       -0.4540
     13  O          9.3900   -2.5170   -3.1560 O.2     1  UNL1       -0.4540
     14  C          9.3040   -3.6640   -2.3430 C.3     1  UNL1        0.4680
@<TRIPOS>BOND
     1    13    11    1
     2    13    14    1
     3     9    11    2
     4     9     7    1
     5    11    10    1
     6     7     6    2
     7    14    12    1
     8    10    12    1
     9    10     8    2
    10     6     8    1
    11     6     5    1
    12     5     1    1
    13     1     2    1
    14     2     4    2
    15     2     3    1
