MODEL 1
REMARK VINA RESULT:      -7.7      0.000      0.000
REMARK SMILES CC(=O)CCc1ccc2c(c1)OCO2
REMARK SMILES IDX 4 1 2 2 1 3 3 4 5 5 6 6 7 7 11 8 8 9 10 10 9 11 12 12 14 13
REMARK SMILES IDX 13 14
REMARK H PARENT
REMARK Flexibility Score: inf
ROOT
ATOM      1  C   UNL     1       5.494   1.909   1.249  1.00  0.00     0.080 C 
ENDROOT
BRANCH   1   2
ATOM      2  C   UNL     1       5.029   0.705   1.993  1.00  0.00     0.130 C 
ATOM      3  C   UNL     1       5.872  -0.514   2.112  1.00  0.00     0.087 C 
ATOM      4  O   UNL     1       3.933   0.686   2.531  1.00  0.00    -0.300 OA
ENDBRANCH   1   2
BRANCH   1   5
ATOM      5  C   UNL     1       5.375   1.709  -0.249  1.00  0.00     0.043 C 
BRANCH   5   6
ATOM      6  C   UNL     1       6.552   1.015  -0.803  1.00  0.00    -0.044 A 
ATOM      7  C   UNL     1       7.854   1.454  -0.538  1.00  0.00     0.008 A 
ATOM      8  C   UNL     1       6.378  -0.093  -1.600  1.00  0.00     0.054 A 
ATOM      9  C   UNL     1       8.920   0.763  -1.084  1.00  0.00     0.051 A 
ATOM     10  C   UNL     1       7.458  -0.790  -2.150  1.00  0.00     0.166 A 
ATOM     11  C   UNL     1       8.740  -0.358  -1.890  1.00  0.00     0.165 A 
ATOM     12  O   UNL     1       7.546  -1.901  -2.960  1.00  0.00    -0.454 OA
ATOM     13  O   UNL     1       9.597  -1.223  -2.552  1.00  0.00    -0.454 OA
ATOM     14  C   UNL     1       8.885  -2.269  -3.169  1.00  0.00     0.468 C 
ENDBRANCH   5   6
ENDBRANCH   1   5
TORSDOF 3
ENDMDL
MODEL 2
REMARK VINA RESULT:      -7.5      1.923      2.377
REMARK SMILES CC(=O)CCc1ccc2c(c1)OCO2
REMARK SMILES IDX 4 1 2 2 1 3 3 4 5 5 6 6 7 7 11 8 8 9 10 10 9 11 12 12 14 13
REMARK SMILES IDX 13 14
REMARK H PARENT
REMARK Flexibility Score: inf
ROOT
ATOM      1  C   UNL     1       5.732   1.356  -0.289  1.00  0.00     0.080 C 
ENDROOT
BRANCH   1   2
ATOM      2  C   UNL     1       5.120   1.275   1.067  1.00  0.00     0.130 C 
ATOM      3  C   UNL     1       5.394   0.132   1.980  1.00  0.00     0.087 C 
ATOM      4  O   UNL     1       4.372   2.150   1.470  1.00  0.00    -0.300 OA
ENDBRANCH   1   2
BRANCH   1   5
ATOM      5  C   UNL     1       7.228   1.119  -0.233  1.00  0.00     0.043 C 
BRANCH   5   6
ATOM      6  C   UNL     1       7.601  -0.169  -0.843  1.00  0.00    -0.044 A 
ATOM      7  C   UNL     1       7.674  -0.330  -2.231  1.00  0.00     0.008 A 
ATOM      8  C   UNL     1       7.889  -1.247  -0.037  1.00  0.00     0.054 A 
ATOM      9  C   UNL     1       8.030  -1.562  -2.747  1.00  0.00     0.051 A 
ATOM     10  C   UNL     1       8.250  -2.492  -0.563  1.00  0.00     0.166 A 
ATOM     11  C   UNL     1       8.320  -2.650  -1.929  1.00  0.00     0.165 A 
ATOM     12  O   UNL     1       8.578  -3.698   0.018  1.00  0.00    -0.454 OA
ATOM     13  O   UNL     1       8.695  -3.965  -2.161  1.00  0.00    -0.454 OA
ATOM     14  C   UNL     1       8.957  -4.639  -0.953  1.00  0.00     0.468 C 
ENDBRANCH   5   6
ENDBRANCH   1   5
TORSDOF 3
ENDMDL
MODEL 3
REMARK VINA RESULT:      -7.2      2.093      2.638
REMARK SMILES CC(=O)CCc1ccc2c(c1)OCO2
REMARK SMILES IDX 4 1 2 2 1 3 3 4 5 5 6 6 7 7 11 8 8 9 10 10 9 11 12 12 14 13
REMARK SMILES IDX 13 14
REMARK H PARENT
REMARK Flexibility Score: inf
ROOT
ATOM      1  C   UNL     1       5.542  -0.025   1.960  1.00  0.00     0.080 C 
ENDROOT
BRANCH   1   2
ATOM      2  C   UNL     1       4.671   1.146   1.661  1.00  0.00     0.130 C 
ATOM      3  C   UNL     1       5.006   2.114   0.583  1.00  0.00     0.087 C 
ATOM      4  O   UNL     1       3.649   1.345   2.298  1.00  0.00    -0.300 OA
ENDBRANCH   1   2
BRANCH   1   5
ATOM      5  C   UNL     1       6.966   0.217   1.498  1.00  0.00     0.043 C 
BRANCH   5   6
ATOM      6  C   UNL     1       7.370  -0.739   0.452  1.00  0.00    -0.044 A 
ATOM      7  C   UNL     1       7.246  -0.433  -0.908  1.00  0.00     0.008 A 
ATOM      8  C   UNL     1       7.886  -1.964   0.810  1.00  0.00     0.054 A 
ATOM      9  C   UNL     1       7.643  -1.369  -1.846  1.00  0.00     0.051 A 
ATOM     10  C   UNL     1       8.287  -2.907  -0.142  1.00  0.00     0.166 A 
ATOM     11  C   UNL     1       8.164  -2.607  -1.480  1.00  0.00     0.165 A 
ATOM     12  O   UNL     1       8.820  -4.174  -0.042  1.00  0.00    -0.454 OA
ATOM     13  O   UNL     1       8.631  -3.708  -2.182  1.00  0.00    -0.454 OA
ATOM     14  C   UNL     1       9.141  -4.688  -1.309  1.00  0.00     0.468 C 
ENDBRANCH   5   6
ENDBRANCH   1   5
TORSDOF 3
ENDMDL
MODEL 4
REMARK VINA RESULT:      -7.1      1.252      1.464
REMARK SMILES CC(=O)CCc1ccc2c(c1)OCO2
REMARK SMILES IDX 4 1 2 2 1 3 3 4 5 5 6 6 7 7 11 8 8 9 10 10 9 11 12 12 14 13
REMARK SMILES IDX 13 14
REMARK H PARENT
REMARK Flexibility Score: inf
ROOT
ATOM      1  C   UNL     1       6.355   1.257   0.853  1.00  0.00     0.080 C 
ENDROOT
BRANCH   1   2
ATOM      2  C   UNL     1       5.675   0.441   1.897  1.00  0.00     0.130 C 
ATOM      3  C   UNL     1       6.306  -0.777   2.471  1.00  0.00     0.087 C 
ATOM      4  O   UNL     1       4.570   0.752   2.314  1.00  0.00    -0.300 OA
ENDBRANCH   1   2
BRANCH   1   5
ATOM      5  C   UNL     1       5.850   0.910  -0.533  1.00  0.00     0.043 C 
BRANCH   5   6
ATOM      6  C   UNL     1       6.822   0.090  -1.279  1.00  0.00    -0.044 A 
ATOM      7  C   UNL     1       7.559   0.617  -2.347  1.00  0.00     0.008 A 
ATOM      8  C   UNL     1       7.019  -1.225  -0.925  1.00  0.00     0.054 A 
ATOM      9  C   UNL     1       8.457  -0.200  -3.009  1.00  0.00     0.051 A 
ATOM     10  C   UNL     1       7.929  -2.046  -1.598  1.00  0.00     0.166 A 
ATOM     11  C   UNL     1       8.653  -1.530  -2.649  1.00  0.00     0.165 A 
ATOM     12  O   UNL     1       8.299  -3.365  -1.440  1.00  0.00    -0.454 OA
ATOM     13  O   UNL     1       9.463  -2.552  -3.119  1.00  0.00    -0.454 OA
ATOM     14  C   UNL     1       9.336  -3.707  -2.323  1.00  0.00     0.468 C 
ENDBRANCH   5   6
ENDBRANCH   1   5
TORSDOF 3
ENDMDL
MODEL 5
REMARK VINA RESULT:      -7.0      1.985      2.540
REMARK SMILES CC(=O)CCc1ccc2c(c1)OCO2
REMARK SMILES IDX 4 1 2 2 1 3 3 4 5 5 6 6 7 7 11 8 8 9 10 10 9 11 12 12 14 13
REMARK SMILES IDX 13 14
REMARK H PARENT
REMARK Flexibility Score: inf
ROOT
ATOM      1  C   UNL     1       6.960   1.011   1.233  1.00  0.00     0.080 C 
ENDROOT
BRANCH   1   2
ATOM      2  C   UNL     1       5.489   1.181   1.397  1.00  0.00     0.130 C 
ATOM      3  C   UNL     1       4.718   2.148   0.571  1.00  0.00     0.087 C 
ATOM      4  O   UNL     1       4.871   0.528   2.222  1.00  0.00    -0.300 OA
ENDBRANCH   1   2
BRANCH   1   5
ATOM      5  C   UNL     1       7.369   1.132  -0.222  1.00  0.00     0.043 C 
BRANCH   5   6
ATOM      6  C   UNL     1       7.694  -0.180  -0.810  1.00  0.00    -0.044 A 
ATOM      7  C   UNL     1       7.735  -0.373  -2.195  1.00  0.00     0.008 A 
ATOM      8  C   UNL     1       7.968  -1.247   0.015  1.00  0.00     0.054 A 
ATOM      9  C   UNL     1       8.047  -1.626  -2.689  1.00  0.00     0.051 A 
ATOM     10  C   UNL     1       8.284  -2.512  -0.490  1.00  0.00     0.166 A 
ATOM     11  C   UNL     1       8.324  -2.703  -1.853  1.00  0.00     0.165 A 
ATOM     12  O   UNL     1       8.590  -3.715   0.112  1.00  0.00    -0.454 OA
ATOM     13  O   UNL     1       8.658  -4.032  -2.062  1.00  0.00    -0.454 OA
ATOM     14  C   UNL     1       8.924  -4.687  -0.845  1.00  0.00     0.468 C 
ENDBRANCH   5   6
ENDBRANCH   1   5
TORSDOF 3
ENDMDL
