MODEL 1
REMARK VINA RESULT:      -7.7      0.000      0.000
REMARK SMILES CC(=O)CCc1ccc2c(c1)OCO2
REMARK SMILES IDX 4 1 2 2 1 3 3 4 5 5 6 6 7 7 11 8 8 9 10 10 9 11 12 12 14 13
REMARK SMILES IDX 13 14
REMARK H PARENT
REMARK Flexibility Score: inf
ROOT
ATOM      1  C   UNL     1       5.499   1.924   1.257  1.00  0.00     0.080 C 
ENDROOT
BRANCH   1   2
ATOM      2  C   UNL     1       5.031   0.715   1.992  1.00  0.00     0.130 C 
ATOM      3  C   UNL     1       5.881  -0.499   2.119  1.00  0.00     0.087 C 
ATOM      4  O   UNL     1       3.928   0.686   2.514  1.00  0.00    -0.300 OA
ENDBRANCH   1   2
BRANCH   1   5
ATOM      5  C   UNL     1       5.382   1.736  -0.242  1.00  0.00     0.043 C 
BRANCH   5   6
ATOM      6  C   UNL     1       6.553   1.035  -0.798  1.00  0.00    -0.044 A 
ATOM      7  C   UNL     1       7.858   1.469  -0.538  1.00  0.00     0.008 A 
ATOM      8  C   UNL     1       6.371  -0.075  -1.591  1.00  0.00     0.054 A 
ATOM      9  C   UNL     1       8.919   0.770  -1.086  1.00  0.00     0.051 A 
ATOM     10  C   UNL     1       7.447  -0.778  -2.142  1.00  0.00     0.166 A 
ATOM     11  C   UNL     1       8.731  -0.351  -1.888  1.00  0.00     0.165 A 
ATOM     12  O   UNL     1       7.526  -1.892  -2.950  1.00  0.00    -0.454 OA
ATOM     13  O   UNL     1       9.581  -1.222  -2.551  1.00  0.00    -0.454 OA
ATOM     14  C   UNL     1       8.863  -2.267  -3.162  1.00  0.00     0.468 C 
ENDBRANCH   5   6
ENDBRANCH   1   5
TORSDOF 3
ENDMDL
MODEL 2
REMARK VINA RESULT:      -7.5      1.916      2.372
REMARK SMILES CC(=O)CCc1ccc2c(c1)OCO2
REMARK SMILES IDX 4 1 2 2 1 3 3 4 5 5 6 6 7 7 11 8 8 9 10 10 9 11 12 12 14 13
REMARK SMILES IDX 13 14
REMARK H PARENT
REMARK Flexibility Score: inf
ROOT
ATOM      1  C   UNL     1       5.734   1.357  -0.306  1.00  0.00     0.080 C 
ENDROOT
BRANCH   1   2
ATOM      2  C   UNL     1       5.110   1.287   1.044  1.00  0.00     0.130 C 
ATOM      3  C   UNL     1       5.419   0.182   1.991  1.00  0.00     0.087 C 
ATOM      4  O   UNL     1       4.321   2.141   1.415  1.00  0.00    -0.300 OA
ENDBRANCH   1   2
BRANCH   1   5
ATOM      5  C   UNL     1       7.230   1.118  -0.235  1.00  0.00     0.043 C 
BRANCH   5   6
ATOM      6  C   UNL     1       7.608  -0.166  -0.851  1.00  0.00    -0.044 A 
ATOM      7  C   UNL     1       7.697  -0.315  -2.240  1.00  0.00     0.008 A 
ATOM      8  C   UNL     1       7.885  -1.252  -0.051  1.00  0.00     0.054 A 
ATOM      9  C   UNL     1       8.058  -1.544  -2.762  1.00  0.00     0.051 A 
ATOM     10  C   UNL     1       8.250  -2.492  -0.583  1.00  0.00     0.166 A 
ATOM     11  C   UNL     1       8.337  -2.639  -1.950  1.00  0.00     0.165 A 
ATOM     12  O   UNL     1       8.569  -3.704  -0.009  1.00  0.00    -0.454 OA
ATOM     13  O   UNL     1       8.712  -3.952  -2.189  1.00  0.00    -0.454 OA
ATOM     14  C   UNL     1       8.959  -4.637  -0.984  1.00  0.00     0.468 C 
ENDBRANCH   5   6
ENDBRANCH   1   5
TORSDOF 3
ENDMDL
MODEL 3
REMARK VINA RESULT:      -7.2      2.086      2.630
REMARK SMILES CC(=O)CCc1ccc2c(c1)OCO2
REMARK SMILES IDX 4 1 2 2 1 3 3 4 5 5 6 6 7 7 11 8 8 9 10 10 9 11 12 12 14 13
REMARK SMILES IDX 13 14
REMARK H PARENT
REMARK Flexibility Score: inf
ROOT
ATOM      1  C   UNL     1       5.517   0.004   1.961  1.00  0.00     0.080 C 
ENDROOT
BRANCH   1   2
ATOM      2  C   UNL     1       4.645   1.172   1.650  1.00  0.00     0.130 C 
ATOM      3  C   UNL     1       4.972   2.120   0.552  1.00  0.00     0.087 C 
ATOM      4  O   UNL     1       3.631   1.384   2.294  1.00  0.00    -0.300 OA
ENDBRANCH   1   2
BRANCH   1   5
ATOM      5  C   UNL     1       6.943   0.246   1.505  1.00  0.00     0.043 C 
BRANCH   5   6
ATOM      6  C   UNL     1       7.352  -0.710   0.461  1.00  0.00    -0.044 A 
ATOM      7  C   UNL     1       7.236  -0.403  -0.900  1.00  0.00     0.008 A 
ATOM      8  C   UNL     1       7.864  -1.935   0.820  1.00  0.00     0.054 A 
ATOM      9  C   UNL     1       7.637  -1.339  -1.836  1.00  0.00     0.051 A 
ATOM     10  C   UNL     1       8.269  -2.878  -0.129  1.00  0.00     0.166 A 
ATOM     11  C   UNL     1       8.154  -2.577  -1.468  1.00  0.00     0.165 A 
ATOM     12  O   UNL     1       8.801  -4.146  -0.027  1.00  0.00    -0.454 OA
ATOM     13  O   UNL     1       8.623  -3.678  -2.168  1.00  0.00    -0.454 OA
ATOM     14  C   UNL     1       9.127  -4.659  -1.294  1.00  0.00     0.468 C 
ENDBRANCH   5   6
ENDBRANCH   1   5
TORSDOF 3
ENDMDL
MODEL 4
REMARK VINA RESULT:      -7.1      1.261      1.478
REMARK SMILES CC(=O)CCc1ccc2c(c1)OCO2
REMARK SMILES IDX 4 1 2 2 1 3 3 4 5 5 6 6 7 7 11 8 8 9 10 10 9 11 12 12 14 13
REMARK SMILES IDX 13 14
REMARK H PARENT
REMARK Flexibility Score: inf
ROOT
ATOM      1  C   UNL     1       6.377   1.191   0.932  1.00  0.00     0.080 C 
ENDROOT
BRANCH   1   2
ATOM      2  C   UNL     1       5.658   0.370   1.946  1.00  0.00     0.130 C 
ATOM      3  C   UNL     1       6.262  -0.858   2.527  1.00  0.00     0.087 C 
ATOM      4  O   UNL     1       4.543   0.685   2.330  1.00  0.00    -0.300 OA
ENDBRANCH   1   2
BRANCH   1   5
ATOM      5  C   UNL     1       5.864   0.913  -0.467  1.00  0.00     0.043 C 
BRANCH   5   6
ATOM      6  C   UNL     1       6.812   0.096  -1.244  1.00  0.00    -0.044 A 
ATOM      7  C   UNL     1       7.491   0.616  -2.352  1.00  0.00     0.008 A 
ATOM      8  C   UNL     1       7.046  -1.211  -0.880  1.00  0.00     0.054 A 
ATOM      9  C   UNL     1       8.370  -0.198  -3.043  1.00  0.00     0.051 A 
ATOM     10  C   UNL     1       7.936  -2.029  -1.582  1.00  0.00     0.166 A 
ATOM     11  C   UNL     1       8.603  -1.518  -2.673  1.00  0.00     0.165 A 
ATOM     12  O   UNL     1       8.333  -3.340  -1.421  1.00  0.00    -0.454 OA
ATOM     13  O   UNL     1       9.406  -2.536  -3.164  1.00  0.00    -0.454 OA
ATOM     14  C   UNL     1       9.334  -3.680  -2.347  1.00  0.00     0.468 C 
ENDBRANCH   5   6
ENDBRANCH   1   5
TORSDOF 3
ENDMDL
MODEL 5
REMARK VINA RESULT:      -6.8      1.196      5.174
REMARK SMILES CC(=O)CCc1ccc2c(c1)OCO2
REMARK SMILES IDX 4 1 2 2 1 3 3 4 5 5 6 6 7 7 11 8 8 9 10 10 9 11 12 12 14 13
REMARK SMILES IDX 13 14
REMARK H PARENT
REMARK Flexibility Score: inf
ROOT
ATOM      1  C   UNL     1       8.317   0.163  -2.721  1.00  0.00     0.080 C 
ENDROOT
BRANCH   1   2
ATOM      2  C   UNL     1       8.065  -1.303  -2.797  1.00  0.00     0.130 C 
ATOM      3  C   UNL     1       9.170  -2.275  -3.014  1.00  0.00     0.087 C 
ATOM      4  O   UNL     1       6.936  -1.752  -2.683  1.00  0.00    -0.300 OA
ENDBRANCH   1   2
BRANCH   1   5
ATOM      5  C   UNL     1       8.855   0.559  -1.360  1.00  0.00     0.043 C 
BRANCH   5   6
ATOM      6  C   UNL     1       7.832   0.426  -0.308  1.00  0.00    -0.044 A 
ATOM      7  C   UNL     1       7.948  -0.525   0.712  1.00  0.00     0.008 A 
ATOM      8  C   UNL     1       6.732   1.254  -0.318  1.00  0.00     0.054 A 
ATOM      9  C   UNL     1       6.957  -0.603   1.673  1.00  0.00     0.051 A 
ATOM     10  C   UNL     1       5.733   1.172   0.656  1.00  0.00     0.166 A 
ATOM     11  C   UNL     1       5.846   0.235   1.660  1.00  0.00     0.165 A 
ATOM     12  O   UNL     1       4.561   1.869   0.862  1.00  0.00    -0.454 OA
ATOM     13  O   UNL     1       4.730   0.379   2.470  1.00  0.00    -0.454 OA
ATOM     14  C   UNL     1       3.935   1.463   2.052  1.00  0.00     0.468 C 
ENDBRANCH   5   6
ENDBRANCH   1   5
TORSDOF 3
ENDMDL
