@<TRIPOS>MOLECULE
/home/cewinharhar/GITHUB/reincatalyze/data/processed/docking_pred/2023-May-24-1506_sub9_nm5_bs15_s42_ex16_mel10_mts10000_k50_ec02_g099_lra3e-4_lrc3e-3/d0b377ce7413ba2d0a06352180e6db5bf746794c_ligand_9.pdbqt
 14 15 0 0 0
SMALL
GASTEIGER

@<TRIPOS>ATOM
      1  C          6.7840    0.7410    1.3640 C.3     1  UNL1        0.0800
      2  C          5.3550    1.1460    1.4690 C.2     1  UNL1        0.1300
      3  C          4.7580    2.1500    0.5480 C.3     1  UNL1        0.0870
      4  O          4.6270    0.6620    2.3220 O.2     1  UNL1       -0.3000
      5  C          7.3200    0.9700   -0.0350 C.3     1  UNL1        0.0430
      6  C          7.6700   -0.2970   -0.7010 C.2     1  UNL1       -0.0440
      7  C          7.6820   -0.4130   -2.0960 C.2     1  UNL1        0.0080
      8  C          7.9970   -1.3980    0.0570 C.2     1  UNL1        0.0540
      9  C          8.0190   -1.6270   -2.6650 C.2     1  UNL1        0.0510
     10  C          8.3380   -2.6240   -0.5240 C.2     1  UNL1        0.1660
     11  C          8.3480   -2.7390   -1.8960 C.2     1  UNL1        0.1650
     12  O          8.6950   -3.8460    0.0040 O.2     1  UNL1       -0.4540
     13  O          8.7170   -4.0430   -2.1860 O.2     1  UNL1       -0.4540
     14  C          9.0340   -4.7540   -1.0130 C.3     1  UNL1        0.4680
@<TRIPOS>BOND
     1     9     7    1
     2     9    11    2
     3    13    11    1
     4    13    14    1
     5     7     6    2
     6    11    10    1
     7    14    12    1
     8     6     5    1
     9     6     8    1
    10    10    12    1
    11    10     8    2
    12     5     1    1
    13     3     2    1
    14     1     2    1
    15     2     4    2
