@<TRIPOS>MOLECULE
/home/cewinharhar/GITHUB/reincatalyze/data/processed/docking_pred/2023-May-24-1506_sub9_nm5_bs15_s42_ex16_mel10_mts10000_k50_ec02_g099_lra3e-4_lrc3e-3/d0b377ce7413ba2d0a06352180e6db5bf746794c_ligand_9.pdbqt
 14 15 0 0 0
SMALL
GASTEIGER

@<TRIPOS>ATOM
      1  C          5.4380   -0.0470    2.0080 C.3     1  UNL1        0.0800
      2  C          4.5800    1.1460    1.7650 C.2     1  UNL1        0.1300
      3  C          4.8930    2.1270    0.6910 C.3     1  UNL1        0.0870
      4  O          3.5890    1.3550    2.4460 O.2     1  UNL1       -0.3000
      5  C          6.8680    0.2050    1.5730 C.3     1  UNL1        0.0430
      6  C          7.2880   -0.7250    0.5100 C.2     1  UNL1       -0.0440
      7  C          7.1510   -0.3990   -0.8450 C.2     1  UNL1        0.0080
      8  C          7.8320   -1.9440    0.8450 C.2     1  UNL1        0.0540
      9  C          7.5640   -1.3110   -1.7990 C.2     1  UNL1        0.0510
     10  C          8.2480   -2.8620   -0.1240 C.2     1  UNL1        0.1660
     11  C          8.1130   -2.5430   -1.4560 C.2     1  UNL1        0.1650
     12  O          8.8090   -4.1190   -0.0470 O.2     1  UNL1       -0.4540
     13  O          8.6000   -3.6220   -2.1780 O.2     1  UNL1       -0.4540
     14  C          9.1350   -4.6050   -1.3240 C.3     1  UNL1        0.4680
@<TRIPOS>BOND
     1    13    11    1
     2    13    14    1
     3     9    11    2
     4     9     7    1
     5    11    10    1
     6    14    12    1
     7     7     6    2
     8    10    12    1
     9    10     8    2
    10     6     8    1
    11     6     5    1
    12     3     2    1
    13     5     1    1
    14     2     1    1
    15     2     4    2
