MODEL 1
REMARK VINA RESULT:      -7.7      0.000      0.000
REMARK SMILES CC(=O)CCc1ccc2c(c1)OCO2
REMARK SMILES IDX 4 1 2 2 1 3 3 4 5 5 6 6 7 7 11 8 8 9 10 10 9 11 12 12 14 13
REMARK SMILES IDX 13 14
REMARK H PARENT
REMARK Flexibility Score: inf
ROOT
ATOM      1  C   UNL     1       5.508   1.951   1.255  1.00  0.00     0.080 C 
ENDROOT
BRANCH   1   2
ATOM      2  C   UNL     1       5.095   0.732   2.005  1.00  0.00     0.130 C 
ATOM      3  C   UNL     1       6.014  -0.423   2.184  1.00  0.00     0.087 C 
ATOM      4  O   UNL     1       3.982   0.647   2.497  1.00  0.00    -0.300 OA
ENDBRANCH   1   2
BRANCH   1   5
ATOM      5  C   UNL     1       5.383   1.746  -0.241  1.00  0.00     0.043 C 
BRANCH   5   6
ATOM      6  C   UNL     1       6.555   1.046  -0.797  1.00  0.00    -0.044 A 
ATOM      7  C   UNL     1       7.860   1.483  -0.539  1.00  0.00     0.008 A 
ATOM      8  C   UNL     1       6.374  -0.065  -1.588  1.00  0.00     0.054 A 
ATOM      9  C   UNL     1       8.921   0.785  -1.087  1.00  0.00     0.051 A 
ATOM     10  C   UNL     1       7.451  -0.767  -2.139  1.00  0.00     0.166 A 
ATOM     11  C   UNL     1       8.735  -0.338  -1.887  1.00  0.00     0.165 A 
ATOM     12  O   UNL     1       7.531  -1.882  -2.946  1.00  0.00    -0.454 OA
ATOM     13  O   UNL     1       9.586  -1.208  -2.549  1.00  0.00    -0.454 OA
ATOM     14  C   UNL     1       8.869  -2.255  -3.158  1.00  0.00     0.468 C 
ENDBRANCH   5   6
ENDBRANCH   1   5
TORSDOF 3
ENDMDL
MODEL 2
REMARK VINA RESULT:      -7.4      1.869      2.317
REMARK SMILES CC(=O)CCc1ccc2c(c1)OCO2
REMARK SMILES IDX 4 1 2 2 1 3 3 4 5 5 6 6 7 7 11 8 8 9 10 10 9 11 12 12 14 13
REMARK SMILES IDX 13 14
REMARK H PARENT
REMARK Flexibility Score: inf
ROOT
ATOM      1  C   UNL     1       5.573   1.333  -0.215  1.00  0.00     0.080 C 
ENDROOT
BRANCH   1   2
ATOM      2  C   UNL     1       5.020   1.212   1.162  1.00  0.00     0.130 C 
ATOM      3  C   UNL     1       5.413   0.100   2.068  1.00  0.00     0.087 C 
ATOM      4  O   UNL     1       4.220   2.029   1.590  1.00  0.00    -0.300 OA
ENDBRANCH   1   2
BRANCH   1   5
ATOM      5  C   UNL     1       7.078   1.152  -0.221  1.00  0.00     0.043 C 
BRANCH   5   6
ATOM      6  C   UNL     1       7.473  -0.125  -0.843  1.00  0.00    -0.044 A 
ATOM      7  C   UNL     1       7.515  -0.281  -2.233  1.00  0.00     0.008 A 
ATOM      8  C   UNL     1       7.813  -1.195  -0.047  1.00  0.00     0.054 A 
ATOM      9  C   UNL     1       7.893  -1.502  -2.760  1.00  0.00     0.051 A 
ATOM     10  C   UNL     1       8.196  -2.428  -0.585  1.00  0.00     0.166 A 
ATOM     11  C   UNL     1       8.236  -2.582  -1.953  1.00  0.00     0.165 A 
ATOM     12  O   UNL     1       8.573  -3.625  -0.015  1.00  0.00    -0.454 OA
ATOM     13  O   UNL     1       8.642  -3.885  -2.197  1.00  0.00    -0.454 OA
ATOM     14  C   UNL     1       8.954  -4.553  -0.998  1.00  0.00     0.468 C 
ENDBRANCH   5   6
ENDBRANCH   1   5
TORSDOF 3
ENDMDL
MODEL 3
REMARK VINA RESULT:      -7.2      2.051      2.630
REMARK SMILES CC(=O)CCc1ccc2c(c1)OCO2
REMARK SMILES IDX 4 1 2 2 1 3 3 4 5 5 6 6 7 7 11 8 8 9 10 10 9 11 12 12 14 13
REMARK SMILES IDX 13 14
REMARK H PARENT
REMARK Flexibility Score: inf
ROOT
ATOM      1  C   UNL     1       5.438  -0.047   2.008  1.00  0.00     0.080 C 
ENDROOT
BRANCH   1   2
ATOM      2  C   UNL     1       4.580   1.146   1.765  1.00  0.00     0.130 C 
ATOM      3  C   UNL     1       4.893   2.127   0.691  1.00  0.00     0.087 C 
ATOM      4  O   UNL     1       3.589   1.355   2.446  1.00  0.00    -0.300 OA
ENDBRANCH   1   2
BRANCH   1   5
ATOM      5  C   UNL     1       6.868   0.205   1.573  1.00  0.00     0.043 C 
BRANCH   5   6
ATOM      6  C   UNL     1       7.288  -0.725   0.510  1.00  0.00    -0.044 A 
ATOM      7  C   UNL     1       7.151  -0.399  -0.845  1.00  0.00     0.008 A 
ATOM      8  C   UNL     1       7.832  -1.944   0.845  1.00  0.00     0.054 A 
ATOM      9  C   UNL     1       7.564  -1.311  -1.799  1.00  0.00     0.051 A 
ATOM     10  C   UNL     1       8.248  -2.862  -0.124  1.00  0.00     0.166 A 
ATOM     11  C   UNL     1       8.113  -2.543  -1.456  1.00  0.00     0.165 A 
ATOM     12  O   UNL     1       8.809  -4.119  -0.047  1.00  0.00    -0.454 OA
ATOM     13  O   UNL     1       8.600  -3.622  -2.178  1.00  0.00    -0.454 OA
ATOM     14  C   UNL     1       9.135  -4.605  -1.324  1.00  0.00     0.468 C 
ENDBRANCH   5   6
ENDBRANCH   1   5
TORSDOF 3
ENDMDL
MODEL 4
REMARK VINA RESULT:      -7.1      1.241      1.442
REMARK SMILES CC(=O)CCc1ccc2c(c1)OCO2
REMARK SMILES IDX 4 1 2 2 1 3 3 4 5 5 6 6 7 7 11 8 8 9 10 10 9 11 12 12 14 13
REMARK SMILES IDX 13 14
REMARK H PARENT
REMARK Flexibility Score: inf
ROOT
ATOM      1  C   UNL     1       6.324   1.274   0.857  1.00  0.00     0.080 C 
ENDROOT
BRANCH   1   2
ATOM      2  C   UNL     1       5.654   0.458   1.907  1.00  0.00     0.130 C 
ATOM      3  C   UNL     1       6.291  -0.761   2.473  1.00  0.00     0.087 C 
ATOM      4  O   UNL     1       4.555   0.769   2.337  1.00  0.00    -0.300 OA
ENDBRANCH   1   2
BRANCH   1   5
ATOM      5  C   UNL     1       5.815   0.917  -0.526  1.00  0.00     0.043 C 
BRANCH   5   6
ATOM      6  C   UNL     1       6.794   0.110  -1.276  1.00  0.00    -0.044 A 
ATOM      7  C   UNL     1       7.531   0.650  -2.336  1.00  0.00     0.008 A 
ATOM      8  C   UNL     1       6.997  -1.208  -0.934  1.00  0.00     0.054 A 
ATOM      9  C   UNL     1       8.436  -0.155  -3.003  1.00  0.00     0.051 A 
ATOM     10  C   UNL     1       7.914  -2.017  -1.611  1.00  0.00     0.166 A 
ATOM     11  C   UNL     1       8.639  -1.487  -2.655  1.00  0.00     0.165 A 
ATOM     12  O   UNL     1       8.291  -3.335  -1.465  1.00  0.00    -0.454 OA
ATOM     13  O   UNL     1       9.456  -2.500  -3.131  1.00  0.00    -0.454 OA
ATOM     14  C   UNL     1       9.333  -3.663  -2.348  1.00  0.00     0.468 C 
ENDBRANCH   5   6
ENDBRANCH   1   5
TORSDOF 3
ENDMDL
MODEL 5
REMARK VINA RESULT:      -7.1      1.985      2.552
REMARK SMILES CC(=O)CCc1ccc2c(c1)OCO2
REMARK SMILES IDX 4 1 2 2 1 3 3 4 5 5 6 6 7 7 11 8 8 9 10 10 9 11 12 12 14 13
REMARK SMILES IDX 13 14
REMARK H PARENT
REMARK Flexibility Score: inf
ROOT
ATOM      1  C   UNL     1       6.784   0.741   1.364  1.00  0.00     0.080 C 
ENDROOT
BRANCH   1   2
ATOM      2  C   UNL     1       5.355   1.146   1.469  1.00  0.00     0.130 C 
ATOM      3  C   UNL     1       4.758   2.150   0.548  1.00  0.00     0.087 C 
ATOM      4  O   UNL     1       4.627   0.662   2.322  1.00  0.00    -0.300 OA
ENDBRANCH   1   2
BRANCH   1   5
ATOM      5  C   UNL     1       7.320   0.970  -0.035  1.00  0.00     0.043 C 
BRANCH   5   6
ATOM      6  C   UNL     1       7.670  -0.297  -0.701  1.00  0.00    -0.044 A 
ATOM      7  C   UNL     1       7.682  -0.413  -2.096  1.00  0.00     0.008 A 
ATOM      8  C   UNL     1       7.997  -1.398   0.057  1.00  0.00     0.054 A 
ATOM      9  C   UNL     1       8.019  -1.627  -2.665  1.00  0.00     0.051 A 
ATOM     10  C   UNL     1       8.338  -2.624  -0.524  1.00  0.00     0.166 A 
ATOM     11  C   UNL     1       8.348  -2.739  -1.896  1.00  0.00     0.165 A 
ATOM     12  O   UNL     1       8.695  -3.846   0.004  1.00  0.00    -0.454 OA
ATOM     13  O   UNL     1       8.717  -4.043  -2.186  1.00  0.00    -0.454 OA
ATOM     14  C   UNL     1       9.034  -4.754  -1.013  1.00  0.00     0.468 C 
ENDBRANCH   5   6
ENDBRANCH   1   5
TORSDOF 3
ENDMDL
