@<TRIPOS>MOLECULE
/home/cewinharhar/GITHUB/reincatalyze/data/processed/docking_pred/2023-May-24-1506_sub9_nm5_bs15_s42_ex16_mel10_mts10000_k50_ec02_g099_lra3e-4_lrc3e-3/d0b377ce7413ba2d0a06352180e6db5bf746794c_ligand_9.pdbqt
 14 15 0 0 0
SMALL
GASTEIGER

@<TRIPOS>ATOM
      1  C          6.3240    1.2740    0.8570 C.3     1  UNL1        0.0800
      2  C          5.6540    0.4580    1.9070 C.2     1  UNL1        0.1300
      3  C          6.2910   -0.7610    2.4730 C.3     1  UNL1        0.0870
      4  O          4.5550    0.7690    2.3370 O.2     1  UNL1       -0.3000
      5  C          5.8150    0.9170   -0.5260 C.3     1  UNL1        0.0430
      6  C          6.7940    0.1100   -1.2760 C.2     1  UNL1       -0.0440
      7  C          7.5310    0.6500   -2.3360 C.2     1  UNL1        0.0080
      8  C          6.9970   -1.2080   -0.9340 C.2     1  UNL1        0.0540
      9  C          8.4360   -0.1550   -3.0030 C.2     1  UNL1        0.0510
     10  C          7.9140   -2.0170   -1.6110 C.2     1  UNL1        0.1660
     11  C          8.6390   -1.4870   -2.6550 C.2     1  UNL1        0.1650
     12  O          8.2910   -3.3350   -1.4650 O.2     1  UNL1       -0.4540
     13  O          9.4560   -2.5000   -3.1310 O.2     1  UNL1       -0.4540
     14  C          9.3330   -3.6630   -2.3480 C.3     1  UNL1        0.4680
@<TRIPOS>BOND
     1    13    11    1
     2    13    14    1
     3     9    11    2
     4     9     7    1
     5    11    10    1
     6    14    12    1
     7     7     6    2
     8    10    12    1
     9    10     8    2
    10     6     8    1
    11     6     5    1
    12     5     1    1
    13     1     2    1
    14     2     4    2
    15     2     3    1
