@<TRIPOS>MOLECULE
/home/cewinharhar/GITHUB/reincatalyze/data/processed/docking_pred/2023-May-24-1506_sub9_nm5_bs15_s42_ex16_mel10_mts10000_k50_ec02_g099_lra3e-4_lrc3e-3/d0b377ce7413ba2d0a06352180e6db5bf746794c_ligand_9.pdbqt
 14 15 0 0 0
SMALL
GASTEIGER

@<TRIPOS>ATOM
      1  C          5.5730    1.3330   -0.2150 C.3     1  UNL1        0.0800
      2  C          5.0200    1.2120    1.1620 C.2     1  UNL1        0.1300
      3  C          5.4130    0.1000    2.0680 C.3     1  UNL1        0.0870
      4  O          4.2200    2.0290    1.5900 O.2     1  UNL1       -0.3000
      5  C          7.0780    1.1520   -0.2210 C.3     1  UNL1        0.0430
      6  C          7.4730   -0.1250   -0.8430 C.2     1  UNL1       -0.0440
      7  C          7.5150   -0.2810   -2.2330 C.2     1  UNL1        0.0080
      8  C          7.8130   -1.1950   -0.0470 C.2     1  UNL1        0.0540
      9  C          7.8930   -1.5020   -2.7600 C.2     1  UNL1        0.0510
     10  C          8.1960   -2.4280   -0.5850 C.2     1  UNL1        0.1660
     11  C          8.2360   -2.5820   -1.9530 C.2     1  UNL1        0.1650
     12  O          8.5730   -3.6250   -0.0150 O.2     1  UNL1       -0.4540
     13  O          8.6420   -3.8850   -2.1970 O.2     1  UNL1       -0.4540
     14  C          8.9540   -4.5530   -0.9980 C.3     1  UNL1        0.4680
@<TRIPOS>BOND
     1     9     7    1
     2     9    11    2
     3     7     6    2
     4    13    11    1
     5    13    14    1
     6    11    10    1
     7    14    12    1
     8     6     5    1
     9     6     8    1
    10    10     8    2
    11    10    12    1
    12     5     1    1
    13     1     2    1
    14     2     4    2
    15     2     3    1
