MODEL 1
REMARK VINA RESULT:      -7.7      0.000      0.000
REMARK SMILES CC(=O)CCc1ccc2c(c1)OCO2
REMARK SMILES IDX 4 1 2 2 1 3 3 4 5 5 6 6 7 7 11 8 8 9 10 10 9 11 12 12 14 13
REMARK SMILES IDX 13 14
REMARK H PARENT
REMARK Flexibility Score: inf
ROOT
ATOM      1  C   UNL     1       5.518   1.889   1.290  1.00  0.00     0.080 C 
ENDROOT
BRANCH   1   2
ATOM      2  C   UNL     1       5.076   0.667   2.016  1.00  0.00     0.130 C 
ATOM      3  C   UNL     1       5.963  -0.519   2.161  1.00  0.00     0.087 C 
ATOM      4  O   UNL     1       3.965   0.602   2.517  1.00  0.00    -0.300 OA
ENDBRANCH   1   2
BRANCH   1   5
ATOM      5  C   UNL     1       5.390   1.715  -0.211  1.00  0.00     0.043 C 
BRANCH   5   6
ATOM      6  C   UNL     1       6.557   1.018  -0.781  1.00  0.00    -0.044 A 
ATOM      7  C   UNL     1       7.864   1.453  -0.532  1.00  0.00     0.008 A 
ATOM      8  C   UNL     1       6.369  -0.089  -1.576  1.00  0.00     0.054 A 
ATOM      9  C   UNL     1       8.921   0.759  -1.094  1.00  0.00     0.051 A 
ATOM     10  C   UNL     1       7.441  -0.788  -2.141  1.00  0.00     0.166 A 
ATOM     11  C   UNL     1       8.727  -0.360  -1.898  1.00  0.00     0.165 A 
ATOM     12  O   UNL     1       7.514  -1.899  -2.954  1.00  0.00    -0.454 OA
ATOM     13  O   UNL     1       9.572  -1.226  -2.573  1.00  0.00    -0.454 OA
ATOM     14  C   UNL     1       8.849  -2.270  -3.181  1.00  0.00     0.468 C 
ENDBRANCH   5   6
ENDBRANCH   1   5
TORSDOF 3
ENDMDL
MODEL 2
REMARK VINA RESULT:      -7.5      1.924      2.381
REMARK SMILES CC(=O)CCc1ccc2c(c1)OCO2
REMARK SMILES IDX 4 1 2 2 1 3 3 4 5 5 6 6 7 7 11 8 8 9 10 10 9 11 12 12 14 13
REMARK SMILES IDX 13 14
REMARK H PARENT
REMARK Flexibility Score: inf
ROOT
ATOM      1  C   UNL     1       5.734   1.374  -0.306  1.00  0.00     0.080 C 
ENDROOT
BRANCH   1   2
ATOM      2  C   UNL     1       5.099   1.280   1.038  1.00  0.00     0.130 C 
ATOM      3  C   UNL     1       5.396   0.155   1.965  1.00  0.00     0.087 C 
ATOM      4  O   UNL     1       4.310   2.129   1.419  1.00  0.00    -0.300 OA
ENDBRANCH   1   2
BRANCH   1   5
ATOM      5  C   UNL     1       7.227   1.123  -0.228  1.00  0.00     0.043 C 
BRANCH   5   6
ATOM      6  C   UNL     1       7.597  -0.165  -0.841  1.00  0.00    -0.044 A 
ATOM      7  C   UNL     1       7.663  -0.323  -2.230  1.00  0.00     0.008 A 
ATOM      8  C   UNL     1       7.890  -1.244  -0.038  1.00  0.00     0.054 A 
ATOM      9  C   UNL     1       8.017  -1.556  -2.749  1.00  0.00     0.051 A 
ATOM     10  C   UNL     1       8.248  -2.487  -0.567  1.00  0.00     0.166 A 
ATOM     11  C   UNL     1       8.311  -2.644  -1.934  1.00  0.00     0.165 A 
ATOM     12  O   UNL     1       8.579  -3.694   0.011  1.00  0.00    -0.454 OA
ATOM     13  O   UNL     1       8.685  -3.958  -2.169  1.00  0.00    -0.454 OA
ATOM     14  C   UNL     1       8.953  -4.634  -0.964  1.00  0.00     0.468 C 
ENDBRANCH   5   6
ENDBRANCH   1   5
TORSDOF 3
ENDMDL
MODEL 3
REMARK VINA RESULT:      -7.2      2.073      2.641
REMARK SMILES CC(=O)CCc1ccc2c(c1)OCO2
REMARK SMILES IDX 4 1 2 2 1 3 3 4 5 5 6 6 7 7 11 8 8 9 10 10 9 11 12 12 14 13
REMARK SMILES IDX 13 14
REMARK H PARENT
REMARK Flexibility Score: inf
ROOT
ATOM      1  C   UNL     1       5.422  -0.052   2.005  1.00  0.00     0.080 C 
ENDROOT
BRANCH   1   2
ATOM      2  C   UNL     1       4.583   1.152   1.753  1.00  0.00     0.130 C 
ATOM      3  C   UNL     1       4.917   2.126   0.679  1.00  0.00     0.087 C 
ATOM      4  O   UNL     1       3.589   1.376   2.424  1.00  0.00    -0.300 OA
ENDBRANCH   1   2
BRANCH   1   5
ATOM      5  C   UNL     1       6.862   0.186   1.596  1.00  0.00     0.043 C 
BRANCH   5   6
ATOM      6  C   UNL     1       7.289  -0.744   0.536  1.00  0.00    -0.044 A 
ATOM      7  C   UNL     1       7.150  -0.424  -0.820  1.00  0.00     0.008 A 
ATOM      8  C   UNL     1       7.843  -1.958   0.875  1.00  0.00     0.054 A 
ATOM      9  C   UNL     1       7.569  -1.336  -1.771  1.00  0.00     0.051 A 
ATOM     10  C   UNL     1       8.266  -2.876  -0.091  1.00  0.00     0.166 A 
ATOM     11  C   UNL     1       8.127  -2.563  -1.425  1.00  0.00     0.165 A 
ATOM     12  O   UNL     1       8.836  -4.129  -0.011  1.00  0.00    -0.454 OA
ATOM     13  O   UNL     1       8.622  -3.640  -2.143  1.00  0.00    -0.454 OA
ATOM     14  C   UNL     1       9.165  -4.616  -1.286  1.00  0.00     0.468 C 
ENDBRANCH   5   6
ENDBRANCH   1   5
TORSDOF 3
ENDMDL
MODEL 4
REMARK VINA RESULT:      -7.1      1.242      1.441
REMARK SMILES CC(=O)CCc1ccc2c(c1)OCO2
REMARK SMILES IDX 4 1 2 2 1 3 3 4 5 5 6 6 7 7 11 8 8 9 10 10 9 11 12 12 14 13
REMARK SMILES IDX 13 14
REMARK H PARENT
REMARK Flexibility Score: inf
ROOT
ATOM      1  C   UNL     1       6.330   1.260   0.902  1.00  0.00     0.080 C 
ENDROOT
BRANCH   1   2
ATOM      2  C   UNL     1       5.640   0.428   1.926  1.00  0.00     0.130 C 
ATOM      3  C   UNL     1       6.282  -0.777   2.516  1.00  0.00     0.087 C 
ATOM      4  O   UNL     1       4.518   0.713   2.314  1.00  0.00    -0.300 OA
ENDBRANCH   1   2
BRANCH   1   5
ATOM      5  C   UNL     1       5.824   0.948  -0.493  1.00  0.00     0.043 C 
BRANCH   5   6
ATOM      6  C   UNL     1       6.785   0.126  -1.251  1.00  0.00    -0.044 A 
ATOM      7  C   UNL     1       7.486   0.642  -2.346  1.00  0.00     0.008 A 
ATOM      8  C   UNL     1       7.007  -1.180  -0.880  1.00  0.00     0.054 A 
ATOM      9  C   UNL     1       8.376  -0.175  -3.019  1.00  0.00     0.051 A 
ATOM     10  C   UNL     1       7.907  -2.003  -1.563  1.00  0.00     0.166 A 
ATOM     11  C   UNL     1       8.597  -1.496  -2.642  1.00  0.00     0.165 A 
ATOM     12  O   UNL     1       8.297  -3.315  -1.393  1.00  0.00    -0.454 OA
ATOM     13  O   UNL     1       9.405  -2.518  -3.116  1.00  0.00    -0.454 OA
ATOM     14  C   UNL     1       9.314  -3.660  -2.299  1.00  0.00     0.468 C 
ENDBRANCH   5   6
ENDBRANCH   1   5
TORSDOF 3
ENDMDL
MODEL 5
REMARK VINA RESULT:      -6.8      1.187      5.170
REMARK SMILES CC(=O)CCc1ccc2c(c1)OCO2
REMARK SMILES IDX 4 1 2 2 1 3 3 4 5 5 6 6 7 7 11 8 8 9 10 10 9 11 12 12 14 13
REMARK SMILES IDX 13 14
REMARK H PARENT
REMARK Flexibility Score: inf
ROOT
ATOM      1  C   UNL     1       8.324   0.200  -2.665  1.00  0.00     0.080 C 
ENDROOT
BRANCH   1   2
ATOM      2  C   UNL     1       8.051  -1.261  -2.759  1.00  0.00     0.130 C 
ATOM      3  C   UNL     1       9.133  -2.242  -3.039  1.00  0.00     0.087 C 
ATOM      4  O   UNL     1       6.921  -1.698  -2.608  1.00  0.00    -0.300 OA
ENDBRANCH   1   2
BRANCH   1   5
ATOM      5  C   UNL     1       8.850   0.575  -1.293  1.00  0.00     0.043 C 
BRANCH   5   6
ATOM      6  C   UNL     1       7.817   0.426  -0.253  1.00  0.00    -0.044 A 
ATOM      7  C   UNL     1       7.924  -0.541   0.753  1.00  0.00     0.008 A 
ATOM      8  C   UNL     1       6.718   1.255  -0.260  1.00  0.00     0.054 A 
ATOM      9  C   UNL     1       6.923  -0.633   1.704  1.00  0.00     0.051 A 
ATOM     10  C   UNL     1       5.710   1.158   0.704  1.00  0.00     0.166 A 
ATOM     11  C   UNL     1       5.813   0.206   1.694  1.00  0.00     0.165 A 
ATOM     12  O   UNL     1       4.536   1.852   0.910  1.00  0.00    -0.454 OA
ATOM     13  O   UNL     1       4.690   0.337   2.496  1.00  0.00    -0.454 OA
ATOM     14  C   UNL     1       3.900   1.429   2.088  1.00  0.00     0.468 C 
ENDBRANCH   5   6
ENDBRANCH   1   5
TORSDOF 3
ENDMDL
