@<TRIPOS>MOLECULE
/home/cewinharhar/GITHUB/reincatalyze/data/processed/docking_pred/2023-May-24-1506_sub9_nm5_bs15_s42_ex16_mel10_mts10000_k50_ec02_g099_lra3e-4_lrc3e-3/d18fc177cce43baae8a65556dd45e7572e61ad5e_ligand_9.pdbqt
 14 15 0 0 0
SMALL
GASTEIGER

@<TRIPOS>ATOM
      1  C          5.4220   -0.0520    2.0050 C.3     1  UNL1        0.0800
      2  C          4.5830    1.1520    1.7530 C.2     1  UNL1        0.1300
      3  C          4.9170    2.1260    0.6790 C.3     1  UNL1        0.0870
      4  O          3.5890    1.3760    2.4240 O.2     1  UNL1       -0.3000
      5  C          6.8620    0.1860    1.5960 C.3     1  UNL1        0.0430
      6  C          7.2890   -0.7440    0.5360 C.2     1  UNL1       -0.0440
      7  C          7.1500   -0.4240   -0.8200 C.2     1  UNL1        0.0080
      8  C          7.8430   -1.9580    0.8750 C.2     1  UNL1        0.0540
      9  C          7.5690   -1.3360   -1.7710 C.2     1  UNL1        0.0510
     10  C          8.2660   -2.8760   -0.0910 C.2     1  UNL1        0.1660
     11  C          8.1270   -2.5630   -1.4250 C.2     1  UNL1        0.1650
     12  O          8.8360   -4.1290   -0.0110 O.2     1  UNL1       -0.4540
     13  O          8.6220   -3.6400   -2.1430 O.2     1  UNL1       -0.4540
     14  C          9.1650   -4.6160   -1.2860 C.3     1  UNL1        0.4680
@<TRIPOS>BOND
     1    13    11    1
     2    13    14    1
     3     9    11    2
     4     9     7    1
     5    11    10    1
     6    14    12    1
     7     7     6    2
     8    10    12    1
     9    10     8    2
    10     6     8    1
    11     6     5    1
    12     3     2    1
    13     5     1    1
    14     2     1    1
    15     2     4    2
