@<TRIPOS>MOLECULE
/home/cewinharhar/GITHUB/reincatalyze/data/processed/docking_pred/2023-May-24-1506_sub9_nm5_bs15_s42_ex16_mel10_mts10000_k50_ec02_g099_lra3e-4_lrc3e-3/d18fc177cce43baae8a65556dd45e7572e61ad5e_ligand_9.pdbqt
 14 15 0 0 0
SMALL
GASTEIGER

@<TRIPOS>ATOM
      1  C          6.3300    1.2600    0.9020 C.3     1  UNL1        0.0800
      2  C          5.6400    0.4280    1.9260 C.2     1  UNL1        0.1300
      3  C          6.2820   -0.7770    2.5160 C.3     1  UNL1        0.0870
      4  O          4.5180    0.7130    2.3140 O.2     1  UNL1       -0.3000
      5  C          5.8240    0.9480   -0.4930 C.3     1  UNL1        0.0430
      6  C          6.7850    0.1260   -1.2510 C.2     1  UNL1       -0.0440
      7  C          7.4860    0.6420   -2.3460 C.2     1  UNL1        0.0080
      8  C          7.0070   -1.1800   -0.8800 C.2     1  UNL1        0.0540
      9  C          8.3760   -0.1750   -3.0190 C.2     1  UNL1        0.0510
     10  C          7.9070   -2.0030   -1.5630 C.2     1  UNL1        0.1660
     11  C          8.5970   -1.4960   -2.6420 C.2     1  UNL1        0.1650
     12  O          8.2970   -3.3150   -1.3930 O.2     1  UNL1       -0.4540
     13  O          9.4050   -2.5180   -3.1160 O.2     1  UNL1       -0.4540
     14  C          9.3140   -3.6600   -2.2990 C.3     1  UNL1        0.4680
@<TRIPOS>BOND
     1    13    11    1
     2    13    14    1
     3     9    11    2
     4     9     7    1
     5    11    10    1
     6     7     6    2
     7    14    12    1
     8    10    12    1
     9    10     8    2
    10     6     8    1
    11     6     5    1
    12     5     1    1
    13     1     2    1
    14     2     4    2
    15     2     3    1
