@<TRIPOS>MOLECULE
/home/cewinharhar/GITHUB/reincatalyze/data/processed/docking_pred/2023-May-24-1506_sub9_nm5_bs15_s42_ex16_mel10_mts10000_k50_ec02_g099_lra3e-4_lrc3e-3/d32515ef85c53a65d829162c3cbbbf13c46f52f9_ligand_9.pdbqt
 14 15 0 0 0
SMALL
GASTEIGER

@<TRIPOS>ATOM
      1  C          5.5670    1.9120    1.2900 C.3     1  UNL1        0.0800
      2  C          5.1160    0.6960    2.0230 C.2     1  UNL1        0.1300
      3  C          6.0050   -0.4820    2.2050 C.3     1  UNL1        0.0870
      4  O          3.9940    0.6320    2.4990 O.2     1  UNL1       -0.3000
      5  C          5.4330    1.7320   -0.2090 C.3     1  UNL1        0.0430
      6  C          6.5930    1.0260   -0.7810 C.2     1  UNL1       -0.0440
      7  C          7.9030    1.4630   -0.5520 C.2     1  UNL1        0.0080
      8  C          6.3960   -0.0920   -1.5590 C.2     1  UNL1        0.0540
      9  C          8.9530    0.7590   -1.1140 C.2     1  UNL1        0.0510
     10  C          7.4600   -0.8000   -2.1240 C.2     1  UNL1        0.1660
     11  C          8.7490   -0.3700   -1.9000 C.2     1  UNL1        0.1650
     12  O          7.5240   -1.9230   -2.9220 O.2     1  UNL1       -0.4540
     13  O          9.5870   -1.2480   -2.5720 O.2     1  UNL1       -0.4540
     14  C          8.8570   -2.2990   -3.1580 C.3     1  UNL1        0.4680
@<TRIPOS>BOND
     1    14    12    1
     2    14    13    1
     3    12    10    1
     4    13    11    1
     5    10    11    2
     6    10     8    1
     7    11     9    1
     8     8     6    2
     9     9     7    2
    10     6     7    1
    11     6     5    1
    12     5     1    1
    13     1     2    1
    14     2     3    1
    15     2     4    2
