@<TRIPOS>MOLECULE
/home/cewinharhar/GITHUB/reincatalyze/data/processed/docking_pred/2023-May-24-1506_sub9_nm5_bs15_s42_ex16_mel10_mts10000_k50_ec02_g099_lra3e-4_lrc3e-3/d3a7bace4d7284fd134c29c8ba069397c7215f06_ligand_9.pdbqt
 14 15 0 0 0
SMALL
GASTEIGER

@<TRIPOS>ATOM
      1  C          5.5440    1.8760    1.3020 C.3     1  UNL1        0.0800
      2  C          5.1010    0.6530    2.0280 C.2     1  UNL1        0.1300
      3  C          5.9840   -0.5350    2.1680 C.3     1  UNL1        0.0870
      4  O          3.9910    0.5920    2.5330 O.2     1  UNL1       -0.3000
      5  C          5.4080    1.7060   -0.1980 C.3     1  UNL1        0.0430
      6  C          6.5710    1.0090   -0.7760 C.2     1  UNL1       -0.0440
      7  C          7.8790    1.4480   -0.5420 C.2     1  UNL1        0.0080
      8  C          6.3780   -0.1020   -1.5640 C.2     1  UNL1        0.0540
      9  C          8.9320    0.7540   -1.1100 C.2     1  UNL1        0.0510
     10  C          7.4450   -0.8010   -2.1360 C.2     1  UNL1        0.1660
     11  C          8.7330   -0.3690   -1.9070 C.2     1  UNL1        0.1650
     12  O          7.5130   -1.9160   -2.9450 O.2     1  UNL1       -0.4540
     13  O          9.5730   -1.2370   -2.5860 O.2     1  UNL1       -0.4540
     14  C          8.8470   -2.2850   -3.1830 C.3     1  UNL1        0.4680
@<TRIPOS>BOND
     1    14    12    1
     2    14    13    1
     3    12    10    1
     4    13    11    1
     5    10    11    2
     6    10     8    1
     7    11     9    1
     8     8     6    2
     9     9     7    2
    10     6     7    1
    11     6     5    1
    12     5     1    1
    13     1     2    1
    14     2     3    1
    15     2     4    2
