@<TRIPOS>MOLECULE
/home/cewinharhar/GITHUB/reincatalyze/data/processed/docking_pred/2023-May-24-1506_sub9_nm5_bs15_s42_ex16_mel10_mts10000_k50_ec02_g099_lra3e-4_lrc3e-3/d3a7bace4d7284fd134c29c8ba069397c7215f06_ligand_9.pdbqt
 14 15 0 0 0
SMALL
GASTEIGER

@<TRIPOS>ATOM
      1  C          5.7030    1.2070   -0.3180 C.3     1  UNL1        0.0800
      2  C          5.1480    1.2100    1.0650 C.2     1  UNL1        0.1300
      3  C          5.3860    0.0810    2.0040 C.3     1  UNL1        0.0870
      4  O          4.4780    2.1460    1.4690 O.2     1  UNL1       -0.3000
      5  C          7.2100    1.0440   -0.3070 C.3     1  UNL1        0.0430
      6  C          7.6250   -0.2390   -0.9030 C.2     1  UNL1       -0.0440
      7  C          7.7680   -0.3920   -2.2860 C.2     1  UNL1        0.0080
      8  C          7.8830   -1.3180   -0.0880 C.2     1  UNL1        0.0540
      9  C          8.1610   -1.6190   -2.7890 C.2     1  UNL1        0.0510
     10  C          8.2810   -2.5560   -0.6010 C.2     1  UNL1        0.1660
     11  C          8.4210   -2.7080   -1.9620 C.2     1  UNL1        0.1650
     12  O          8.5910   -3.7620   -0.0090 O.2     1  UNL1       -0.4540
     13  O          8.8190   -4.0170   -2.1800 O.2     1  UNL1       -0.4540
     14  C          9.0270   -4.6950   -0.9640 C.3     1  UNL1        0.4680
@<TRIPOS>BOND
     1     9     7    1
     2     9    11    2
     3     7     6    2
     4    13    11    1
     5    13    14    1
     6    11    10    1
     7    14    12    1
     8     6     5    1
     9     6     8    1
    10    10     8    2
    11    10    12    1
    12     1     5    1
    13     1     2    1
    14     2     4    2
    15     2     3    1
