MODEL 1
REMARK VINA RESULT:      -7.6      0.000      0.000
REMARK SMILES CC(=O)CCc1ccc2c(c1)OCO2
REMARK SMILES IDX 4 1 2 2 1 3 3 4 5 5 6 6 7 7 11 8 8 9 10 10 9 11 12 12 14 13
REMARK SMILES IDX 13 14
REMARK H PARENT
REMARK Flexibility Score: inf
ROOT
ATOM      1  C   UNL     1       5.544   1.876   1.302  1.00  0.00     0.080 C 
ENDROOT
BRANCH   1   2
ATOM      2  C   UNL     1       5.101   0.653   2.028  1.00  0.00     0.130 C 
ATOM      3  C   UNL     1       5.984  -0.535   2.168  1.00  0.00     0.087 C 
ATOM      4  O   UNL     1       3.991   0.592   2.533  1.00  0.00    -0.300 OA
ENDBRANCH   1   2
BRANCH   1   5
ATOM      5  C   UNL     1       5.408   1.706  -0.198  1.00  0.00     0.043 C 
BRANCH   5   6
ATOM      6  C   UNL     1       6.571   1.009  -0.776  1.00  0.00    -0.044 A 
ATOM      7  C   UNL     1       7.879   1.448  -0.542  1.00  0.00     0.008 A 
ATOM      8  C   UNL     1       6.378  -0.102  -1.564  1.00  0.00     0.054 A 
ATOM      9  C   UNL     1       8.932   0.754  -1.110  1.00  0.00     0.051 A 
ATOM     10  C   UNL     1       7.445  -0.801  -2.136  1.00  0.00     0.166 A 
ATOM     11  C   UNL     1       8.733  -0.369  -1.907  1.00  0.00     0.165 A 
ATOM     12  O   UNL     1       7.513  -1.916  -2.945  1.00  0.00    -0.454 OA
ATOM     13  O   UNL     1       9.573  -1.237  -2.586  1.00  0.00    -0.454 OA
ATOM     14  C   UNL     1       8.847  -2.285  -3.183  1.00  0.00     0.468 C 
ENDBRANCH   5   6
ENDBRANCH   1   5
TORSDOF 3
ENDMDL
MODEL 2
REMARK VINA RESULT:      -7.5      1.934      2.402
REMARK SMILES CC(=O)CCc1ccc2c(c1)OCO2
REMARK SMILES IDX 4 1 2 2 1 3 3 4 5 5 6 6 7 7 11 8 8 9 10 10 9 11 12 12 14 13
REMARK SMILES IDX 13 14
REMARK H PARENT
REMARK Flexibility Score: inf
ROOT
ATOM      1  C   UNL     1       5.703   1.207  -0.318  1.00  0.00     0.080 C 
ENDROOT
BRANCH   1   2
ATOM      2  C   UNL     1       5.148   1.210   1.065  1.00  0.00     0.130 C 
ATOM      3  C   UNL     1       5.386   0.081   2.004  1.00  0.00     0.087 C 
ATOM      4  O   UNL     1       4.478   2.146   1.469  1.00  0.00    -0.300 OA
ENDBRANCH   1   2
BRANCH   1   5
ATOM      5  C   UNL     1       7.210   1.044  -0.307  1.00  0.00     0.043 C 
BRANCH   5   6
ATOM      6  C   UNL     1       7.625  -0.239  -0.903  1.00  0.00    -0.044 A 
ATOM      7  C   UNL     1       7.768  -0.392  -2.286  1.00  0.00     0.008 A 
ATOM      8  C   UNL     1       7.883  -1.318  -0.088  1.00  0.00     0.054 A 
ATOM      9  C   UNL     1       8.161  -1.619  -2.789  1.00  0.00     0.051 A 
ATOM     10  C   UNL     1       8.281  -2.556  -0.601  1.00  0.00     0.166 A 
ATOM     11  C   UNL     1       8.421  -2.708  -1.962  1.00  0.00     0.165 A 
ATOM     12  O   UNL     1       8.591  -3.762  -0.009  1.00  0.00    -0.454 OA
ATOM     13  O   UNL     1       8.819  -4.017  -2.180  1.00  0.00    -0.454 OA
ATOM     14  C   UNL     1       9.027  -4.695  -0.964  1.00  0.00     0.468 C 
ENDBRANCH   5   6
ENDBRANCH   1   5
TORSDOF 3
ENDMDL
MODEL 3
REMARK VINA RESULT:      -7.2      2.078      2.599
REMARK SMILES CC(=O)CCc1ccc2c(c1)OCO2
REMARK SMILES IDX 4 1 2 2 1 3 3 4 5 5 6 6 7 7 11 8 8 9 10 10 9 11 12 12 14 13
REMARK SMILES IDX 13 14
REMARK H PARENT
REMARK Flexibility Score: inf
ROOT
ATOM      1  C   UNL     1       5.623   0.081   1.955  1.00  0.00     0.080 C 
ENDROOT
BRANCH   1   2
ATOM      2  C   UNL     1       4.690   1.191   1.618  1.00  0.00     0.130 C 
ATOM      3  C   UNL     1       4.954   2.116   0.483  1.00  0.00     0.087 C 
ATOM      4  O   UNL     1       3.674   1.375   2.268  1.00  0.00    -0.300 OA
ENDBRANCH   1   2
BRANCH   1   5
ATOM      5  C   UNL     1       7.015   0.348   1.416  1.00  0.00     0.043 C 
BRANCH   5   6
ATOM      6  C   UNL     1       7.403  -0.638   0.393  1.00  0.00    -0.044 A 
ATOM      7  C   UNL     1       7.292  -0.360  -0.974  1.00  0.00     0.008 A 
ATOM      8  C   UNL     1       7.891  -1.866   0.779  1.00  0.00     0.054 A 
ATOM      9  C   UNL     1       7.672  -1.324  -1.889  1.00  0.00     0.051 A 
ATOM     10  C   UNL     1       8.276  -2.838  -0.150  1.00  0.00     0.166 A 
ATOM     11  C   UNL     1       8.165  -2.565  -1.495  1.00  0.00     0.165 A 
ATOM     12  O   UNL     1       8.782  -4.114  -0.020  1.00  0.00    -0.454 OA
ATOM     13  O   UNL     1       8.611  -3.690  -2.170  1.00  0.00    -0.454 OA
ATOM     14  C   UNL     1       9.096  -4.661  -1.274  1.00  0.00     0.468 C 
ENDBRANCH   5   6
ENDBRANCH   1   5
TORSDOF 3
ENDMDL
MODEL 4
REMARK VINA RESULT:      -7.1      1.252      1.472
REMARK SMILES CC(=O)CCc1ccc2c(c1)OCO2
REMARK SMILES IDX 4 1 2 2 1 3 3 4 5 5 6 6 7 7 11 8 8 9 10 10 9 11 12 12 14 13
REMARK SMILES IDX 13 14
REMARK H PARENT
REMARK Flexibility Score: inf
ROOT
ATOM      1  C   UNL     1       6.406   1.178   0.919  1.00  0.00     0.080 C 
ENDROOT
BRANCH   1   2
ATOM      2  C   UNL     1       5.678   0.364   1.932  1.00  0.00     0.130 C 
ATOM      3  C   UNL     1       6.273  -0.866   2.520  1.00  0.00     0.087 C 
ATOM      4  O   UNL     1       4.564   0.686   2.311  1.00  0.00    -0.300 OA
ENDBRANCH   1   2
BRANCH   1   5
ATOM      5  C   UNL     1       5.898   0.898  -0.481  1.00  0.00     0.043 C 
BRANCH   5   6
ATOM      6  C   UNL     1       6.846   0.074  -1.252  1.00  0.00    -0.044 A 
ATOM      7  C   UNL     1       7.542   0.591  -2.350  1.00  0.00     0.008 A 
ATOM      8  C   UNL     1       7.061  -1.237  -0.890  1.00  0.00     0.054 A 
ATOM      9  C   UNL     1       8.420  -0.229  -3.035  1.00  0.00     0.051 A 
ATOM     10  C   UNL     1       7.950  -2.062  -1.585  1.00  0.00     0.166 A 
ATOM     11  C   UNL     1       8.635  -1.554  -2.667  1.00  0.00     0.165 A 
ATOM     12  O   UNL     1       8.331  -3.377  -1.427  1.00  0.00    -0.454 OA
ATOM     13  O   UNL     1       9.431  -2.578  -3.154  1.00  0.00    -0.454 OA
ATOM     14  C   UNL     1       9.338  -3.725  -2.342  1.00  0.00     0.468 C 
ENDBRANCH   5   6
ENDBRANCH   1   5
TORSDOF 3
ENDMDL
MODEL 5
REMARK VINA RESULT:      -6.7      1.183      5.176
REMARK SMILES CC(=O)CCc1ccc2c(c1)OCO2
REMARK SMILES IDX 4 1 2 2 1 3 3 4 5 5 6 6 7 7 11 8 8 9 10 10 9 11 12 12 14 13
REMARK SMILES IDX 13 14
REMARK H PARENT
REMARK Flexibility Score: inf
ROOT
ATOM      1  C   UNL     1       8.351   0.211  -2.617  1.00  0.00     0.080 C 
ENDROOT
BRANCH   1   2
ATOM      2  C   UNL     1       8.050  -1.243  -2.737  1.00  0.00     0.130 C 
ATOM      3  C   UNL     1       9.111  -2.237  -3.049  1.00  0.00     0.087 C 
ATOM      4  O   UNL     1       6.915  -1.662  -2.581  1.00  0.00    -0.300 OA
ENDBRANCH   1   2
BRANCH   1   5
ATOM      5  C   UNL     1       8.868   0.555  -1.234  1.00  0.00     0.043 C 
BRANCH   5   6
ATOM      6  C   UNL     1       7.819   0.415  -0.208  1.00  0.00    -0.044 A 
ATOM      7  C   UNL     1       7.902  -0.553   0.799  1.00  0.00     0.008 A 
ATOM      8  C   UNL     1       6.727   1.253  -0.231  1.00  0.00     0.054 A 
ATOM      9  C   UNL     1       6.887  -0.637   1.735  1.00  0.00     0.051 A 
ATOM     10  C   UNL     1       5.704   1.165   0.718  1.00  0.00     0.166 A 
ATOM     11  C   UNL     1       5.785   0.212   1.709  1.00  0.00     0.165 A 
ATOM     12  O   UNL     1       4.534   1.869   0.907  1.00  0.00    -0.454 OA
ATOM     13  O   UNL     1       4.652   0.353   2.494  1.00  0.00    -0.454 OA
ATOM     14  C   UNL     1       3.877   1.451   2.076  1.00  0.00     0.468 C 
ENDBRANCH   5   6
ENDBRANCH   1   5
TORSDOF 3
ENDMDL
