@<TRIPOS>MOLECULE
/home/cewinharhar/GITHUB/reincatalyze/data/processed/docking_pred/2023-May-24-1506_sub9_nm5_bs15_s42_ex16_mel10_mts10000_k50_ec02_g099_lra3e-4_lrc3e-3/d3a7bace4d7284fd134c29c8ba069397c7215f06_ligand_9.pdbqt
 14 15 0 0 0
SMALL
GASTEIGER

@<TRIPOS>ATOM
      1  C          8.3510    0.2110   -2.6170 C.3     1  UNL1        0.0800
      2  C          8.0500   -1.2430   -2.7370 C.2     1  UNL1        0.1300
      3  C          9.1110   -2.2370   -3.0490 C.3     1  UNL1        0.0870
      4  O          6.9150   -1.6620   -2.5810 O.2     1  UNL1       -0.3000
      5  C          8.8680    0.5550   -1.2340 C.3     1  UNL1        0.0430
      6  C          7.8190    0.4150   -0.2080 C.2     1  UNL1       -0.0440
      7  C          7.9020   -0.5530    0.7990 C.2     1  UNL1        0.0080
      8  C          6.7270    1.2530   -0.2310 C.2     1  UNL1        0.0540
      9  C          6.8870   -0.6370    1.7350 C.2     1  UNL1        0.0510
     10  C          5.7040    1.1650    0.7180 C.2     1  UNL1        0.1660
     11  C          5.7850    0.2120    1.7090 C.2     1  UNL1        0.1650
     12  O          4.5340    1.8690    0.9070 O.2     1  UNL1       -0.4540
     13  O          4.6520    0.3530    2.4940 O.2     1  UNL1       -0.4540
     14  C          3.8770    1.4510    2.0760 C.3     1  UNL1        0.4680
@<TRIPOS>BOND
     1     3     2    1
     2     2     1    1
     3     2     4    2
     4     1     5    1
     5     5     6    1
     6     8     6    2
     7     8    10    1
     8     6     7    1
     9    10    12    1
    10    10    11    2
    11     7     9    2
    12    12    14    1
    13    11     9    1
    14    11    13    1
    15    14    13    1
