@<TRIPOS>MOLECULE
/home/cewinharhar/GITHUB/reincatalyze/data/processed/docking_pred/2023-May-24-1506_sub9_nm5_bs15_s42_ex16_mel10_mts10000_k50_ec02_g099_lra3e-4_lrc3e-3/d3a7bace4d7284fd134c29c8ba069397c7215f06_ligand_9.pdbqt
 14 15 0 0 0
SMALL
GASTEIGER

@<TRIPOS>ATOM
      1  C          6.4060    1.1780    0.9190 C.3     1  UNL1        0.0800
      2  C          5.6780    0.3640    1.9320 C.2     1  UNL1        0.1300
      3  C          6.2730   -0.8660    2.5200 C.3     1  UNL1        0.0870
      4  O          4.5640    0.6860    2.3110 O.2     1  UNL1       -0.3000
      5  C          5.8980    0.8980   -0.4810 C.3     1  UNL1        0.0430
      6  C          6.8460    0.0740   -1.2520 C.2     1  UNL1       -0.0440
      7  C          7.5420    0.5910   -2.3500 C.2     1  UNL1        0.0080
      8  C          7.0610   -1.2370   -0.8900 C.2     1  UNL1        0.0540
      9  C          8.4200   -0.2290   -3.0350 C.2     1  UNL1        0.0510
     10  C          7.9500   -2.0620   -1.5850 C.2     1  UNL1        0.1660
     11  C          8.6350   -1.5540   -2.6670 C.2     1  UNL1        0.1650
     12  O          8.3310   -3.3770   -1.4270 O.2     1  UNL1       -0.4540
     13  O          9.4310   -2.5780   -3.1540 O.2     1  UNL1       -0.4540
     14  C          9.3380   -3.7250   -2.3420 C.3     1  UNL1        0.4680
@<TRIPOS>BOND
     1    13    11    1
     2    13    14    1
     3     9    11    2
     4     9     7    1
     5    11    10    1
     6     7     6    2
     7    14    12    1
     8    10    12    1
     9    10     8    2
    10     6     8    1
    11     6     5    1
    12     5     1    1
    13     1     2    1
    14     2     4    2
    15     2     3    1
