MODEL 1
REMARK VINA RESULT:      -7.6      0.000      0.000
REMARK SMILES CC(=O)CCc1ccc2c(c1)OCO2
REMARK SMILES IDX 4 1 2 2 1 3 3 4 5 5 6 6 7 7 11 8 8 9 10 10 9 11 12 12 14 13
REMARK SMILES IDX 13 14
REMARK H PARENT
REMARK Flexibility Score: inf
ROOT
ATOM      1  C   UNL     1       5.542   1.907   1.277  1.00  0.00     0.080 C 
ENDROOT
BRANCH   1   2
ATOM      2  C   UNL     1       5.108   0.686   2.011  1.00  0.00     0.130 C 
ATOM      3  C   UNL     1       6.012  -0.481   2.187  1.00  0.00     0.087 C 
ATOM      4  O   UNL     1       3.989   0.608   2.491  1.00  0.00    -0.300 OA
ENDBRANCH   1   2
BRANCH   1   5
ATOM      5  C   UNL     1       5.412   1.724  -0.222  1.00  0.00     0.043 C 
BRANCH   5   6
ATOM      6  C   UNL     1       6.575   1.018  -0.789  1.00  0.00    -0.044 A 
ATOM      7  C   UNL     1       7.884   1.448  -0.544  1.00  0.00     0.008 A 
ATOM      8  C   UNL     1       6.381  -0.093  -1.578  1.00  0.00     0.054 A 
ATOM      9  C   UNL     1       8.936   0.745  -1.102  1.00  0.00     0.051 A 
ATOM     10  C   UNL     1       7.448  -0.800  -2.140  1.00  0.00     0.166 A 
ATOM     11  C   UNL     1       8.736  -0.377  -1.900  1.00  0.00     0.165 A 
ATOM     12  O   UNL     1       7.515  -1.916  -2.947  1.00  0.00    -0.454 OA
ATOM     13  O   UNL     1       9.577  -1.252  -2.570  1.00  0.00    -0.454 OA
ATOM     14  C   UNL     1       8.848  -2.296  -3.172  1.00  0.00     0.468 C 
ENDBRANCH   5   6
ENDBRANCH   1   5
TORSDOF 3
ENDMDL
MODEL 2
REMARK VINA RESULT:      -7.3      1.936      2.453
REMARK SMILES CC(=O)CCc1ccc2c(c1)OCO2
REMARK SMILES IDX 4 1 2 2 1 3 3 4 5 5 6 6 7 7 11 8 8 9 10 10 9 11 12 12 14 13
REMARK SMILES IDX 13 14
REMARK H PARENT
REMARK Flexibility Score: inf
ROOT
ATOM      1  C   UNL     1       5.758   1.132  -0.356  1.00  0.00     0.080 C 
ENDROOT
BRANCH   1   2
ATOM      2  C   UNL     1       5.349   1.153   1.076  1.00  0.00     0.130 C 
ATOM      3  C   UNL     1       5.531  -0.032   1.957  1.00  0.00     0.087 C 
ATOM      4  O   UNL     1       4.849   2.150   1.570  1.00  0.00    -0.300 OA
ENDBRANCH   1   2
BRANCH   1   5
ATOM      5  C   UNL     1       7.263   1.024  -0.498  1.00  0.00     0.043 C 
BRANCH   5   6
ATOM      6  C   UNL     1       7.668  -0.283  -1.046  1.00  0.00    -0.044 A 
ATOM      7  C   UNL     1       7.789  -0.494  -2.424  1.00  0.00     0.008 A 
ATOM      8  C   UNL     1       7.940  -1.327  -0.191  1.00  0.00     0.054 A 
ATOM      9  C   UNL     1       8.174  -1.741  -2.881  1.00  0.00     0.051 A 
ATOM     10  C   UNL     1       8.330  -2.586  -0.658  1.00  0.00     0.166 A 
ATOM     11  C   UNL     1       8.447  -2.795  -2.014  1.00  0.00     0.165 A 
ATOM     12  O   UNL     1       8.650  -3.766  -0.021  1.00  0.00    -0.454 OA
ATOM     13  O   UNL     1       8.842  -4.113  -2.183  1.00  0.00    -0.454 OA
ATOM     14  C   UNL     1       9.070  -4.739  -0.943  1.00  0.00     0.468 C 
ENDBRANCH   5   6
ENDBRANCH   1   5
TORSDOF 3
ENDMDL
MODEL 3
REMARK VINA RESULT:      -7.1      2.084      2.610
REMARK SMILES CC(=O)CCc1ccc2c(c1)OCO2
REMARK SMILES IDX 4 1 2 2 1 3 3 4 5 5 6 6 7 7 11 8 8 9 10 10 9 11 12 12 14 13
REMARK SMILES IDX 13 14
REMARK H PARENT
REMARK Flexibility Score: inf
ROOT
ATOM      1  C   UNL     1       5.553   0.028   1.946  1.00  0.00     0.080 C 
ENDROOT
BRANCH   1   2
ATOM      2  C   UNL     1       4.661   1.182   1.640  1.00  0.00     0.130 C 
ATOM      3  C   UNL     1       4.956   2.123   0.526  1.00  0.00     0.087 C 
ATOM      4  O   UNL     1       3.655   1.389   2.300  1.00  0.00    -0.300 OA
ENDBRANCH   1   2
BRANCH   1   5
ATOM      5  C   UNL     1       6.968   0.286   1.469  1.00  0.00     0.043 C 
BRANCH   5   6
ATOM      6  C   UNL     1       7.381  -0.681   0.435  1.00  0.00    -0.044 A 
ATOM      7  C   UNL     1       7.297  -0.376  -0.928  1.00  0.00     0.008 A 
ATOM      8  C   UNL     1       7.864  -1.914   0.808  1.00  0.00     0.054 A 
ATOM      9  C   UNL     1       7.699  -1.322  -1.853  1.00  0.00     0.051 A 
ATOM     10  C   UNL     1       8.270  -2.867  -0.131  1.00  0.00     0.166 A 
ATOM     11  C   UNL     1       8.186  -2.568  -1.473  1.00  0.00     0.165 A 
ATOM     12  O   UNL     1       8.776  -4.144  -0.015  1.00  0.00    -0.454 OA
ATOM     13  O   UNL     1       8.649  -3.679  -2.160  1.00  0.00    -0.454 OA
ATOM     14  C   UNL     1       9.118  -4.667  -1.273  1.00  0.00     0.468 C 
ENDBRANCH   5   6
ENDBRANCH   1   5
TORSDOF 3
ENDMDL
MODEL 4
REMARK VINA RESULT:      -7.0      1.967      2.538
REMARK SMILES CC(=O)CCc1ccc2c(c1)OCO2
REMARK SMILES IDX 4 1 2 2 1 3 3 4 5 5 6 6 7 7 11 8 8 9 10 10 9 11 12 12 14 13
REMARK SMILES IDX 13 14
REMARK H PARENT
REMARK Flexibility Score: inf
ROOT
ATOM      1  C   UNL     1       6.805   0.799   1.208  1.00  0.00     0.080 C 
ENDROOT
BRANCH   1   2
ATOM      2  C   UNL     1       5.366   1.160   1.339  1.00  0.00     0.130 C 
ATOM      3  C   UNL     1       4.724   2.149   0.432  1.00  0.00     0.087 C 
ATOM      4  O   UNL     1       4.668   0.652   2.201  1.00  0.00    -0.300 OA
ENDBRANCH   1   2
BRANCH   1   5
ATOM      5  C   UNL     1       7.293   0.987  -0.215  1.00  0.00     0.043 C 
BRANCH   5   6
ATOM      6  C   UNL     1       7.688  -0.293  -0.831  1.00  0.00    -0.044 A 
ATOM      7  C   UNL     1       7.829  -0.427  -2.217  1.00  0.00     0.008 A 
ATOM      8  C   UNL     1       7.930  -1.388  -0.033  1.00  0.00     0.054 A 
ATOM      9  C   UNL     1       8.203  -1.652  -2.738  1.00  0.00     0.051 A 
ATOM     10  C   UNL     1       8.309  -2.624  -0.564  1.00  0.00     0.166 A 
ATOM     11  C   UNL     1       8.446  -2.757  -1.928  1.00  0.00     0.165 A 
ATOM     12  O   UNL     1       8.600  -3.844   0.009  1.00  0.00    -0.454 OA
ATOM     13  O   UNL     1       8.824  -4.069  -2.167  1.00  0.00    -0.454 OA
ATOM     14  C   UNL     1       9.022  -4.768  -0.961  1.00  0.00     0.468 C 
ENDBRANCH   5   6
ENDBRANCH   1   5
TORSDOF 3
ENDMDL
MODEL 5
REMARK VINA RESULT:      -7.0      1.235      1.422
REMARK SMILES CC(=O)CCc1ccc2c(c1)OCO2
REMARK SMILES IDX 4 1 2 2 1 3 3 4 5 5 6 6 7 7 11 8 8 9 10 10 9 11 12 12 14 13
REMARK SMILES IDX 13 14
REMARK H PARENT
REMARK Flexibility Score: inf
ROOT
ATOM      1  C   UNL     1       6.329   1.258   0.869  1.00  0.00     0.080 C 
ENDROOT
BRANCH   1   2
ATOM      2  C   UNL     1       5.660   0.442   1.920  1.00  0.00     0.130 C 
ATOM      3  C   UNL     1       6.296  -0.778   2.485  1.00  0.00     0.087 C 
ATOM      4  O   UNL     1       4.561   0.754   2.352  1.00  0.00    -0.300 OA
ENDBRANCH   1   2
BRANCH   1   5
ATOM      5  C   UNL     1       5.816   0.902  -0.513  1.00  0.00     0.043 C 
BRANCH   5   6
ATOM      6  C   UNL     1       6.793   0.099  -1.269  1.00  0.00    -0.044 A 
ATOM      7  C   UNL     1       7.523   0.643  -2.332  1.00  0.00     0.008 A 
ATOM      8  C   UNL     1       7.003  -1.218  -0.928  1.00  0.00     0.054 A 
ATOM      9  C   UNL     1       8.428  -0.158  -3.004  1.00  0.00     0.051 A 
ATOM     10  C   UNL     1       7.919  -2.024  -1.611  1.00  0.00     0.166 A 
ATOM     11  C   UNL     1       8.637  -1.490  -2.658  1.00  0.00     0.165 A 
ATOM     12  O   UNL     1       8.302  -3.340  -1.467  1.00  0.00    -0.454 OA
ATOM     13  O   UNL     1       9.455  -2.500  -3.139  1.00  0.00    -0.454 OA
ATOM     14  C   UNL     1       9.340  -3.663  -2.356  1.00  0.00     0.468 C 
ENDBRANCH   5   6
ENDBRANCH   1   5
TORSDOF 3
ENDMDL
