@<TRIPOS>MOLECULE
/home/cewinharhar/GITHUB/reincatalyze/data/processed/docking_pred/2023-May-24-1506_sub9_nm5_bs15_s42_ex16_mel10_mts10000_k50_ec02_g099_lra3e-4_lrc3e-3/d4292dbdc665c4d20b6271b363b9823f318ec372_ligand_9.pdbqt
 14 15 0 0 0
SMALL
GASTEIGER

@<TRIPOS>ATOM
      1  C          6.8050    0.7990    1.2080 C.3     1  UNL1        0.0800
      2  C          5.3660    1.1600    1.3390 C.2     1  UNL1        0.1300
      3  C          4.7240    2.1490    0.4320 C.3     1  UNL1        0.0870
      4  O          4.6680    0.6520    2.2010 O.2     1  UNL1       -0.3000
      5  C          7.2930    0.9870   -0.2150 C.3     1  UNL1        0.0430
      6  C          7.6880   -0.2930   -0.8310 C.2     1  UNL1       -0.0440
      7  C          7.8290   -0.4270   -2.2170 C.2     1  UNL1        0.0080
      8  C          7.9300   -1.3880   -0.0330 C.2     1  UNL1        0.0540
      9  C          8.2030   -1.6520   -2.7380 C.2     1  UNL1        0.0510
     10  C          8.3090   -2.6240   -0.5640 C.2     1  UNL1        0.1660
     11  C          8.4460   -2.7570   -1.9280 C.2     1  UNL1        0.1650
     12  O          8.6000   -3.8440    0.0090 O.2     1  UNL1       -0.4540
     13  O          8.8240   -4.0690   -2.1670 O.2     1  UNL1       -0.4540
     14  C          9.0220   -4.7680   -0.9610 C.3     1  UNL1        0.4680
@<TRIPOS>BOND
     1     9     7    1
     2     9    11    2
     3     7     6    2
     4    13    11    1
     5    13    14    1
     6    11    10    1
     7    14    12    1
     8     6     5    1
     9     6     8    1
    10    10     8    2
    11    10    12    1
    12     5     1    1
    13     3     2    1
    14     1     2    1
    15     2     4    2
