@<TRIPOS>MOLECULE
/home/cewinharhar/GITHUB/reincatalyze/data/processed/docking_pred/2023-May-24-1506_sub9_nm5_bs15_s42_ex16_mel10_mts10000_k50_ec02_g099_lra3e-4_lrc3e-3/d4292dbdc665c4d20b6271b363b9823f318ec372_ligand_9.pdbqt
 14 15 0 0 0
SMALL
GASTEIGER

@<TRIPOS>ATOM
      1  C          6.3290    1.2580    0.8690 C.3     1  UNL1        0.0800
      2  C          5.6600    0.4420    1.9200 C.2     1  UNL1        0.1300
      3  C          6.2960   -0.7780    2.4850 C.3     1  UNL1        0.0870
      4  O          4.5610    0.7540    2.3520 O.2     1  UNL1       -0.3000
      5  C          5.8160    0.9020   -0.5130 C.3     1  UNL1        0.0430
      6  C          6.7930    0.0990   -1.2690 C.2     1  UNL1       -0.0440
      7  C          7.5230    0.6430   -2.3320 C.2     1  UNL1        0.0080
      8  C          7.0030   -1.2180   -0.9280 C.2     1  UNL1        0.0540
      9  C          8.4280   -0.1580   -3.0040 C.2     1  UNL1        0.0510
     10  C          7.9190   -2.0240   -1.6110 C.2     1  UNL1        0.1660
     11  C          8.6370   -1.4900   -2.6580 C.2     1  UNL1        0.1650
     12  O          8.3020   -3.3400   -1.4670 O.2     1  UNL1       -0.4540
     13  O          9.4550   -2.5000   -3.1390 O.2     1  UNL1       -0.4540
     14  C          9.3400   -3.6630   -2.3560 C.3     1  UNL1        0.4680
@<TRIPOS>BOND
     1    13    11    1
     2    13    14    1
     3     9    11    2
     4     9     7    1
     5    11    10    1
     6    14    12    1
     7     7     6    2
     8    10    12    1
     9    10     8    2
    10     6     8    1
    11     6     5    1
    12     5     1    1
    13     1     2    1
    14     2     4    2
    15     2     3    1
