@<TRIPOS>MOLECULE
/home/cewinharhar/GITHUB/reincatalyze/data/processed/docking_pred/2023-May-24-1506_sub9_nm5_bs15_s42_ex16_mel10_mts10000_k50_ec02_g099_lra3e-4_lrc3e-3/d4292dbdc665c4d20b6271b363b9823f318ec372_ligand_9.pdbqt
 14 15 0 0 0
SMALL
GASTEIGER

@<TRIPOS>ATOM
      1  C          5.5530    0.0280    1.9460 C.3     1  UNL1        0.0800
      2  C          4.6610    1.1820    1.6400 C.2     1  UNL1        0.1300
      3  C          4.9560    2.1230    0.5260 C.3     1  UNL1        0.0870
      4  O          3.6550    1.3890    2.3000 O.2     1  UNL1       -0.3000
      5  C          6.9680    0.2860    1.4690 C.3     1  UNL1        0.0430
      6  C          7.3810   -0.6810    0.4350 C.2     1  UNL1       -0.0440
      7  C          7.2970   -0.3760   -0.9280 C.2     1  UNL1        0.0080
      8  C          7.8640   -1.9140    0.8080 C.2     1  UNL1        0.0540
      9  C          7.6990   -1.3220   -1.8530 C.2     1  UNL1        0.0510
     10  C          8.2700   -2.8670   -0.1310 C.2     1  UNL1        0.1660
     11  C          8.1860   -2.5680   -1.4730 C.2     1  UNL1        0.1650
     12  O          8.7760   -4.1440   -0.0150 O.2     1  UNL1       -0.4540
     13  O          8.6490   -3.6790   -2.1600 O.2     1  UNL1       -0.4540
     14  C          9.1180   -4.6670   -1.2730 C.3     1  UNL1        0.4680
@<TRIPOS>BOND
     1    13    11    1
     2    13    14    1
     3     9    11    2
     4     9     7    1
     5    11    10    1
     6    14    12    1
     7     7     6    2
     8    10    12    1
     9    10     8    2
    10     6     8    1
    11     6     5    1
    12     3     2    1
    13     5     1    1
    14     2     1    1
    15     2     4    2
