@<TRIPOS>MOLECULE
/home/cewinharhar/GITHUB/reincatalyze/data/processed/docking_pred/2023-May-24-1506_sub9_nm5_bs15_s42_ex16_mel10_mts10000_k50_ec02_g099_lra3e-4_lrc3e-3/d4292dbdc665c4d20b6271b363b9823f318ec372_ligand_9.pdbqt
 14 15 0 0 0
SMALL
GASTEIGER

@<TRIPOS>ATOM
      1  C          5.7580    1.1320   -0.3560 C.3     1  UNL1        0.0800
      2  C          5.3490    1.1530    1.0760 C.2     1  UNL1        0.1300
      3  C          5.5310   -0.0320    1.9570 C.3     1  UNL1        0.0870
      4  O          4.8490    2.1500    1.5700 O.2     1  UNL1       -0.3000
      5  C          7.2630    1.0240   -0.4980 C.3     1  UNL1        0.0430
      6  C          7.6680   -0.2830   -1.0460 C.2     1  UNL1       -0.0440
      7  C          7.7890   -0.4940   -2.4240 C.2     1  UNL1        0.0080
      8  C          7.9400   -1.3270   -0.1910 C.2     1  UNL1        0.0540
      9  C          8.1740   -1.7410   -2.8810 C.2     1  UNL1        0.0510
     10  C          8.3300   -2.5860   -0.6580 C.2     1  UNL1        0.1660
     11  C          8.4470   -2.7950   -2.0140 C.2     1  UNL1        0.1650
     12  O          8.6500   -3.7660   -0.0210 O.2     1  UNL1       -0.4540
     13  O          8.8420   -4.1130   -2.1830 O.2     1  UNL1       -0.4540
     14  C          9.0700   -4.7390   -0.9430 C.3     1  UNL1        0.4680
@<TRIPOS>BOND
     1     9     7    1
     2     9    11    2
     3     7     6    2
     4    13    11    1
     5    13    14    1
     6    11    10    1
     7     6     5    1
     8     6     8    1
     9    14    12    1
    10    10     8    2
    11    10    12    1
    12     5     1    1
    13     1     2    1
    14     2     4    2
    15     2     3    1
