@<TRIPOS>MOLECULE
/home/cewinharhar/GITHUB/reincatalyze/data/processed/docking_pred/2023-May-24-1506_sub9_nm5_bs15_s42_ex16_mel10_mts10000_k50_ec02_g099_lra3e-4_lrc3e-3/d475abeaf77d1f7cad9c775310647ad941a1fd31_ligand_9.pdbqt
 14 15 0 0 0
SMALL
GASTEIGER

@<TRIPOS>ATOM
      1  C          6.8630    0.7210    1.1550 C.3     1  UNL1        0.0800
      2  C          5.4540    1.1310    1.4160 C.2     1  UNL1        0.1300
      3  C          4.7690    2.1480    0.5750 C.3     1  UNL1        0.0870
      4  O          4.8190    0.6400    2.3350 O.2     1  UNL1       -0.3000
      5  C          7.2250    0.8960   -0.3060 C.3     1  UNL1        0.0430
      6  C          7.6800   -0.3690   -0.9110 C.2     1  UNL1       -0.0440
      7  C          7.9190   -0.4800   -2.2860 C.2     1  UNL1        0.0080
      8  C          7.8790   -1.4730   -0.1140 C.2     1  UNL1        0.0540
      9  C          8.3450   -1.6920   -2.7970 C.2     1  UNL1        0.0510
     10  C          8.3110   -2.6970   -0.6360 C.2     1  UNL1        0.1660
     11  C          8.5460   -2.8070   -1.9890 C.2     1  UNL1        0.1650
     12  O          8.5780   -3.9210   -0.0620 O.2     1  UNL1       -0.4540
     13  O          8.9570   -4.1100   -2.2190 O.2     1  UNL1       -0.4540
     14  C          9.0790   -4.8250   -1.0130 C.3     1  UNL1        0.4680
@<TRIPOS>BOND
     1     9     7    1
     2     9    11    2
     3     7     6    2
     4    13    11    1
     5    13    14    1
     6    11    10    1
     7    14    12    1
     8     6     5    1
     9     6     8    1
    10    10     8    2
    11    10    12    1
    12     5     1    1
    13     3     2    1
    14     1     2    1
    15     2     4    2
