MODEL 1
REMARK VINA RESULT:      -7.6      0.000      0.000
REMARK SMILES CC(=O)CCc1ccc2c(c1)OCO2
REMARK SMILES IDX 4 1 2 2 1 3 3 4 5 5 6 6 7 7 11 8 8 9 10 10 9 11 12 12 14 13
REMARK SMILES IDX 13 14
REMARK H PARENT
REMARK Flexibility Score: inf
ROOT
ATOM      1  C   UNL     1       5.520   1.941   1.262  1.00  0.00     0.080 C 
ENDROOT
BRANCH   1   2
ATOM      2  C   UNL     1       5.096   0.724   2.008  1.00  0.00     0.130 C 
ATOM      3  C   UNL     1       6.007  -0.437   2.191  1.00  0.00     0.087 C 
ATOM      4  O   UNL     1       3.979   0.644   2.494  1.00  0.00    -0.300 OA
ENDBRANCH   1   2
BRANCH   1   5
ATOM      5  C   UNL     1       5.391   1.741  -0.236  1.00  0.00     0.043 C 
BRANCH   5   6
ATOM      6  C   UNL     1       6.560   1.041  -0.796  1.00  0.00    -0.044 A 
ATOM      7  C   UNL     1       7.866   1.478  -0.546  1.00  0.00     0.008 A 
ATOM      8  C   UNL     1       6.376  -0.073  -1.584  1.00  0.00     0.054 A 
ATOM      9  C   UNL     1       8.925   0.780  -1.098  1.00  0.00     0.051 A 
ATOM     10  C   UNL     1       7.449  -0.775  -2.139  1.00  0.00     0.166 A 
ATOM     11  C   UNL     1       8.734  -0.345  -1.894  1.00  0.00     0.165 A 
ATOM     12  O   UNL     1       7.526  -1.893  -2.943  1.00  0.00    -0.454 OA
ATOM     13  O   UNL     1       9.582  -1.217  -2.559  1.00  0.00    -0.454 OA
ATOM     14  C   UNL     1       8.862  -2.266  -3.162  1.00  0.00     0.468 C 
ENDBRANCH   5   6
ENDBRANCH   1   5
TORSDOF 3
ENDMDL
MODEL 2
REMARK VINA RESULT:      -7.4      1.934      2.400
REMARK SMILES CC(=O)CCc1ccc2c(c1)OCO2
REMARK SMILES IDX 4 1 2 2 1 3 3 4 5 5 6 6 7 7 11 8 8 9 10 10 9 11 12 12 14 13
REMARK SMILES IDX 13 14
REMARK H PARENT
REMARK Flexibility Score: inf
ROOT
ATOM      1  C   UNL     1       5.754   1.329  -0.280  1.00  0.00     0.080 C 
ENDROOT
BRANCH   1   2
ATOM      2  C   UNL     1       5.165   1.246   1.086  1.00  0.00     0.130 C 
ATOM      3  C   UNL     1       5.392   0.066   1.963  1.00  0.00     0.087 C 
ATOM      4  O   UNL     1       4.474   2.150   1.526  1.00  0.00    -0.300 OA
ENDBRANCH   1   2
BRANCH   1   5
ATOM      5  C   UNL     1       7.252   1.100  -0.248  1.00  0.00     0.043 C 
BRANCH   5   6
ATOM      6  C   UNL     1       7.620  -0.191  -0.855  1.00  0.00    -0.044 A 
ATOM      7  C   UNL     1       7.647  -0.368  -2.243  1.00  0.00     0.008 A 
ATOM      8  C   UNL     1       7.951  -1.255  -0.047  1.00  0.00     0.054 A 
ATOM      9  C   UNL     1       8.001  -1.603  -2.756  1.00  0.00     0.051 A 
ATOM     10  C   UNL     1       8.309  -2.501  -0.570  1.00  0.00     0.166 A 
ATOM     11  C   UNL     1       8.334  -2.677  -1.936  1.00  0.00     0.165 A 
ATOM     12  O   UNL     1       8.673  -3.696   0.014  1.00  0.00    -0.454 OA
ATOM     13  O   UNL     1       8.718  -3.989  -2.165  1.00  0.00    -0.454 OA
ATOM     14  C   UNL     1       9.030  -4.645  -0.959  1.00  0.00     0.468 C 
ENDBRANCH   5   6
ENDBRANCH   1   5
TORSDOF 3
ENDMDL
MODEL 3
REMARK VINA RESULT:      -7.2      2.052      2.634
REMARK SMILES CC(=O)CCc1ccc2c(c1)OCO2
REMARK SMILES IDX 4 1 2 2 1 3 3 4 5 5 6 6 7 7 11 8 8 9 10 10 9 11 12 12 14 13
REMARK SMILES IDX 13 14
REMARK H PARENT
REMARK Flexibility Score: inf
ROOT
ATOM      1  C   UNL     1       5.412  -0.066   2.009  1.00  0.00     0.080 C 
ENDROOT
BRANCH   1   2
ATOM      2  C   UNL     1       4.568   1.137   1.770  1.00  0.00     0.130 C 
ATOM      3  C   UNL     1       4.909   2.135   0.721  1.00  0.00     0.087 C 
ATOM      4  O   UNL     1       3.564   1.341   2.434  1.00  0.00    -0.300 OA
ENDBRANCH   1   2
BRANCH   1   5
ATOM      5  C   UNL     1       6.850   0.179   1.595  1.00  0.00     0.043 C 
BRANCH   5   6
ATOM      6  C   UNL     1       7.276  -0.744   0.528  1.00  0.00    -0.044 A 
ATOM      7  C   UNL     1       7.148  -0.409  -0.825  1.00  0.00     0.008 A 
ATOM      8  C   UNL     1       7.817  -1.965   0.859  1.00  0.00     0.054 A 
ATOM      9  C   UNL     1       7.567  -1.316  -1.782  1.00  0.00     0.051 A 
ATOM     10  C   UNL     1       8.239  -2.878  -0.113  1.00  0.00     0.166 A 
ATOM     11  C   UNL     1       8.113  -2.550  -1.444  1.00  0.00     0.165 A 
ATOM     12  O   UNL     1       8.799  -4.135  -0.040  1.00  0.00    -0.454 OA
ATOM     13  O   UNL     1       8.604  -3.624  -2.170  1.00  0.00    -0.454 OA
ATOM     14  C   UNL     1       9.133  -4.613  -1.319  1.00  0.00     0.468 C 
ENDBRANCH   5   6
ENDBRANCH   1   5
TORSDOF 3
ENDMDL
MODEL 4
REMARK VINA RESULT:      -7.1      1.254      1.463
REMARK SMILES CC(=O)CCc1ccc2c(c1)OCO2
REMARK SMILES IDX 4 1 2 2 1 3 3 4 5 5 6 6 7 7 11 8 8 9 10 10 9 11 12 12 14 13
REMARK SMILES IDX 13 14
REMARK H PARENT
REMARK Flexibility Score: inf
ROOT
ATOM      1  C   UNL     1       6.310   1.222   0.875  1.00  0.00     0.080 C 
ENDROOT
BRANCH   1   2
ATOM      2  C   UNL     1       5.640   0.386   1.909  1.00  0.00     0.130 C 
ATOM      3  C   UNL     1       6.288  -0.829   2.471  1.00  0.00     0.087 C 
ATOM      4  O   UNL     1       4.531   0.677   2.328  1.00  0.00    -0.300 OA
ENDBRANCH   1   2
BRANCH   1   5
ATOM      5  C   UNL     1       5.803   0.890  -0.515  1.00  0.00     0.043 C 
BRANCH   5   6
ATOM      6  C   UNL     1       6.776   0.082  -1.272  1.00  0.00    -0.044 A 
ATOM      7  C   UNL     1       7.479   0.612  -2.360  1.00  0.00     0.008 A 
ATOM      8  C   UNL     1       7.007  -1.225  -0.909  1.00  0.00     0.054 A 
ATOM      9  C   UNL     1       8.380  -0.193  -3.033  1.00  0.00     0.051 A 
ATOM     10  C   UNL     1       7.919  -2.035  -1.592  1.00  0.00     0.166 A 
ATOM     11  C   UNL     1       8.611  -1.515  -2.663  1.00  0.00     0.165 A 
ATOM     12  O   UNL     1       8.319  -3.344  -1.429  1.00  0.00    -0.454 OA
ATOM     13  O   UNL     1       9.431  -2.526  -3.139  1.00  0.00    -0.454 OA
ATOM     14  C   UNL     1       9.345  -3.674  -2.330  1.00  0.00     0.468 C 
ENDBRANCH   5   6
ENDBRANCH   1   5
TORSDOF 3
ENDMDL
MODEL 5
REMARK VINA RESULT:      -6.8      1.241      1.746
REMARK SMILES CC(=O)CCc1ccc2c(c1)OCO2
REMARK SMILES IDX 4 1 2 2 1 3 3 4 5 5 6 6 7 7 11 8 8 9 10 10 9 11 12 12 14 13
REMARK SMILES IDX 13 14
REMARK H PARENT
REMARK Flexibility Score: inf
ROOT
ATOM      1  C   UNL     1       5.327  -0.096   1.931  1.00  0.00     0.080 C 
ENDROOT
BRANCH   1   2
ATOM      2  C   UNL     1       4.455   1.102   1.774  1.00  0.00     0.130 C 
ATOM      3  C   UNL     1       4.743   2.150   0.759  1.00  0.00     0.087 C 
ATOM      4  O   UNL     1       3.471   1.257   2.480  1.00  0.00    -0.300 OA
ENDBRANCH   1   2
BRANCH   1   5
ATOM      5  C   UNL     1       6.794   0.284   1.892  1.00  0.00     0.043 C 
BRANCH   5   6
ATOM      6  C   UNL     1       7.412  -0.056   0.598  1.00  0.00    -0.044 A 
ATOM      7  C   UNL     1       7.935   0.931  -0.246  1.00  0.00     0.008 A 
ATOM      8  C   UNL     1       7.483  -1.371   0.200  1.00  0.00     0.054 A 
ATOM      9  C   UNL     1       8.504   0.553  -1.448  1.00  0.00     0.051 A 
ATOM     10  C   UNL     1       8.060  -1.748  -1.016  1.00  0.00     0.166 A 
ATOM     11  C   UNL     1       8.574  -0.778  -1.848  1.00  0.00     0.165 A 
ATOM     12  O   UNL     1       8.248  -2.969  -1.629  1.00  0.00    -0.454 OA
ATOM     13  O   UNL     1       9.074  -1.430  -2.964  1.00  0.00    -0.454 OA
ATOM     14  C   UNL     1       8.969  -2.827  -2.826  1.00  0.00     0.468 C 
ENDBRANCH   5   6
ENDBRANCH   1   5
TORSDOF 3
ENDMDL
