@<TRIPOS>MOLECULE
/home/cewinharhar/GITHUB/reincatalyze/data/processed/docking_pred/2023-May-24-1506_sub9_nm5_bs15_s42_ex16_mel10_mts10000_k50_ec02_g099_lra3e-4_lrc3e-3/d4c602a3745b48528a2ec664cc6a2c0711254731_ligand_9.pdbqt
 14 15 0 0 0
SMALL
GASTEIGER

@<TRIPOS>ATOM
      1  C          5.7540    1.3290   -0.2800 C.3     1  UNL1        0.0800
      2  C          5.1650    1.2460    1.0860 C.2     1  UNL1        0.1300
      3  C          5.3920    0.0660    1.9630 C.3     1  UNL1        0.0870
      4  O          4.4740    2.1500    1.5260 O.2     1  UNL1       -0.3000
      5  C          7.2520    1.1000   -0.2480 C.3     1  UNL1        0.0430
      6  C          7.6200   -0.1910   -0.8550 C.2     1  UNL1       -0.0440
      7  C          7.6470   -0.3680   -2.2430 C.2     1  UNL1        0.0080
      8  C          7.9510   -1.2550   -0.0470 C.2     1  UNL1        0.0540
      9  C          8.0010   -1.6030   -2.7560 C.2     1  UNL1        0.0510
     10  C          8.3090   -2.5010   -0.5700 C.2     1  UNL1        0.1660
     11  C          8.3340   -2.6770   -1.9360 C.2     1  UNL1        0.1650
     12  O          8.6730   -3.6960    0.0140 O.2     1  UNL1       -0.4540
     13  O          8.7180   -3.9890   -2.1650 O.2     1  UNL1       -0.4540
     14  C          9.0300   -4.6450   -0.9590 C.3     1  UNL1        0.4680
@<TRIPOS>BOND
     1     9     7    1
     2     9    11    2
     3     7     6    2
     4    13    11    1
     5    13    14    1
     6    11    10    1
     7    14    12    1
     8     6     5    1
     9     6     8    1
    10    10     8    2
    11    10    12    1
    12     1     5    1
    13     1     2    1
    14     2     4    2
    15     2     3    1
