@<TRIPOS>MOLECULE
/home/cewinharhar/GITHUB/reincatalyze/data/processed/docking_pred/2023-May-24-1506_sub9_nm5_bs15_s42_ex16_mel10_mts10000_k50_ec02_g099_lra3e-4_lrc3e-3/d558da89fa5d1abbf5476966f73640f3ea5cb98d_ligand_9.pdbqt
 14 15 0 0 0
SMALL
GASTEIGER

@<TRIPOS>ATOM
      1  C          5.5830   -0.1760    2.0130 C.3     1  UNL1        0.0800
      2  C          5.2480    1.0300    1.2050 C.2     1  UNL1        0.1300
      3  C          5.8060    1.2370   -0.1580 C.3     1  UNL1        0.0870
      4  O          4.4990    1.8880    1.6430 O.2     1  UNL1       -0.3000
      5  C          6.5680   -1.0700    1.2850 C.3     1  UNL1        0.0430
      6  C          7.6750   -1.4910    2.1610 C.2     1  UNL1       -0.0440
      7  C          7.6840   -1.1900    3.5280 C.2     1  UNL1        0.0080
      8  C          8.7300   -2.2010    1.6340 C.2     1  UNL1        0.0540
      9  C          8.7500   -1.6120    4.3010 C.2     1  UNL1        0.0510
     10  C          9.8050   -2.6260    2.4210 C.2     1  UNL1        0.1660
     11  C          9.8150   -2.3290    3.7650 C.2     1  UNL1        0.1650
     12  O         10.9550   -3.3330    2.1380 O.2     1  UNL1       -0.4540
     13  O         10.9820   -2.8660    4.2860 O.2     1  UNL1       -0.4540
     14  C         11.6890   -3.5890    3.3070 C.3     1  UNL1        0.4680
@<TRIPOS>BOND
     1     3     2    1
     2     2     4    2
     3     2     1    1
     4     5     1    1
     5     5     6    1
     6     8     6    2
     7     8    10    1
     8    12    10    1
     9    12    14    1
    10     6     7    1
    11    10    11    2
    12    14    13    1
    13     7     9    2
    14    11    13    1
    15    11     9    1
