@<TRIPOS>MOLECULE
/home/cewinharhar/GITHUB/reincatalyze/data/processed/docking_pred/2023-May-24-1506_sub9_nm5_bs15_s42_ex16_mel10_mts10000_k50_ec02_g099_lra3e-4_lrc3e-3/d558da89fa5d1abbf5476966f73640f3ea5cb98d_ligand_9.pdbqt
 14 15 0 0 0
SMALL
GASTEIGER

@<TRIPOS>ATOM
      1  C          6.4070    0.4720    1.5270 C.3     1  UNL1        0.0800
      2  C          5.9750    0.9160    0.1720 C.2     1  UNL1        0.1300
      3  C          5.1680    2.1500   -0.0250 C.3     1  UNL1        0.0870
      4  O          6.2720    0.2740   -0.8220 O.2     1  UNL1       -0.3000
      5  C          6.4900   -1.0390    1.6110 C.3     1  UNL1        0.0430
      6  C          7.6570   -1.4790    2.3960 C.2     1  UNL1       -0.0440
      7  C          7.7790   -1.1790    3.7580 C.2     1  UNL1        0.0080
      8  C          8.6540   -2.2060    1.7870 C.2     1  UNL1        0.0540
      9  C          8.8960   -1.6200    4.4440 C.2     1  UNL1        0.0510
     10  C          9.7810   -2.6500    2.4860 C.2     1  UNL1        0.1660
     11  C          9.9030   -2.3540    3.8250 C.2     1  UNL1        0.1650
     12  O         10.8930   -3.3760    2.1130 O.2     1  UNL1       -0.4540
     13  O         11.0990   -2.9100    4.2520 O.2     1  UNL1       -0.4540
     14  C         11.7140   -3.6450    3.2200 C.3     1  UNL1        0.4680
@<TRIPOS>BOND
     1     4     2    2
     2     3     2    1
     3     2     1    1
     4     1     5    1
     5     5     6    1
     6     8     6    2
     7     8    10    1
     8    12    10    1
     9    12    14    1
    10     6     7    1
    11    10    11    2
    12    14    13    1
    13     7     9    2
    14    11    13    1
    15    11     9    1
