@<TRIPOS>MOLECULE
/home/cewinharhar/GITHUB/reincatalyze/data/processed/docking_pred/2023-May-24-1506_sub9_nm5_bs15_s42_ex16_mel10_mts10000_k50_ec02_g099_lra3e-4_lrc3e-3/d558da89fa5d1abbf5476966f73640f3ea5cb98d_ligand_9.pdbqt
 14 15 0 0 0
SMALL
GASTEIGER

@<TRIPOS>ATOM
      1  C          5.3240   -0.0680    1.9350 C.3     1  UNL1        0.0800
      2  C          5.2560    1.1130    1.0290 C.2     1  UNL1        0.1300
      3  C          5.8660    1.0920   -0.3270 C.3     1  UNL1        0.0870
      4  O          4.6930    2.1380    1.3760 O.2     1  UNL1       -0.3000
      5  C          6.0470   -1.2260    1.2770 C.3     1  UNL1        0.0430
      6  C          7.3010   -1.5560    1.9780 C.2     1  UNL1       -0.0440
      7  C          8.3230   -2.2770    1.3520 C.2     1  UNL1        0.0080
      8  C          7.4830   -1.1470    3.2800 C.2     1  UNL1        0.0540
      9  C          9.4780   -2.5570    2.0590 C.2     1  UNL1        0.0510
     10  C          8.6520   -1.4310    3.9910 C.2     1  UNL1        0.1660
     11  C          9.6580   -2.1430    3.3750 C.2     1  UNL1        0.1650
     12  O          9.0670   -1.1410    5.2740 O.2     1  UNL1       -0.4540
     13  O         10.6810   -2.2750    4.3020 O.2     1  UNL1       -0.4540
     14  C         10.3850   -1.5770    5.4880 C.3     1  UNL1        0.4680
@<TRIPOS>BOND
     1     3     2    1
     2     2     4    2
     3     2     1    1
     4     5     1    1
     5     5     6    1
     6     7     6    2
     7     7     9    1
     8     6     8    1
     9     9    11    2
    10     8    10    2
    11    11    10    1
    12    11    13    1
    13    10    12    1
    14    13    14    1
    15    12    14    1
