@<TRIPOS>MOLECULE
/home/cewinharhar/GITHUB/reincatalyze/data/processed/docking_pred/2023-May-24-1506_sub9_nm5_bs15_s42_ex16_mel10_mts10000_k50_ec02_g099_lra3e-4_lrc3e-3/d558da89fa5d1abbf5476966f73640f3ea5cb98d_ligand_9.pdbqt
 14 15 0 0 0
SMALL
GASTEIGER

@<TRIPOS>ATOM
      1  C          5.4790    1.9450    1.2420 C.3     1  UNL1        0.0800
      2  C          4.9870    0.7460    1.9770 C.2     1  UNL1        0.1300
      3  C          5.8010   -0.4940    2.0800 C.3     1  UNL1        0.0870
      4  O          3.8940    0.7480    2.5200 O.2     1  UNL1       -0.3000
      5  C          5.3700    1.7540   -0.2570 C.3     1  UNL1        0.0430
      6  C          6.5440    1.0520   -0.8060 C.2     1  UNL1       -0.0440
      7  C          7.8480    1.4800   -0.5310 C.2     1  UNL1        0.0080
      8  C          6.3660   -0.0530   -1.6060 C.2     1  UNL1        0.0540
      9  C          8.9120    0.7810   -1.0720 C.2     1  UNL1        0.0510
     10  C          7.4440   -0.7570   -2.1500 C.2     1  UNL1        0.1660
     11  C          8.7280   -0.3360   -1.8820 C.2     1  UNL1        0.1650
     12  O          7.5280   -1.8670   -2.9630 O.2     1  UNL1       -0.4540
     13  O          9.5810   -1.2060   -2.5410 O.2     1  UNL1       -0.4540
     14  C          8.8650   -2.2450   -3.1640 C.3     1  UNL1        0.4680
@<TRIPOS>BOND
     1    14    12    1
     2    14    13    1
     3    12    10    1
     4    13    11    1
     5    10    11    2
     6    10     8    1
     7    11     9    1
     8     8     6    2
     9     9     7    2
    10     6     7    1
    11     6     5    1
    12     5     1    1
    13     1     2    1
    14     2     3    1
    15     2     4    2
