@<TRIPOS>MOLECULE
/home/cewinharhar/GITHUB/reincatalyze/data/processed/docking_pred/2023-May-24-1506_sub9_nm5_bs15_s42_ex16_mel10_mts10000_k50_ec02_g099_lra3e-4_lrc3e-3/d558da89fa5d1abbf5476966f73640f3ea5cb98d_ligand_9.pdbqt
 14 15 0 0 0
SMALL
GASTEIGER

@<TRIPOS>ATOM
      1  C          5.6640    1.2830   -0.2920 C.3     1  UNL1        0.0800
      2  C          5.0980    1.2320    1.0840 C.2     1  UNL1        0.1300
      3  C          5.3310    0.0690    1.9820 C.3     1  UNL1        0.0870
      4  O          4.4210    2.1500    1.5180 O.2     1  UNL1       -0.3000
      5  C          7.1680    1.0940   -0.2770 C.3     1  UNL1        0.0430
      6  C          7.5630   -0.1930   -0.8770 C.2     1  UNL1       -0.0440
      7  C          7.6460   -0.3600   -2.2640 C.2     1  UNL1        0.0080
      8  C          7.8630   -1.2620   -0.0640 C.2     1  UNL1        0.0540
      9  C          8.0230   -1.5900   -2.7710 C.2     1  UNL1        0.0510
     10  C          8.2440   -2.5040   -0.5810 C.2     1  UNL1        0.1660
     11  C          8.3250   -2.6690   -1.9460 C.2     1  UNL1        0.1650
     12  O          8.5870   -3.7020    0.0090 O.2     1  UNL1       -0.4540
     13  O          8.7200   -3.9790   -2.1680 O.2     1  UNL1       -0.4540
     14  C          8.9850   -4.6430   -0.9550 C.3     1  UNL1        0.4680
@<TRIPOS>BOND
     1     9     7    1
     2     9    11    2
     3     7     6    2
     4    13    11    1
     5    13    14    1
     6    11    10    1
     7    14    12    1
     8     6     5    1
     9     6     8    1
    10    10     8    2
    11    10    12    1
    12     1     5    1
    13     1     2    1
    14     2     4    2
    15     2     3    1
