@<TRIPOS>MOLECULE
/home/cewinharhar/GITHUB/reincatalyze/data/processed/docking_pred/2023-May-24-1506_sub9_nm5_bs15_s42_ex16_mel10_mts10000_k50_ec02_g099_lra3e-4_lrc3e-3/d68da6ca94917019a71bc3feefe4e6b6d631e6ad_ligand_9.pdbqt
 14 15 0 0 0
SMALL
GASTEIGER

@<TRIPOS>ATOM
      1  C          8.3200    0.2390   -2.6140 C.3     1  UNL1        0.0800
      2  C          7.9940   -1.2110   -2.7190 C.2     1  UNL1        0.1300
      3  C          9.0420   -2.2280   -3.0040 C.3     1  UNL1        0.0870
      4  O          6.8500   -1.6080   -2.5730 O.2     1  UNL1       -0.3000
      5  C          8.8300    0.5900   -1.2300 C.3     1  UNL1        0.0430
      6  C          7.7890    0.4110   -0.2030 C.2     1  UNL1       -0.0440
      7  C          7.8560   -0.6240    0.7370 C.2     1  UNL1        0.0080
      8  C          6.7220    1.2790   -0.1550 C.2     1  UNL1        0.0540
      9  C          6.8490   -0.7410    1.6790 C.2     1  UNL1        0.0510
     10  C          5.7070    1.1570    0.7990 C.2     1  UNL1        0.1660
     11  C          5.7720    0.1380    1.7240 C.2     1  UNL1        0.1650
     12  O          4.5610    1.8800    1.0500 O.2     1  UNL1       -0.4540
     13  O          4.6520    0.2590    2.5320 O.2     1  UNL1       -0.4540
     14  C          3.9050    1.4040    2.1970 C.3     1  UNL1        0.4680
@<TRIPOS>BOND
     1     3     2    1
     2     2     1    1
     3     2     4    2
     4     1     5    1
     5     5     6    1
     6     6     8    2
     7     6     7    1
     8     8    10    1
     9     7     9    2
    10    10    12    1
    11    10    11    2
    12    12    14    1
    13     9    11    1
    14    11    13    1
    15    14    13    1
