@<TRIPOS>MOLECULE
/home/cewinharhar/GITHUB/reincatalyze/data/processed/docking_pred/2023-May-24-1506_sub9_nm5_bs15_s42_ex16_mel10_mts10000_k50_ec02_g099_lra3e-4_lrc3e-3/d68da6ca94917019a71bc3feefe4e6b6d631e6ad_ligand_9.pdbqt
 14 15 0 0 0
SMALL
GASTEIGER

@<TRIPOS>ATOM
      1  C          5.6910    1.2640   -0.3600 C.3     1  UNL1        0.0800
      2  C          5.1590    1.2610    1.0310 C.2     1  UNL1        0.1300
      3  C          5.5040    0.1840    1.9970 C.3     1  UNL1        0.0870
      4  O          4.4190    2.1500    1.4210 O.2     1  UNL1       -0.3000
      5  C          7.1960    1.0850   -0.3740 C.3     1  UNL1        0.0430
      6  C          7.5860   -0.2200   -0.9380 C.2     1  UNL1       -0.0440
      7  C          7.6870   -0.4210   -2.3190 C.2     1  UNL1        0.0080
      8  C          7.8610   -1.2720   -0.0940 C.2     1  UNL1        0.0540
      9  C          8.0580   -1.6680   -2.7900 C.2     1  UNL1        0.0510
     10  C          8.2360   -2.5300   -0.5750 C.2     1  UNL1        0.1660
     11  C          8.3350   -2.7300   -1.9350 C.2     1  UNL1        0.1650
     12  O          8.5560   -3.7180    0.0480 O.2     1  UNL1       -0.4540
     13  O          8.7190   -4.0490   -2.1190 O.2     1  UNL1       -0.4540
     14  C          8.9580   -4.6860   -0.8870 C.3     1  UNL1        0.4680
@<TRIPOS>BOND
     1     9     7    1
     2     9    11    2
     3     7     6    2
     4    13    11    1
     5    13    14    1
     6    11    10    1
     7     6     5    1
     8     6     8    1
     9    14    12    1
    10    10     8    2
    11    10    12    1
    12     5     1    1
    13     1     2    1
    14     2     4    2
    15     2     3    1
