MODEL 1
REMARK VINA RESULT:      -7.6      0.000      0.000
REMARK SMILES CC(=O)CCc1ccc2c(c1)OCO2
REMARK SMILES IDX 4 1 2 2 1 3 3 4 5 5 6 6 7 7 11 8 8 9 10 10 9 11 12 12 14 13
REMARK SMILES IDX 13 14
REMARK H PARENT
REMARK Flexibility Score: inf
ROOT
ATOM      1  C   UNL     1       5.521   1.924   1.251  1.00  0.00     0.080 C 
ENDROOT
BRANCH   1   2
ATOM      2  C   UNL     1       5.084   0.715   2.004  1.00  0.00     0.130 C 
ATOM      3  C   UNL     1       5.978  -0.462   2.177  1.00  0.00     0.087 C 
ATOM      4  O   UNL     1       3.972   0.654   2.502  1.00  0.00    -0.300 OA
ENDBRANCH   1   2
BRANCH   1   5
ATOM      5  C   UNL     1       5.392   1.717  -0.245  1.00  0.00     0.043 C 
BRANCH   5   6
ATOM      6  C   UNL     1       6.563   1.019  -0.804  1.00  0.00    -0.044 A 
ATOM      7  C   UNL     1       7.868   1.455  -0.546  1.00  0.00     0.008 A 
ATOM      8  C   UNL     1       6.382  -0.091  -1.597  1.00  0.00     0.054 A 
ATOM      9  C   UNL     1       8.929   0.760  -1.096  1.00  0.00     0.051 A 
ATOM     10  C   UNL     1       7.458  -0.791  -2.151  1.00  0.00     0.166 A 
ATOM     11  C   UNL     1       8.742  -0.362  -1.898  1.00  0.00     0.165 A 
ATOM     12  O   UNL     1       7.539  -1.904  -2.959  1.00  0.00    -0.454 OA
ATOM     13  O   UNL     1       9.593  -1.230  -2.564  1.00  0.00    -0.454 OA
ATOM     14  C   UNL     1       8.876  -2.276  -3.174  1.00  0.00     0.468 C 
ENDBRANCH   5   6
ENDBRANCH   1   5
TORSDOF 3
ENDMDL
MODEL 2
REMARK VINA RESULT:      -7.4      1.940      2.422
REMARK SMILES CC(=O)CCc1ccc2c(c1)OCO2
REMARK SMILES IDX 4 1 2 2 1 3 3 4 5 5 6 6 7 7 11 8 8 9 10 10 9 11 12 12 14 13
REMARK SMILES IDX 13 14
REMARK H PARENT
REMARK Flexibility Score: inf
ROOT
ATOM      1  C   UNL     1       5.691   1.264  -0.360  1.00  0.00     0.080 C 
ENDROOT
BRANCH   1   2
ATOM      2  C   UNL     1       5.159   1.261   1.031  1.00  0.00     0.130 C 
ATOM      3  C   UNL     1       5.504   0.184   1.997  1.00  0.00     0.087 C 
ATOM      4  O   UNL     1       4.419   2.150   1.421  1.00  0.00    -0.300 OA
ENDBRANCH   1   2
BRANCH   1   5
ATOM      5  C   UNL     1       7.196   1.085  -0.374  1.00  0.00     0.043 C 
BRANCH   5   6
ATOM      6  C   UNL     1       7.586  -0.220  -0.938  1.00  0.00    -0.044 A 
ATOM      7  C   UNL     1       7.687  -0.421  -2.319  1.00  0.00     0.008 A 
ATOM      8  C   UNL     1       7.861  -1.272  -0.094  1.00  0.00     0.054 A 
ATOM      9  C   UNL     1       8.058  -1.668  -2.790  1.00  0.00     0.051 A 
ATOM     10  C   UNL     1       8.236  -2.530  -0.575  1.00  0.00     0.166 A 
ATOM     11  C   UNL     1       8.335  -2.730  -1.935  1.00  0.00     0.165 A 
ATOM     12  O   UNL     1       8.556  -3.718   0.048  1.00  0.00    -0.454 OA
ATOM     13  O   UNL     1       8.719  -4.049  -2.119  1.00  0.00    -0.454 OA
ATOM     14  C   UNL     1       8.958  -4.686  -0.887  1.00  0.00     0.468 C 
ENDBRANCH   5   6
ENDBRANCH   1   5
TORSDOF 3
ENDMDL
MODEL 3
REMARK VINA RESULT:      -7.1      2.094      2.619
REMARK SMILES CC(=O)CCc1ccc2c(c1)OCO2
REMARK SMILES IDX 4 1 2 2 1 3 3 4 5 5 6 6 7 7 11 8 8 9 10 10 9 11 12 12 14 13
REMARK SMILES IDX 13 14
REMARK H PARENT
REMARK Flexibility Score: inf
ROOT
ATOM      1  C   UNL     1       5.633   0.060   1.961  1.00  0.00     0.080 C 
ENDROOT
BRANCH   1   2
ATOM      2  C   UNL     1       4.703   1.172   1.617  1.00  0.00     0.130 C 
ATOM      3  C   UNL     1       4.969   2.088   0.476  1.00  0.00     0.087 C 
ATOM      4  O   UNL     1       3.688   1.364   2.268  1.00  0.00    -0.300 OA
ENDBRANCH   1   2
BRANCH   1   5
ATOM      5  C   UNL     1       7.027   0.324   1.428  1.00  0.00     0.043 C 
BRANCH   5   6
ATOM      6  C   UNL     1       7.416  -0.661   0.404  1.00  0.00    -0.044 A 
ATOM      7  C   UNL     1       7.308  -0.380  -0.963  1.00  0.00     0.008 A 
ATOM      8  C   UNL     1       7.901  -1.890   0.789  1.00  0.00     0.054 A 
ATOM      9  C   UNL     1       7.689  -1.343  -1.879  1.00  0.00     0.051 A 
ATOM     10  C   UNL     1       8.286  -2.861  -0.141  1.00  0.00     0.166 A 
ATOM     11  C   UNL     1       8.178  -2.585  -1.486  1.00  0.00     0.165 A 
ATOM     12  O   UNL     1       8.789  -4.138  -0.013  1.00  0.00    -0.454 OA
ATOM     13  O   UNL     1       8.624  -3.710  -2.163  1.00  0.00    -0.454 OA
ATOM     14  C   UNL     1       9.106  -4.684  -1.268  1.00  0.00     0.468 C 
ENDBRANCH   5   6
ENDBRANCH   1   5
TORSDOF 3
ENDMDL
MODEL 4
REMARK VINA RESULT:      -7.1      1.247      1.459
REMARK SMILES CC(=O)CCc1ccc2c(c1)OCO2
REMARK SMILES IDX 4 1 2 2 1 3 3 4 5 5 6 6 7 7 11 8 8 9 10 10 9 11 12 12 14 13
REMARK SMILES IDX 13 14
REMARK H PARENT
REMARK Flexibility Score: inf
ROOT
ATOM      1  C   UNL     1       6.369   1.212   0.895  1.00  0.00     0.080 C 
ENDROOT
BRANCH   1   2
ATOM      2  C   UNL     1       5.669   0.391   1.921  1.00  0.00     0.130 C 
ATOM      3  C   UNL     1       6.290  -0.829   2.502  1.00  0.00     0.087 C 
ATOM      4  O   UNL     1       4.557   0.699   2.318  1.00  0.00    -0.300 OA
ENDBRANCH   1   2
BRANCH   1   5
ATOM      5  C   UNL     1       5.860   0.902  -0.499  1.00  0.00     0.043 C 
BRANCH   5   6
ATOM      6  C   UNL     1       6.822   0.087  -1.264  1.00  0.00    -0.044 A 
ATOM      7  C   UNL     1       7.532   0.617  -2.347  1.00  0.00     0.008 A 
ATOM      8  C   UNL     1       7.036  -1.226  -0.911  1.00  0.00     0.054 A 
ATOM      9  C   UNL     1       8.422  -0.195  -3.027  1.00  0.00     0.051 A 
ATOM     10  C   UNL     1       7.937  -2.042  -1.601  1.00  0.00     0.166 A 
ATOM     11  C   UNL     1       8.636  -1.522  -2.668  1.00  0.00     0.165 A 
ATOM     12  O   UNL     1       8.320  -3.357  -1.448  1.00  0.00    -0.454 OA
ATOM     13  O   UNL     1       9.443  -2.540  -3.153  1.00  0.00    -0.454 OA
ATOM     14  C   UNL     1       9.341  -3.693  -2.353  1.00  0.00     0.468 C 
ENDBRANCH   5   6
ENDBRANCH   1   5
TORSDOF 3
ENDMDL
MODEL 5
REMARK VINA RESULT:      -6.7      1.212      5.182
REMARK SMILES CC(=O)CCc1ccc2c(c1)OCO2
REMARK SMILES IDX 4 1 2 2 1 3 3 4 5 5 6 6 7 7 11 8 8 9 10 10 9 11 12 12 14 13
REMARK SMILES IDX 13 14
REMARK H PARENT
REMARK Flexibility Score: inf
ROOT
ATOM      1  C   UNL     1       8.320   0.239  -2.614  1.00  0.00     0.080 C 
ENDROOT
BRANCH   1   2
ATOM      2  C   UNL     1       7.994  -1.211  -2.719  1.00  0.00     0.130 C 
ATOM      3  C   UNL     1       9.042  -2.228  -3.004  1.00  0.00     0.087 C 
ATOM      4  O   UNL     1       6.850  -1.608  -2.573  1.00  0.00    -0.300 OA
ENDBRANCH   1   2
BRANCH   1   5
ATOM      5  C   UNL     1       8.830   0.590  -1.230  1.00  0.00     0.043 C 
BRANCH   5   6
ATOM      6  C   UNL     1       7.789   0.411  -0.203  1.00  0.00    -0.044 A 
ATOM      7  C   UNL     1       7.856  -0.624   0.737  1.00  0.00     0.008 A 
ATOM      8  C   UNL     1       6.722   1.279  -0.155  1.00  0.00     0.054 A 
ATOM      9  C   UNL     1       6.849  -0.741   1.679  1.00  0.00     0.051 A 
ATOM     10  C   UNL     1       5.707   1.157   0.799  1.00  0.00     0.166 A 
ATOM     11  C   UNL     1       5.772   0.138   1.724  1.00  0.00     0.165 A 
ATOM     12  O   UNL     1       4.561   1.880   1.050  1.00  0.00    -0.454 OA
ATOM     13  O   UNL     1       4.652   0.259   2.532  1.00  0.00    -0.454 OA
ATOM     14  C   UNL     1       3.905   1.404   2.197  1.00  0.00     0.468 C 
ENDBRANCH   5   6
ENDBRANCH   1   5
TORSDOF 3
ENDMDL
