@<TRIPOS>MOLECULE
/home/cewinharhar/GITHUB/reincatalyze/data/processed/docking_pred/2023-May-24-1506_sub9_nm5_bs15_s42_ex16_mel10_mts10000_k50_ec02_g099_lra3e-4_lrc3e-3/d68da6ca94917019a71bc3feefe4e6b6d631e6ad_ligand_9.pdbqt
 14 15 0 0 0
SMALL
GASTEIGER

@<TRIPOS>ATOM
      1  C          5.6330    0.0600    1.9610 C.3     1  UNL1        0.0800
      2  C          4.7030    1.1720    1.6170 C.2     1  UNL1        0.1300
      3  C          4.9690    2.0880    0.4760 C.3     1  UNL1        0.0870
      4  O          3.6880    1.3640    2.2680 O.2     1  UNL1       -0.3000
      5  C          7.0270    0.3240    1.4280 C.3     1  UNL1        0.0430
      6  C          7.4160   -0.6610    0.4040 C.2     1  UNL1       -0.0440
      7  C          7.3080   -0.3800   -0.9630 C.2     1  UNL1        0.0080
      8  C          7.9010   -1.8900    0.7890 C.2     1  UNL1        0.0540
      9  C          7.6890   -1.3430   -1.8790 C.2     1  UNL1        0.0510
     10  C          8.2860   -2.8610   -0.1410 C.2     1  UNL1        0.1660
     11  C          8.1780   -2.5850   -1.4860 C.2     1  UNL1        0.1650
     12  O          8.7890   -4.1380   -0.0130 O.2     1  UNL1       -0.4540
     13  O          8.6240   -3.7100   -2.1630 O.2     1  UNL1       -0.4540
     14  C          9.1060   -4.6840   -1.2680 C.3     1  UNL1        0.4680
@<TRIPOS>BOND
     1    13    11    1
     2    13    14    1
     3     9    11    2
     4     9     7    1
     5    11    10    1
     6    14    12    1
     7     7     6    2
     8    10    12    1
     9    10     8    2
    10     6     8    1
    11     6     5    1
    12     3     2    1
    13     5     1    1
    14     2     1    1
    15     2     4    2
