@<TRIPOS>MOLECULE
/home/cewinharhar/GITHUB/reincatalyze/data/processed/docking_pred/2023-May-24-1506_sub9_nm5_bs15_s42_ex16_mel10_mts10000_k50_ec02_g099_lra3e-4_lrc3e-3/d68da6ca94917019a71bc3feefe4e6b6d631e6ad_ligand_9.pdbqt
 14 15 0 0 0
SMALL
GASTEIGER

@<TRIPOS>ATOM
      1  C          6.3690    1.2120    0.8950 C.3     1  UNL1        0.0800
      2  C          5.6690    0.3910    1.9210 C.2     1  UNL1        0.1300
      3  C          6.2900   -0.8290    2.5020 C.3     1  UNL1        0.0870
      4  O          4.5570    0.6990    2.3180 O.2     1  UNL1       -0.3000
      5  C          5.8600    0.9020   -0.4990 C.3     1  UNL1        0.0430
      6  C          6.8220    0.0870   -1.2640 C.2     1  UNL1       -0.0440
      7  C          7.5320    0.6170   -2.3470 C.2     1  UNL1        0.0080
      8  C          7.0360   -1.2260   -0.9110 C.2     1  UNL1        0.0540
      9  C          8.4220   -0.1950   -3.0270 C.2     1  UNL1        0.0510
     10  C          7.9370   -2.0420   -1.6010 C.2     1  UNL1        0.1660
     11  C          8.6360   -1.5220   -2.6680 C.2     1  UNL1        0.1650
     12  O          8.3200   -3.3570   -1.4480 O.2     1  UNL1       -0.4540
     13  O          9.4430   -2.5400   -3.1530 O.2     1  UNL1       -0.4540
     14  C          9.3410   -3.6930   -2.3530 C.3     1  UNL1        0.4680
@<TRIPOS>BOND
     1    13    11    1
     2    13    14    1
     3     9    11    2
     4     9     7    1
     5    11    10    1
     6    14    12    1
     7     7     6    2
     8    10    12    1
     9    10     8    2
    10     6     8    1
    11     6     5    1
    12     5     1    1
    13     1     2    1
    14     2     4    2
    15     2     3    1
