@<TRIPOS>MOLECULE
/home/cewinharhar/GITHUB/reincatalyze/data/processed/docking_pred/2023-May-24-1506_sub9_nm5_bs15_s42_ex16_mel10_mts10000_k50_ec02_g099_lra3e-4_lrc3e-3/d6fa7c89c21ca11aa73af88b15ecc664e93337c3_ligand_9.pdbqt
 14 15 0 0 0
SMALL
GASTEIGER

@<TRIPOS>ATOM
      1  C          5.3170   -0.0720    1.9650 C.3     1  UNL1        0.0800
      2  C          4.4380    1.1180    1.7870 C.2     1  UNL1        0.1300
      3  C          4.7210    2.1500    0.7540 C.3     1  UNL1        0.0870
      4  O          3.4530    1.2800    2.4890 O.2     1  UNL1       -0.3000
      5  C          6.7820    0.3130    1.9030 C.3     1  UNL1        0.0430
      6  C          7.3860   -0.0450    0.6070 C.2     1  UNL1       -0.0440
      7  C          7.8780    0.9320   -0.2670 C.2     1  UNL1        0.0080
      8  C          7.4760   -1.3680    0.2380 C.2     1  UNL1        0.0540
      9  C          8.4360    0.5370   -1.4690 C.2     1  UNL1        0.0510
     10  C          8.0410   -1.7620   -0.9790 C.2     1  UNL1        0.1660
     11  C          8.5240   -0.8010   -1.8400 C.2     1  UNL1        0.1650
     12  O          8.2430   -2.9930   -1.5660 O.2     1  UNL1       -0.4540
     13  O          9.0190   -1.4690   -2.9490 O.2     1  UNL1       -0.4540
     14  C          8.9430   -2.8650   -2.7770 C.3     1  UNL1        0.4680
@<TRIPOS>BOND
     1    13    14    1
     2    13    11    1
     3    14    12    1
     4    11     9    2
     5    11    10    1
     6    12    10    1
     7     9     7    1
     8    10     8    2
     9     7     6    2
    10     8     6    1
    11     6     5    1
    12     3     2    1
    13     2     1    1
    14     2     4    2
    15     5     1    1
