@<TRIPOS>MOLECULE
/home/cewinharhar/GITHUB/reincatalyze/data/processed/docking_pred/2023-May-24-1506_sub9_nm5_bs15_s42_ex16_mel10_mts10000_k50_ec02_g099_lra3e-4_lrc3e-3/d6fa7c89c21ca11aa73af88b15ecc664e93337c3_ligand_9.pdbqt
 14 15 0 0 0
SMALL
GASTEIGER

@<TRIPOS>ATOM
      1  C          5.3900   -0.0730    2.0180 C.3     1  UNL1        0.0800
      2  C          4.5460    1.1300    1.7740 C.2     1  UNL1        0.1300
      3  C          4.8940    2.1310    0.7300 C.3     1  UNL1        0.0870
      4  O          3.5360    1.3300    2.4310 O.2     1  UNL1       -0.3000
      5  C          6.8310    0.1770    1.6180 C.3     1  UNL1        0.0430
      6  C          7.2670   -0.7370    0.5470 C.2     1  UNL1       -0.0440
      7  C          7.1500   -0.3910   -0.8040 C.2     1  UNL1        0.0080
      8  C          7.8060   -1.9610    0.8720 C.2     1  UNL1        0.0540
      9  C          7.5770   -1.2890   -1.7660 C.2     1  UNL1        0.0510
     10  C          8.2370   -2.8650   -0.1040 C.2     1  UNL1        0.1660
     11  C          8.1210   -2.5260   -1.4340 C.2     1  UNL1        0.1650
     12  O          8.7970   -4.1230   -0.0380 O.2     1  UNL1       -0.4540
     13  O          8.6190   -3.5940   -2.1640 O.2     1  UNL1       -0.4540
     14  C          9.1410   -4.5900   -1.3170 C.3     1  UNL1        0.4680
@<TRIPOS>BOND
     1    13    11    1
     2    13    14    1
     3     9    11    2
     4     9     7    1
     5    11    10    1
     6    14    12    1
     7     7     6    2
     8    10    12    1
     9    10     8    2
    10     6     8    1
    11     6     5    1
    12     3     2    1
    13     5     1    1
    14     2     1    1
    15     2     4    2
