@<TRIPOS>MOLECULE
/home/cewinharhar/GITHUB/reincatalyze/data/processed/docking_pred/2023-May-24-1506_sub9_nm5_bs15_s42_ex16_mel10_mts10000_k50_ec02_g099_lra3e-4_lrc3e-3/d7d9c72b52c2e0a01b4806f6bcc2a503b8c9528b_ligand_9.pdbqt
 14 15 0 0 0
SMALL
GASTEIGER

@<TRIPOS>ATOM
      1  C          6.8820    0.8220    1.2300 C.3     1  UNL1        0.0800
      2  C          5.4330    1.1070    1.4260 C.2     1  UNL1        0.1300
      3  C          4.7280    2.1500    0.6330 C.3     1  UNL1        0.0870
      4  O          4.7780    0.4880    2.2490 O.2     1  UNL1       -0.3000
      5  C          7.2900    1.0120   -0.2170 C.3     1  UNL1        0.0430
      6  C          7.6830   -0.2620   -0.8450 C.2     1  UNL1       -0.0440
      7  C          7.8310   -0.3810   -2.2320 C.2     1  UNL1        0.0080
      8  C          7.9160   -1.3670   -0.0590 C.2     1  UNL1        0.0540
      9  C          8.2030   -1.6020   -2.7650 C.2     1  UNL1        0.0510
     10  C          8.2930   -2.5990   -0.6020 C.2     1  UNL1        0.1660
     11  C          8.4370   -2.7170   -1.9670 C.2     1  UNL1        0.1650
     12  O          8.5760   -3.8260   -0.0420 O.2     1  UNL1       -0.4540
     13  O          8.8110   -4.0280   -2.2180 O.2     1  UNL1       -0.4540
     14  C          8.9990   -4.7420   -1.0200 C.3     1  UNL1        0.4680
@<TRIPOS>BOND
     1     9     7    1
     2     9    11    2
     3     7     6    2
     4    13    11    1
     5    13    14    1
     6    11    10    1
     7    14    12    1
     8     6     5    1
     9     6     8    1
    10    10     8    2
    11    10    12    1
    12     5     1    1
    13     3     2    1
    14     1     2    1
    15     2     4    2
