@<TRIPOS>MOLECULE
/home/cewinharhar/GITHUB/reincatalyze/data/processed/docking_pred/2023-May-24-1506_sub9_nm5_bs15_s42_ex16_mel10_mts10000_k50_ec02_g099_lra3e-4_lrc3e-3/d7d9c72b52c2e0a01b4806f6bcc2a503b8c9528b_ligand_9.pdbqt
 14 15 0 0 0
SMALL
GASTEIGER

@<TRIPOS>ATOM
      1  C          5.5580    1.8930    1.2990 C.3     1  UNL1        0.0800
      2  C          5.1070    0.6730    2.0240 C.2     1  UNL1        0.1300
      3  C          5.9950   -0.5090    2.1930 C.3     1  UNL1        0.0870
      4  O          3.9870    0.6070    2.5040 O.2     1  UNL1       -0.3000
      5  C          5.4240    1.7230   -0.2010 C.3     1  UNL1        0.0430
      6  C          6.5870    1.0250   -0.7770 C.2     1  UNL1       -0.0440
      7  C          7.8950    1.4670   -0.5480 C.2     1  UNL1        0.0080
      8  C          6.3940   -0.0910   -1.5590 C.2     1  UNL1        0.0540
      9  C          8.9480    0.7710   -1.1150 C.2     1  UNL1        0.0510
     10  C          7.4620   -0.7920   -2.1290 C.2     1  UNL1        0.1660
     11  C          8.7490   -0.3560   -1.9050 C.2     1  UNL1        0.1650
     12  O          7.5300   -1.9110   -2.9310 O.2     1  UNL1       -0.4540
     13  O          9.5900   -1.2270   -2.5810 O.2     1  UNL1       -0.4540
     14  C          8.8640   -2.2800   -3.1700 C.3     1  UNL1        0.4680
@<TRIPOS>BOND
     1    14    12    1
     2    14    13    1
     3    12    10    1
     4    13    11    1
     5    10    11    2
     6    10     8    1
     7    11     9    1
     8     8     6    2
     9     9     7    2
    10     6     7    1
    11     6     5    1
    12     5     1    1
    13     1     2    1
    14     2     3    1
    15     2     4    2
