MODEL 1
REMARK VINA RESULT:      -7.6      0.000      0.000
REMARK SMILES CC(=O)CCc1ccc2c(c1)OCO2
REMARK SMILES IDX 4 1 2 2 1 3 3 4 5 5 6 6 7 7 11 8 8 9 10 10 9 11 12 12 14 13
REMARK SMILES IDX 13 14
REMARK H PARENT
REMARK Flexibility Score: inf
ROOT
ATOM      1  C   UNL     1       5.558   1.893   1.299  1.00  0.00     0.080 C 
ENDROOT
BRANCH   1   2
ATOM      2  C   UNL     1       5.107   0.673   2.024  1.00  0.00     0.130 C 
ATOM      3  C   UNL     1       5.995  -0.509   2.193  1.00  0.00     0.087 C 
ATOM      4  O   UNL     1       3.987   0.607   2.504  1.00  0.00    -0.300 OA
ENDBRANCH   1   2
BRANCH   1   5
ATOM      5  C   UNL     1       5.424   1.723  -0.201  1.00  0.00     0.043 C 
BRANCH   5   6
ATOM      6  C   UNL     1       6.587   1.025  -0.777  1.00  0.00    -0.044 A 
ATOM      7  C   UNL     1       7.895   1.467  -0.548  1.00  0.00     0.008 A 
ATOM      8  C   UNL     1       6.394  -0.091  -1.559  1.00  0.00     0.054 A 
ATOM      9  C   UNL     1       8.948   0.771  -1.115  1.00  0.00     0.051 A 
ATOM     10  C   UNL     1       7.462  -0.792  -2.129  1.00  0.00     0.166 A 
ATOM     11  C   UNL     1       8.749  -0.356  -1.905  1.00  0.00     0.165 A 
ATOM     12  O   UNL     1       7.530  -1.911  -2.931  1.00  0.00    -0.454 OA
ATOM     13  O   UNL     1       9.590  -1.227  -2.581  1.00  0.00    -0.454 OA
ATOM     14  C   UNL     1       8.864  -2.280  -3.170  1.00  0.00     0.468 C 
ENDBRANCH   5   6
ENDBRANCH   1   5
TORSDOF 3
ENDMDL
MODEL 2
REMARK VINA RESULT:      -7.4      1.930      2.396
REMARK SMILES CC(=O)CCc1ccc2c(c1)OCO2
REMARK SMILES IDX 4 1 2 2 1 3 3 4 5 5 6 6 7 7 11 8 8 9 10 10 9 11 12 12 14 13
REMARK SMILES IDX 13 14
REMARK H PARENT
REMARK Flexibility Score: inf
ROOT
ATOM      1  C   UNL     1       5.775   1.370  -0.279  1.00  0.00     0.080 C 
ENDROOT
BRANCH   1   2
ATOM      2  C   UNL     1       5.177   1.266   1.082  1.00  0.00     0.130 C 
ATOM      3  C   UNL     1       5.428   0.091   1.958  1.00  0.00     0.087 C 
ATOM      4  O   UNL     1       4.457   2.150   1.518  1.00  0.00    -0.300 OA
ENDBRANCH   1   2
BRANCH   1   5
ATOM      5  C   UNL     1       7.270   1.120  -0.243  1.00  0.00     0.043 C 
BRANCH   5   6
ATOM      6  C   UNL     1       7.621  -0.179  -0.844  1.00  0.00    -0.044 A 
ATOM      7  C   UNL     1       7.650  -0.361  -2.231  1.00  0.00     0.008 A 
ATOM      8  C   UNL     1       7.933  -1.245  -0.031  1.00  0.00     0.054 A 
ATOM      9  C   UNL     1       7.988  -1.602  -2.738  1.00  0.00     0.051 A 
ATOM     10  C   UNL     1       8.275  -2.498  -0.548  1.00  0.00     0.166 A 
ATOM     11  C   UNL     1       8.302  -2.678  -1.913  1.00  0.00     0.165 A 
ATOM     12  O   UNL     1       8.620  -3.696   0.041  1.00  0.00    -0.454 OA
ATOM     13  O   UNL     1       8.668  -3.996  -2.136  1.00  0.00    -0.454 OA
ATOM     14  C   UNL     1       8.966  -4.652  -0.927  1.00  0.00     0.468 C 
ENDBRANCH   5   6
ENDBRANCH   1   5
TORSDOF 3
ENDMDL
MODEL 3
REMARK VINA RESULT:      -7.2      2.086      2.616
REMARK SMILES CC(=O)CCc1ccc2c(c1)OCO2
REMARK SMILES IDX 4 1 2 2 1 3 3 4 5 5 6 6 7 7 11 8 8 9 10 10 9 11 12 12 14 13
REMARK SMILES IDX 13 14
REMARK H PARENT
REMARK Flexibility Score: inf
ROOT
ATOM      1  C   UNL     1       5.594   0.040   1.943  1.00  0.00     0.080 C 
ENDROOT
BRANCH   1   2
ATOM      2  C   UNL     1       4.685   1.176   1.626  1.00  0.00     0.130 C 
ATOM      3  C   UNL     1       4.964   2.109   0.502  1.00  0.00     0.087 C 
ATOM      4  O   UNL     1       3.678   1.376   2.286  1.00  0.00    -0.300 OA
ENDBRANCH   1   2
BRANCH   1   5
ATOM      5  C   UNL     1       6.998   0.300   1.435  1.00  0.00     0.043 C 
BRANCH   5   6
ATOM      6  C   UNL     1       7.398  -0.678   0.408  1.00  0.00    -0.044 A 
ATOM      7  C   UNL     1       7.297  -0.388  -0.958  1.00  0.00     0.008 A 
ATOM      8  C   UNL     1       7.886  -1.907   0.788  1.00  0.00     0.054 A 
ATOM      9  C   UNL     1       7.688  -1.345  -1.877  1.00  0.00     0.051 A 
ATOM     10  C   UNL     1       8.281  -2.870  -0.145  1.00  0.00     0.166 A 
ATOM     11  C   UNL     1       8.181  -2.587  -1.489  1.00  0.00     0.165 A 
ATOM     12  O   UNL     1       8.789  -4.146  -0.021  1.00  0.00    -0.454 OA
ATOM     13  O   UNL     1       8.635  -3.705  -2.169  1.00  0.00    -0.454 OA
ATOM     14  C   UNL     1       9.115  -4.683  -1.277  1.00  0.00     0.468 C 
ENDBRANCH   5   6
ENDBRANCH   1   5
TORSDOF 3
ENDMDL
MODEL 4
REMARK VINA RESULT:      -7.1      1.257      1.473
REMARK SMILES CC(=O)CCc1ccc2c(c1)OCO2
REMARK SMILES IDX 4 1 2 2 1 3 3 4 5 5 6 6 7 7 11 8 8 9 10 10 9 11 12 12 14 13
REMARK SMILES IDX 13 14
REMARK H PARENT
REMARK Flexibility Score: inf
ROOT
ATOM      1  C   UNL     1       6.392   1.169   0.963  1.00  0.00     0.080 C 
ENDROOT
BRANCH   1   2
ATOM      2  C   UNL     1       5.645   0.343   1.952  1.00  0.00     0.130 C 
ATOM      3  C   UNL     1       6.234  -0.886   2.547  1.00  0.00     0.087 C 
ATOM      4  O   UNL     1       4.518   0.654   2.304  1.00  0.00    -0.300 OA
ENDBRANCH   1   2
BRANCH   1   5
ATOM      5  C   UNL     1       5.893   0.926  -0.447  1.00  0.00     0.043 C 
BRANCH   5   6
ATOM      6  C   UNL     1       6.830   0.093  -1.223  1.00  0.00    -0.044 A 
ATOM      7  C   UNL     1       7.494   0.592  -2.349  1.00  0.00     0.008 A 
ATOM      8  C   UNL     1       7.066  -1.207  -0.838  1.00  0.00     0.054 A 
ATOM      9  C   UNL     1       8.363  -0.235  -3.037  1.00  0.00     0.051 A 
ATOM     10  C   UNL     1       7.946  -2.039  -1.536  1.00  0.00     0.166 A 
ATOM     11  C   UNL     1       8.599  -1.549  -2.645  1.00  0.00     0.165 A 
ATOM     12  O   UNL     1       8.344  -3.347  -1.358  1.00  0.00    -0.454 OA
ATOM     13  O   UNL     1       9.394  -2.577  -3.129  1.00  0.00    -0.454 OA
ATOM     14  C   UNL     1       9.331  -3.706  -2.290  1.00  0.00     0.468 C 
ENDBRANCH   5   6
ENDBRANCH   1   5
TORSDOF 3
ENDMDL
MODEL 5
REMARK VINA RESULT:      -7.0      1.943      2.506
REMARK SMILES CC(=O)CCc1ccc2c(c1)OCO2
REMARK SMILES IDX 4 1 2 2 1 3 3 4 5 5 6 6 7 7 11 8 8 9 10 10 9 11 12 12 14 13
REMARK SMILES IDX 13 14
REMARK H PARENT
REMARK Flexibility Score: inf
ROOT
ATOM      1  C   UNL     1       6.882   0.822   1.230  1.00  0.00     0.080 C 
ENDROOT
BRANCH   1   2
ATOM      2  C   UNL     1       5.433   1.107   1.426  1.00  0.00     0.130 C 
ATOM      3  C   UNL     1       4.728   2.150   0.633  1.00  0.00     0.087 C 
ATOM      4  O   UNL     1       4.778   0.488   2.249  1.00  0.00    -0.300 OA
ENDBRANCH   1   2
BRANCH   1   5
ATOM      5  C   UNL     1       7.290   1.012  -0.217  1.00  0.00     0.043 C 
BRANCH   5   6
ATOM      6  C   UNL     1       7.683  -0.262  -0.845  1.00  0.00    -0.044 A 
ATOM      7  C   UNL     1       7.831  -0.381  -2.232  1.00  0.00     0.008 A 
ATOM      8  C   UNL     1       7.916  -1.367  -0.059  1.00  0.00     0.054 A 
ATOM      9  C   UNL     1       8.203  -1.602  -2.765  1.00  0.00     0.051 A 
ATOM     10  C   UNL     1       8.293  -2.599  -0.602  1.00  0.00     0.166 A 
ATOM     11  C   UNL     1       8.437  -2.717  -1.967  1.00  0.00     0.165 A 
ATOM     12  O   UNL     1       8.576  -3.826  -0.042  1.00  0.00    -0.454 OA
ATOM     13  O   UNL     1       8.811  -4.028  -2.218  1.00  0.00    -0.454 OA
ATOM     14  C   UNL     1       8.999  -4.742  -1.020  1.00  0.00     0.468 C 
ENDBRANCH   5   6
ENDBRANCH   1   5
TORSDOF 3
ENDMDL
