@<TRIPOS>MOLECULE
/home/cewinharhar/GITHUB/reincatalyze/data/processed/docking_pred/2023-May-24-1506_sub9_nm5_bs15_s42_ex16_mel10_mts10000_k50_ec02_g099_lra3e-4_lrc3e-3/d98db6e7330c4682e6208573911aa9edae27e8f4_ligand_9.pdbqt
 14 15 0 0 0
SMALL
GASTEIGER

@<TRIPOS>ATOM
      1  C          5.5430    1.9050    1.2850 C.3     1  UNL1        0.0800
      2  C          5.1240    0.6820    2.0260 C.2     1  UNL1        0.1300
      3  C          6.0340   -0.4830    2.1870 C.3     1  UNL1        0.0870
      4  O          4.0130    0.6010    2.5240 O.2     1  UNL1       -0.3000
      5  C          5.4070    1.7150   -0.2120 C.3     1  UNL1        0.0430
      6  C          6.5730    1.0170   -0.7830 C.2     1  UNL1       -0.0440
      7  C          7.8810    1.4540   -0.5380 C.2     1  UNL1        0.0080
      8  C          6.3840   -0.0930   -1.5740 C.2     1  UNL1        0.0540
      9  C          8.9360    0.7590   -1.1000 C.2     1  UNL1        0.0510
     10  C          7.4550   -0.7930   -2.1390 C.2     1  UNL1        0.1660
     11  C          8.7410   -0.3630   -1.9000 C.2     1  UNL1        0.1650
     12  O          7.5270   -1.9060   -2.9480 O.2     1  UNL1       -0.4540
     13  O          9.5860   -1.2310   -2.5730 O.2     1  UNL1       -0.4540
     14  C          8.8620   -2.2780   -3.1770 C.3     1  UNL1        0.4680
@<TRIPOS>BOND
     1    14    12    1
     2    14    13    1
     3    12    10    1
     4    13    11    1
     5    10    11    2
     6    10     8    1
     7    11     9    1
     8     8     6    2
     9     9     7    2
    10     6     7    1
    11     6     5    1
    12     5     1    1
    13     1     2    1
    14     2     3    1
    15     2     4    2
