@<TRIPOS>MOLECULE
/home/cewinharhar/GITHUB/reincatalyze/data/processed/docking_pred/2023-May-24-1506_sub9_nm5_bs15_s42_ex16_mel10_mts10000_k50_ec02_g099_lra3e-4_lrc3e-3/d98db6e7330c4682e6208573911aa9edae27e8f4_ligand_9.pdbqt
 14 15 0 0 0
SMALL
GASTEIGER

@<TRIPOS>ATOM
      1  C          5.3840   -0.0170    2.0660 C.3     1  UNL1        0.0800
      2  C          4.4630    1.1300    1.8270 C.2     1  UNL1        0.1300
      3  C          4.7420    2.1500    0.7810 C.3     1  UNL1        0.0870
      4  O          3.4470    1.2650    2.4890 O.2     1  UNL1       -0.3000
      5  C          6.7880    0.2960    1.5860 C.3     1  UNL1        0.0430
      6  C          7.1550   -0.5120    0.4100 C.2     1  UNL1       -0.0440
      7  C          6.9130   -0.0630   -0.8930 C.2     1  UNL1        0.0080
      8  C          7.7540   -1.7390    0.5850 C.2     1  UNL1        0.0540
      9  C          7.2810   -0.8640   -1.9590 C.2     1  UNL1        0.0510
     10  C          8.1240   -2.5450   -0.4960 C.2     1  UNL1        0.1660
     11  C          7.8850   -2.1040   -1.7780 C.2     1  UNL1        0.1650
     12  O          8.7230   -3.7840   -0.5830 O.2     1  UNL1       -0.4540
     13  O          8.3480   -3.0910   -2.6350 O.2     1  UNL1       -0.4540
     14  C          8.9690   -4.1330   -1.9210 C.3     1  UNL1        0.4680
@<TRIPOS>BOND
     1    13    14    1
     2    13    11    1
     3     9    11    2
     4     9     7    1
     5    14    12    1
     6    11    10    1
     7     7     6    2
     8    12    10    1
     9    10     8    2
    10     6     8    1
    11     6     5    1
    12     3     2    1
    13     5     1    1
    14     2     1    1
    15     2     4    2
