MODEL 1
REMARK VINA RESULT:      -7.7      0.000      0.000
REMARK SMILES CC(=O)CCc1ccc2c(c1)OCO2
REMARK SMILES IDX 4 1 2 2 1 3 3 4 5 5 6 6 7 7 11 8 8 9 10 10 9 11 12 12 14 13
REMARK SMILES IDX 13 14
REMARK H PARENT
REMARK Flexibility Score: inf
ROOT
ATOM      1  C   UNL     1       5.543   1.905   1.285  1.00  0.00     0.080 C 
ENDROOT
BRANCH   1   2
ATOM      2  C   UNL     1       5.124   0.682   2.026  1.00  0.00     0.130 C 
ATOM      3  C   UNL     1       6.034  -0.483   2.187  1.00  0.00     0.087 C 
ATOM      4  O   UNL     1       4.013   0.601   2.524  1.00  0.00    -0.300 OA
ENDBRANCH   1   2
BRANCH   1   5
ATOM      5  C   UNL     1       5.407   1.715  -0.212  1.00  0.00     0.043 C 
BRANCH   5   6
ATOM      6  C   UNL     1       6.573   1.017  -0.783  1.00  0.00    -0.044 A 
ATOM      7  C   UNL     1       7.881   1.454  -0.538  1.00  0.00     0.008 A 
ATOM      8  C   UNL     1       6.384  -0.093  -1.574  1.00  0.00     0.054 A 
ATOM      9  C   UNL     1       8.936   0.759  -1.100  1.00  0.00     0.051 A 
ATOM     10  C   UNL     1       7.455  -0.793  -2.139  1.00  0.00     0.166 A 
ATOM     11  C   UNL     1       8.741  -0.363  -1.900  1.00  0.00     0.165 A 
ATOM     12  O   UNL     1       7.527  -1.906  -2.948  1.00  0.00    -0.454 OA
ATOM     13  O   UNL     1       9.586  -1.231  -2.573  1.00  0.00    -0.454 OA
ATOM     14  C   UNL     1       8.862  -2.278  -3.177  1.00  0.00     0.468 C 
ENDBRANCH   5   6
ENDBRANCH   1   5
TORSDOF 3
ENDMDL
MODEL 2
REMARK VINA RESULT:      -7.2      1.256      1.479
REMARK SMILES CC(=O)CCc1ccc2c(c1)OCO2
REMARK SMILES IDX 4 1 2 2 1 3 3 4 5 5 6 6 7 7 11 8 8 9 10 10 9 11 12 12 14 13
REMARK SMILES IDX 13 14
REMARK H PARENT
REMARK Flexibility Score: inf
ROOT
ATOM      1  C   UNL     1       6.400   1.180   0.919  1.00  0.00     0.080 C 
ENDROOT
BRANCH   1   2
ATOM      2  C   UNL     1       5.677   0.363   1.933  1.00  0.00     0.130 C 
ATOM      3  C   UNL     1       6.279  -0.864   2.519  1.00  0.00     0.087 C 
ATOM      4  O   UNL     1       4.562   0.680   2.314  1.00  0.00    -0.300 OA
ENDBRANCH   1   2
BRANCH   1   5
ATOM      5  C   UNL     1       5.892   0.896  -0.481  1.00  0.00     0.043 C 
BRANCH   5   6
ATOM      6  C   UNL     1       6.841   0.071  -1.250  1.00  0.00    -0.044 A 
ATOM      7  C   UNL     1       7.537   0.586  -2.350  1.00  0.00     0.008 A 
ATOM      8  C   UNL     1       7.058  -1.238  -0.884  1.00  0.00     0.054 A 
ATOM      9  C   UNL     1       8.415  -0.236  -3.032  1.00  0.00     0.051 A 
ATOM     10  C   UNL     1       7.948  -2.064  -1.577  1.00  0.00     0.166 A 
ATOM     11  C   UNL     1       8.632  -1.559  -2.661  1.00  0.00     0.165 A 
ATOM     12  O   UNL     1       8.330  -3.379  -1.415  1.00  0.00    -0.454 OA
ATOM     13  O   UNL     1       9.429  -2.584  -3.145  1.00  0.00    -0.454 OA
ATOM     14  C   UNL     1       9.338  -3.728  -2.330  1.00  0.00     0.468 C 
ENDBRANCH   5   6
ENDBRANCH   1   5
TORSDOF 3
ENDMDL
MODEL 3
REMARK VINA RESULT:      -7.0      1.743      2.344
REMARK SMILES CC(=O)CCc1ccc2c(c1)OCO2
REMARK SMILES IDX 4 1 2 2 1 3 3 4 5 5 6 6 7 7 11 8 8 9 10 10 9 11 12 12 14 13
REMARK SMILES IDX 13 14
REMARK H PARENT
REMARK Flexibility Score: inf
ROOT
ATOM      1  C   UNL     1       5.384  -0.017   2.066  1.00  0.00     0.080 C 
ENDROOT
BRANCH   1   2
ATOM      2  C   UNL     1       4.463   1.130   1.827  1.00  0.00     0.130 C 
ATOM      3  C   UNL     1       4.742   2.150   0.781  1.00  0.00     0.087 C 
ATOM      4  O   UNL     1       3.447   1.265   2.489  1.00  0.00    -0.300 OA
ENDBRANCH   1   2
BRANCH   1   5
ATOM      5  C   UNL     1       6.788   0.296   1.586  1.00  0.00     0.043 C 
BRANCH   5   6
ATOM      6  C   UNL     1       7.155  -0.512   0.410  1.00  0.00    -0.044 A 
ATOM      7  C   UNL     1       6.913  -0.063  -0.893  1.00  0.00     0.008 A 
ATOM      8  C   UNL     1       7.754  -1.739   0.585  1.00  0.00     0.054 A 
ATOM      9  C   UNL     1       7.281  -0.864  -1.959  1.00  0.00     0.051 A 
ATOM     10  C   UNL     1       8.124  -2.545  -0.496  1.00  0.00     0.166 A 
ATOM     11  C   UNL     1       7.885  -2.104  -1.778  1.00  0.00     0.165 A 
ATOM     12  O   UNL     1       8.723  -3.784  -0.583  1.00  0.00    -0.454 OA
ATOM     13  O   UNL     1       8.348  -3.091  -2.635  1.00  0.00    -0.454 OA
ATOM     14  C   UNL     1       8.969  -4.133  -1.921  1.00  0.00     0.468 C 
ENDBRANCH   5   6
ENDBRANCH   1   5
TORSDOF 3
ENDMDL
MODEL 4
REMARK VINA RESULT:      -7.0      1.613      1.981
REMARK SMILES CC(=O)CCc1ccc2c(c1)OCO2
REMARK SMILES IDX 4 1 2 2 1 3 3 4 5 5 6 6 7 7 11 8 8 9 10 10 9 11 12 12 14 13
REMARK SMILES IDX 13 14
REMARK H PARENT
REMARK Flexibility Score: inf
ROOT
ATOM      1  C   UNL     1       5.494   1.695   0.080  1.00  0.00     0.080 C 
ENDROOT
BRANCH   1   2
ATOM      2  C   UNL     1       4.869   1.249   1.357  1.00  0.00     0.130 C 
ATOM      3  C   UNL     1       5.381   0.072   2.108  1.00  0.00     0.087 C 
ATOM      4  O   UNL     1       3.911   1.842   1.826  1.00  0.00    -0.300 OA
ENDBRANCH   1   2
BRANCH   1   5
ATOM      5  C   UNL     1       6.988   1.435   0.079  1.00  0.00     0.043 C 
BRANCH   5   6
ATOM      6  C   UNL     1       7.334   0.238  -0.707  1.00  0.00    -0.044 A 
ATOM      7  C   UNL     1       7.250   0.229  -2.104  1.00  0.00     0.008 A 
ATOM      8  C   UNL     1       7.753  -0.903  -0.063  1.00  0.00     0.054 A 
ATOM      9  C   UNL     1       7.589  -0.923  -2.790  1.00  0.00     0.051 A 
ATOM     10  C   UNL     1       8.095  -2.066  -0.760  1.00  0.00     0.166 A 
ATOM     11  C   UNL     1       8.012  -2.076  -2.135  1.00  0.00     0.165 A 
ATOM     12  O   UNL     1       8.533  -3.310  -0.357  1.00  0.00    -0.454 OA
ATOM     13  O   UNL     1       8.405  -3.338  -2.551  1.00  0.00    -0.454 OA
ATOM     14  C   UNL     1       8.830  -4.123  -1.462  1.00  0.00     0.468 C 
ENDBRANCH   5   6
ENDBRANCH   1   5
TORSDOF 3
ENDMDL
MODEL 5
REMARK VINA RESULT:      -6.8      1.181      5.167
REMARK SMILES CC(=O)CCc1ccc2c(c1)OCO2
REMARK SMILES IDX 4 1 2 2 1 3 3 4 5 5 6 6 7 7 11 8 8 9 10 10 9 11 12 12 14 13
REMARK SMILES IDX 13 14
REMARK H PARENT
REMARK Flexibility Score: inf
ROOT
ATOM      1  C   UNL     1       8.328   0.233  -2.606  1.00  0.00     0.080 C 
ENDROOT
BRANCH   1   2
ATOM      2  C   UNL     1       8.010  -1.218  -2.711  1.00  0.00     0.130 C 
ATOM      3  C   UNL     1       9.062  -2.229  -3.004  1.00  0.00     0.087 C 
ATOM      4  O   UNL     1       6.869  -1.622  -2.558  1.00  0.00    -0.300 OA
ENDBRANCH   1   2
BRANCH   1   5
ATOM      5  C   UNL     1       8.847   0.585  -1.227  1.00  0.00     0.043 C 
BRANCH   5   6
ATOM      6  C   UNL     1       7.802   0.446  -0.197  1.00  0.00    -0.044 A 
ATOM      7  C   UNL     1       7.899  -0.509   0.822  1.00  0.00     0.008 A 
ATOM      8  C   UNL     1       6.700   1.270  -0.228  1.00  0.00     0.054 A 
ATOM      9  C   UNL     1       6.888  -0.593   1.761  1.00  0.00     0.051 A 
ATOM     10  C   UNL     1       5.681   1.181   0.725  1.00  0.00     0.166 A 
ATOM     11  C   UNL     1       5.775   0.242   1.727  1.00  0.00     0.165 A 
ATOM     12  O   UNL     1       4.503   1.874   0.908  1.00  0.00    -0.454 OA
ATOM     13  O   UNL     1       4.642   0.379   2.514  1.00  0.00    -0.454 OA
ATOM     14  C   UNL     1       3.853   1.463   2.083  1.00  0.00     0.468 C 
ENDBRANCH   5   6
ENDBRANCH   1   5
TORSDOF 3
ENDMDL
