@<TRIPOS>MOLECULE
/home/cewinharhar/GITHUB/reincatalyze/data/processed/docking_pred/2023-May-24-1506_sub9_nm5_bs15_s42_ex16_mel10_mts10000_k50_ec02_g099_lra3e-4_lrc3e-3/d98db6e7330c4682e6208573911aa9edae27e8f4_ligand_9.pdbqt
 14 15 0 0 0
SMALL
GASTEIGER

@<TRIPOS>ATOM
      1  C          5.4940    1.6950    0.0800 C.3     1  UNL1        0.0800
      2  C          4.8690    1.2490    1.3570 C.2     1  UNL1        0.1300
      3  C          5.3810    0.0720    2.1080 C.3     1  UNL1        0.0870
      4  O          3.9110    1.8420    1.8260 O.2     1  UNL1       -0.3000
      5  C          6.9880    1.4350    0.0790 C.3     1  UNL1        0.0430
      6  C          7.3340    0.2380   -0.7070 C.2     1  UNL1       -0.0440
      7  C          7.2500    0.2290   -2.1040 C.2     1  UNL1        0.0080
      8  C          7.7530   -0.9030   -0.0630 C.2     1  UNL1        0.0540
      9  C          7.5890   -0.9230   -2.7900 C.2     1  UNL1        0.0510
     10  C          8.0950   -2.0660   -0.7600 C.2     1  UNL1        0.1660
     11  C          8.0120   -2.0760   -2.1350 C.2     1  UNL1        0.1650
     12  O          8.5330   -3.3100   -0.3570 O.2     1  UNL1       -0.4540
     13  O          8.4050   -3.3380   -2.5510 O.2     1  UNL1       -0.4540
     14  C          8.8300   -4.1230   -1.4620 C.3     1  UNL1        0.4680
@<TRIPOS>BOND
     1     9    11    2
     2     9     7    1
     3    13    11    1
     4    13    14    1
     5    11    10    1
     6     7     6    2
     7    14    12    1
     8    10    12    1
     9    10     8    2
    10     6     8    1
    11     6     5    1
    12     5     1    1
    13     1     2    1
    14     2     4    2
    15     2     3    1
