@<TRIPOS>MOLECULE
/home/cewinharhar/GITHUB/reincatalyze/data/processed/docking_pred/2023-May-24-1506_sub9_nm5_bs15_s42_ex16_mel10_mts10000_k50_ec02_g099_lra3e-4_lrc3e-3/da55d276f49f8aea3f2b333b6115ea57fe53d1b0_ligand_9.pdbqt
 14 15 0 0 0
SMALL
GASTEIGER

@<TRIPOS>ATOM
      1  C          5.5330    1.9130    1.2730 C.3     1  UNL1        0.0800
      2  C          5.0760    0.6990    2.0060 C.2     1  UNL1        0.1300
      3  C          5.9500   -0.4950    2.1610 C.3     1  UNL1        0.0870
      4  O          3.9620    0.6490    2.5030 O.2     1  UNL1       -0.3000
      5  C          5.4060    1.7300   -0.2260 C.3     1  UNL1        0.0430
      6  C          6.5720    1.0300   -0.7930 C.2     1  UNL1       -0.0440
      7  C          7.8790    1.4670   -0.5470 C.2     1  UNL1        0.0080
      8  C          6.3840   -0.0820   -1.5810 C.2     1  UNL1        0.0540
      9  C          8.9350    0.7690   -1.1050 C.2     1  UNL1        0.0510
     10  C          7.4550   -0.7850   -2.1420 C.2     1  UNL1        0.1660
     11  C          8.7410   -0.3550   -1.9020 C.2     1  UNL1        0.1650
     12  O          7.5280   -1.9010   -2.9470 O.2     1  UNL1       -0.4540
     13  O          9.5860   -1.2260   -2.5710 O.2     1  UNL1       -0.4540
     14  C          8.8630   -2.2740   -3.1730 C.3     1  UNL1        0.4680
@<TRIPOS>BOND
     1    14    12    1
     2    14    13    1
     3    12    10    1
     4    13    11    1
     5    10    11    2
     6    10     8    1
     7    11     9    1
     8     8     6    2
     9     9     7    2
    10     6     7    1
    11     6     5    1
    12     5     1    1
    13     1     2    1
    14     2     3    1
    15     2     4    2
