MODEL 1
REMARK VINA RESULT:      -7.7      0.000      0.000
REMARK SMILES CC(=O)CCc1ccc2c(c1)OCO2
REMARK SMILES IDX 4 1 2 2 1 3 3 4 5 5 6 6 7 7 11 8 8 9 10 10 9 11 12 12 14 13
REMARK SMILES IDX 13 14
REMARK H PARENT
REMARK Flexibility Score: inf
ROOT
ATOM      1  C   UNL     1       5.533   1.913   1.273  1.00  0.00     0.080 C 
ENDROOT
BRANCH   1   2
ATOM      2  C   UNL     1       5.076   0.699   2.006  1.00  0.00     0.130 C 
ATOM      3  C   UNL     1       5.950  -0.495   2.161  1.00  0.00     0.087 C 
ATOM      4  O   UNL     1       3.962   0.649   2.503  1.00  0.00    -0.300 OA
ENDBRANCH   1   2
BRANCH   1   5
ATOM      5  C   UNL     1       5.406   1.730  -0.226  1.00  0.00     0.043 C 
BRANCH   5   6
ATOM      6  C   UNL     1       6.572   1.030  -0.793  1.00  0.00    -0.044 A 
ATOM      7  C   UNL     1       7.879   1.467  -0.547  1.00  0.00     0.008 A 
ATOM      8  C   UNL     1       6.384  -0.082  -1.581  1.00  0.00     0.054 A 
ATOM      9  C   UNL     1       8.935   0.769  -1.105  1.00  0.00     0.051 A 
ATOM     10  C   UNL     1       7.455  -0.785  -2.142  1.00  0.00     0.166 A 
ATOM     11  C   UNL     1       8.741  -0.355  -1.902  1.00  0.00     0.165 A 
ATOM     12  O   UNL     1       7.528  -1.901  -2.947  1.00  0.00    -0.454 OA
ATOM     13  O   UNL     1       9.586  -1.226  -2.571  1.00  0.00    -0.454 OA
ATOM     14  C   UNL     1       8.863  -2.274  -3.173  1.00  0.00     0.468 C 
ENDBRANCH   5   6
ENDBRANCH   1   5
TORSDOF 3
ENDMDL
MODEL 2
REMARK VINA RESULT:      -7.5      1.920      2.378
REMARK SMILES CC(=O)CCc1ccc2c(c1)OCO2
REMARK SMILES IDX 4 1 2 2 1 3 3 4 5 5 6 6 7 7 11 8 8 9 10 10 9 11 12 12 14 13
REMARK SMILES IDX 13 14
REMARK H PARENT
REMARK Flexibility Score: inf
ROOT
ATOM      1  C   UNL     1       5.736   1.360  -0.307  1.00  0.00     0.080 C 
ENDROOT
BRANCH   1   2
ATOM      2  C   UNL     1       5.120   1.295   1.048  1.00  0.00     0.130 C 
ATOM      3  C   UNL     1       5.436   0.194   1.997  1.00  0.00     0.087 C 
ATOM      4  O   UNL     1       4.333   2.150   1.421  1.00  0.00    -0.300 OA
ENDBRANCH   1   2
BRANCH   1   5
ATOM      5  C   UNL     1       7.231   1.121  -0.244  1.00  0.00     0.043 C 
BRANCH   5   6
ATOM      6  C   UNL     1       7.606  -0.167  -0.853  1.00  0.00    -0.044 A 
ATOM      7  C   UNL     1       7.683  -0.327  -2.241  1.00  0.00     0.008 A 
ATOM      8  C   UNL     1       7.890  -1.246  -0.046  1.00  0.00     0.054 A 
ATOM      9  C   UNL     1       8.041  -1.560  -2.756  1.00  0.00     0.051 A 
ATOM     10  C   UNL     1       8.251  -2.490  -0.572  1.00  0.00     0.166 A 
ATOM     11  C   UNL     1       8.327  -2.649  -1.938  1.00  0.00     0.165 A 
ATOM     12  O   UNL     1       8.576  -3.697   0.010  1.00  0.00    -0.454 OA
ATOM     13  O   UNL     1       8.701  -3.963  -2.169  1.00  0.00    -0.454 OA
ATOM     14  C   UNL     1       8.958  -4.638  -0.960  1.00  0.00     0.468 C 
ENDBRANCH   5   6
ENDBRANCH   1   5
TORSDOF 3
ENDMDL
MODEL 3
REMARK VINA RESULT:      -7.2      2.093      2.634
REMARK SMILES CC(=O)CCc1ccc2c(c1)OCO2
REMARK SMILES IDX 4 1 2 2 1 3 3 4 5 5 6 6 7 7 11 8 8 9 10 10 9 11 12 12 14 13
REMARK SMILES IDX 13 14
REMARK H PARENT
REMARK Flexibility Score: inf
ROOT
ATOM      1  C   UNL     1       5.584   0.007   1.961  1.00  0.00     0.080 C 
ENDROOT
BRANCH   1   2
ATOM      2  C   UNL     1       4.681   1.148   1.643  1.00  0.00     0.130 C 
ATOM      3  C   UNL     1       4.986   2.102   0.544  1.00  0.00     0.087 C 
ATOM      4  O   UNL     1       3.658   1.334   2.282  1.00  0.00    -0.300 OA
ENDBRANCH   1   2
BRANCH   1   5
ATOM      5  C   UNL     1       6.991   0.261   1.456  1.00  0.00     0.043 C 
BRANCH   5   6
ATOM      6  C   UNL     1       7.383  -0.711   0.419  1.00  0.00    -0.044 A 
ATOM      7  C   UNL     1       7.247  -0.424  -0.944  1.00  0.00     0.008 A 
ATOM      8  C   UNL     1       7.899  -1.932   0.790  1.00  0.00     0.054 A 
ATOM      9  C   UNL     1       7.633  -1.375  -1.871  1.00  0.00     0.051 A 
ATOM     10  C   UNL     1       8.288  -2.890  -0.152  1.00  0.00     0.166 A 
ATOM     11  C   UNL     1       8.153  -2.609  -1.493  1.00  0.00     0.165 A 
ATOM     12  O   UNL     1       8.819  -4.157  -0.039  1.00  0.00    -0.454 OA
ATOM     13  O   UNL     1       8.610  -3.720  -2.184  1.00  0.00    -0.454 OA
ATOM     14  C   UNL     1       9.126  -4.689  -1.302  1.00  0.00     0.468 C 
ENDBRANCH   5   6
ENDBRANCH   1   5
TORSDOF 3
ENDMDL
MODEL 4
REMARK VINA RESULT:      -7.1      1.251      1.460
REMARK SMILES CC(=O)CCc1ccc2c(c1)OCO2
REMARK SMILES IDX 4 1 2 2 1 3 3 4 5 5 6 6 7 7 11 8 8 9 10 10 9 11 12 12 14 13
REMARK SMILES IDX 13 14
REMARK H PARENT
REMARK Flexibility Score: inf
ROOT
ATOM      1  C   UNL     1       6.369   1.203   0.905  1.00  0.00     0.080 C 
ENDROOT
BRANCH   1   2
ATOM      2  C   UNL     1       5.661   0.387   1.931  1.00  0.00     0.130 C 
ATOM      3  C   UNL     1       6.266  -0.846   2.502  1.00  0.00     0.087 C 
ATOM      4  O   UNL     1       4.555   0.709   2.334  1.00  0.00    -0.300 OA
ENDBRANCH   1   2
BRANCH   1   5
ATOM      5  C   UNL     1       5.856   0.901  -0.489  1.00  0.00     0.043 C 
BRANCH   5   6
ATOM      6  C   UNL     1       6.814   0.089  -1.260  1.00  0.00    -0.044 A 
ATOM      7  C   UNL     1       7.511   0.619  -2.352  1.00  0.00     0.008 A 
ATOM      8  C   UNL     1       7.039  -1.221  -0.905  1.00  0.00     0.054 A 
ATOM      9  C   UNL     1       8.399  -0.190  -3.038  1.00  0.00     0.051 A 
ATOM     10  C   UNL     1       7.938  -2.035  -1.602  1.00  0.00     0.166 A 
ATOM     11  C   UNL     1       8.623  -1.515  -2.677  1.00  0.00     0.165 A 
ATOM     12  O   UNL     1       8.330  -3.348  -1.449  1.00  0.00    -0.454 OA
ATOM     13  O   UNL     1       9.431  -2.529  -3.166  1.00  0.00    -0.454 OA
ATOM     14  C   UNL     1       9.344  -3.681  -2.362  1.00  0.00     0.468 C 
ENDBRANCH   5   6
ENDBRANCH   1   5
TORSDOF 3
ENDMDL
MODEL 5
REMARK VINA RESULT:      -7.0      1.928      2.581
REMARK SMILES CC(=O)CCc1ccc2c(c1)OCO2
REMARK SMILES IDX 4 1 2 2 1 3 3 4 5 5 6 6 7 7 11 8 8 9 10 10 9 11 12 12 14 13
REMARK SMILES IDX 13 14
REMARK H PARENT
REMARK Flexibility Score: inf
ROOT
ATOM      1  C   UNL     1       6.761   1.219   1.110  1.00  0.00     0.080 C 
ENDROOT
BRANCH   1   2
ATOM      2  C   UNL     1       5.356   1.653   0.873  1.00  0.00     0.130 C 
ATOM      3  C   UNL     1       4.905   2.149  -0.455  1.00  0.00     0.087 C 
ATOM      4  O   UNL     1       4.528   1.613   1.769  1.00  0.00    -0.300 OA
ENDBRANCH   1   2
BRANCH   1   5
ATOM      5  C   UNL     1       7.586   1.312  -0.158  1.00  0.00     0.043 C 
BRANCH   5   6
ATOM      6  C   UNL     1       7.829  -0.016  -0.750  1.00  0.00    -0.044 A 
ATOM      7  C   UNL     1       7.793  -0.219  -2.135  1.00  0.00     0.008 A 
ATOM      8  C   UNL     1       8.101  -1.089   0.068  1.00  0.00     0.054 A 
ATOM      9  C   UNL     1       8.029  -1.487  -2.633  1.00  0.00     0.051 A 
ATOM     10  C   UNL     1       8.340  -2.369  -0.441  1.00  0.00     0.166 A 
ATOM     11  C   UNL     1       8.303  -2.569  -1.803  1.00  0.00     0.165 A 
ATOM     12  O   UNL     1       8.627  -3.578   0.155  1.00  0.00    -0.454 OA
ATOM     13  O   UNL     1       8.573  -3.912  -2.017  1.00  0.00    -0.454 OA
ATOM     14  C   UNL     1       8.874  -4.569  -0.810  1.00  0.00     0.468 C 
ENDBRANCH   5   6
ENDBRANCH   1   5
TORSDOF 3
ENDMDL
