@<TRIPOS>MOLECULE
/home/cewinharhar/GITHUB/reincatalyze/data/processed/docking_pred/2023-May-24-1506_sub9_nm5_bs15_s42_ex16_mel10_mts10000_k50_ec02_g099_lra3e-4_lrc3e-3/dae946a14533abf5a26c4c259dc9c56d74217bba_ligand_9.pdbqt
 14 15 0 0 0
SMALL
GASTEIGER

@<TRIPOS>ATOM
      1  C          6.8280    0.6560    1.3150 C.3     1  UNL1        0.0800
      2  C          5.4180    1.1090    1.4680 C.2     1  UNL1        0.1300
      3  C          4.8310    2.1500    0.5820 C.3     1  UNL1        0.0870
      4  O          4.6980    0.6360    2.3320 O.2     1  UNL1       -0.3000
      5  C          7.3280    0.8790   -0.0990 C.3     1  UNL1        0.0430
      6  C          7.7200   -0.3860   -0.7460 C.2     1  UNL1       -0.0440
      7  C          7.8440   -0.4900   -2.1360 C.2     1  UNL1        0.0080
      8  C          7.9740   -1.4970    0.0260 C.2     1  UNL1        0.0540
      9  C          8.2160   -1.7030   -2.6870 C.2     1  UNL1        0.0510
     10  C          8.3500   -2.7200   -0.5360 C.2     1  UNL1        0.1660
     11  C          8.4720   -2.8240   -1.9040 C.2     1  UNL1        0.1650
     12  O          8.6520   -3.9510    0.0080 O.2     1  UNL1       -0.4540
     13  O          8.8510   -4.1300   -2.1740 O.2     1  UNL1       -0.4540
     14  C          9.0650   -4.8540   -0.9860 C.3     1  UNL1        0.4680
@<TRIPOS>BOND
     1     9     7    1
     2     9    11    2
     3    13    11    1
     4    13    14    1
     5     7     6    2
     6    11    10    1
     7    14    12    1
     8     6     5    1
     9     6     8    1
    10    10    12    1
    11    10     8    2
    12     5     1    1
    13     3     2    1
    14     1     2    1
    15     2     4    2
