MODEL 1
REMARK VINA RESULT:      -7.7      0.000      0.000
REMARK SMILES CC(=O)CCc1ccc2c(c1)OCO2
REMARK SMILES IDX 4 1 2 2 1 3 3 4 5 5 6 6 7 7 11 8 8 9 10 10 9 11 12 12 14 13
REMARK SMILES IDX 13 14
REMARK H PARENT
REMARK Flexibility Score: inf
ROOT
ATOM      1  C   UNL     1       5.520   1.907   1.268  1.00  0.00     0.080 C 
ENDROOT
BRANCH   1   2
ATOM      2  C   UNL     1       5.080   0.687   1.999  1.00  0.00     0.130 C 
ATOM      3  C   UNL     1       5.973  -0.492   2.160  1.00  0.00     0.087 C 
ATOM      4  O   UNL     1       3.965   0.619   2.491  1.00  0.00    -0.300 OA
ENDBRANCH   1   2
BRANCH   1   5
ATOM      5  C   UNL     1       5.397   1.725  -0.232  1.00  0.00     0.043 C 
BRANCH   5   6
ATOM      6  C   UNL     1       6.565   1.025  -0.795  1.00  0.00    -0.044 A 
ATOM      7  C   UNL     1       7.871   1.464  -0.549  1.00  0.00     0.008 A 
ATOM      8  C   UNL     1       6.379  -0.089  -1.581  1.00  0.00     0.054 A 
ATOM      9  C   UNL     1       8.929   0.767  -1.103  1.00  0.00     0.051 A 
ATOM     10  C   UNL     1       7.452  -0.791  -2.139  1.00  0.00     0.166 A 
ATOM     11  C   UNL     1       8.738  -0.359  -1.898  1.00  0.00     0.165 A 
ATOM     12  O   UNL     1       7.528  -1.909  -2.942  1.00  0.00    -0.454 OA
ATOM     13  O   UNL     1       9.585  -1.231  -2.565  1.00  0.00    -0.454 OA
ATOM     14  C   UNL     1       8.864  -2.281  -3.165  1.00  0.00     0.468 C 
ENDBRANCH   5   6
ENDBRANCH   1   5
TORSDOF 3
ENDMDL
MODEL 2
REMARK VINA RESULT:      -7.3      1.947      2.464
REMARK SMILES CC(=O)CCc1ccc2c(c1)OCO2
REMARK SMILES IDX 4 1 2 2 1 3 3 4 5 5 6 6 7 7 11 8 8 9 10 10 9 11 12 12 14 13
REMARK SMILES IDX 13 14
REMARK H PARENT
REMARK Flexibility Score: inf
ROOT
ATOM      1  C   UNL     1       5.897   1.319  -0.298  1.00  0.00     0.080 C 
ENDROOT
BRANCH   1   2
ATOM      2  C   UNL     1       5.316   1.259   1.072  1.00  0.00     0.130 C 
ATOM      3  C   UNL     1       5.594   0.122   1.989  1.00  0.00     0.087 C 
ATOM      4  O   UNL     1       4.591   2.150   1.484  1.00  0.00    -0.300 OA
ENDBRANCH   1   2
BRANCH   1   5
ATOM      5  C   UNL     1       7.384   1.028  -0.279  1.00  0.00     0.043 C 
BRANCH   5   6
ATOM      6  C   UNL     1       7.694  -0.277  -0.890  1.00  0.00    -0.044 A 
ATOM      7  C   UNL     1       7.688  -0.457  -2.278  1.00  0.00     0.008 A 
ATOM      8  C   UNL     1       7.999  -1.351  -0.085  1.00  0.00     0.054 A 
ATOM      9  C   UNL     1       7.988  -1.705  -2.793  1.00  0.00     0.051 A 
ATOM     10  C   UNL     1       8.302  -2.611  -0.611  1.00  0.00     0.166 A 
ATOM     11  C   UNL     1       8.296  -2.789  -1.977  1.00  0.00     0.165 A 
ATOM     12  O   UNL     1       8.632  -3.817  -0.031  1.00  0.00    -0.454 OA
ATOM     13  O   UNL     1       8.627  -4.115  -2.209  1.00  0.00    -0.454 OA
ATOM     14  C   UNL     1       8.937  -4.779  -1.008  1.00  0.00     0.468 C 
ENDBRANCH   5   6
ENDBRANCH   1   5
TORSDOF 3
ENDMDL
MODEL 3
REMARK VINA RESULT:      -7.2      2.052      2.631
REMARK SMILES CC(=O)CCc1ccc2c(c1)OCO2
REMARK SMILES IDX 4 1 2 2 1 3 3 4 5 5 6 6 7 7 11 8 8 9 10 10 9 11 12 12 14 13
REMARK SMILES IDX 13 14
REMARK H PARENT
REMARK Flexibility Score: inf
ROOT
ATOM      1  C   UNL     1       5.394  -0.066   2.019  1.00  0.00     0.080 C 
ENDROOT
BRANCH   1   2
ATOM      2  C   UNL     1       4.558   1.141   1.767  1.00  0.00     0.130 C 
ATOM      3  C   UNL     1       4.909   2.128   0.711  1.00  0.00     0.087 C 
ATOM      4  O   UNL     1       3.554   1.356   2.427  1.00  0.00    -0.300 OA
ENDBRANCH   1   2
BRANCH   1   5
ATOM      5  C   UNL     1       6.838   0.173   1.625  1.00  0.00     0.043 C 
BRANCH   5   6
ATOM      6  C   UNL     1       7.273  -0.745   0.557  1.00  0.00    -0.044 A 
ATOM      7  C   UNL     1       7.156  -0.404  -0.795  1.00  0.00     0.008 A 
ATOM      8  C   UNL     1       7.810  -1.969   0.886  1.00  0.00     0.054 A 
ATOM      9  C   UNL     1       7.582  -1.305  -1.754  1.00  0.00     0.051 A 
ATOM     10  C   UNL     1       8.240  -2.876  -0.087  1.00  0.00     0.166 A 
ATOM     11  C   UNL     1       8.124  -2.542  -1.417  1.00  0.00     0.165 A 
ATOM     12  O   UNL     1       8.798  -4.135  -0.016  1.00  0.00    -0.454 OA
ATOM     13  O   UNL     1       8.620  -3.613  -2.144  1.00  0.00    -0.454 OA
ATOM     14  C   UNL     1       9.142  -4.606  -1.294  1.00  0.00     0.468 C 
ENDBRANCH   5   6
ENDBRANCH   1   5
TORSDOF 3
ENDMDL
MODEL 4
REMARK VINA RESULT:      -7.1      1.223      1.402
REMARK SMILES CC(=O)CCc1ccc2c(c1)OCO2
REMARK SMILES IDX 4 1 2 2 1 3 3 4 5 5 6 6 7 7 11 8 8 9 10 10 9 11 12 12 14 13
REMARK SMILES IDX 13 14
REMARK H PARENT
REMARK Flexibility Score: inf
ROOT
ATOM      1  C   UNL     1       6.316   1.294   0.904  1.00  0.00     0.080 C 
ENDROOT
BRANCH   1   2
ATOM      2  C   UNL     1       5.651   0.422   1.912  1.00  0.00     0.130 C 
ATOM      3  C   UNL     1       6.336  -0.765   2.491  1.00  0.00     0.087 C 
ATOM      4  O   UNL     1       4.517   0.658   2.294  1.00  0.00    -0.300 OA
ENDBRANCH   1   2
BRANCH   1   5
ATOM      5  C   UNL     1       5.818   0.996  -0.496  1.00  0.00     0.043 C 
BRANCH   5   6
ATOM      6  C   UNL     1       6.777   0.173  -1.254  1.00  0.00    -0.044 A 
ATOM      7  C   UNL     1       7.497   0.695  -2.335  1.00  0.00     0.008 A 
ATOM      8  C   UNL     1       6.980  -1.140  -0.898  1.00  0.00     0.054 A 
ATOM      9  C   UNL     1       8.384  -0.124  -3.009  1.00  0.00     0.051 A 
ATOM     10  C   UNL     1       7.879  -1.964  -1.582  1.00  0.00     0.166 A 
ATOM     11  C   UNL     1       8.587  -1.452  -2.646  1.00  0.00     0.165 A 
ATOM     12  O   UNL     1       8.252  -3.282  -1.424  1.00  0.00    -0.454 OA
ATOM     13  O   UNL     1       9.388  -2.476  -3.125  1.00  0.00    -0.454 OA
ATOM     14  C   UNL     1       9.275  -3.628  -2.323  1.00  0.00     0.468 C 
ENDBRANCH   5   6
ENDBRANCH   1   5
TORSDOF 3
ENDMDL
MODEL 5
REMARK VINA RESULT:      -7.1      2.010      2.583
REMARK SMILES CC(=O)CCc1ccc2c(c1)OCO2
REMARK SMILES IDX 4 1 2 2 1 3 3 4 5 5 6 6 7 7 11 8 8 9 10 10 9 11 12 12 14 13
REMARK SMILES IDX 13 14
REMARK H PARENT
REMARK Flexibility Score: inf
ROOT
ATOM      1  C   UNL     1       6.828   0.656   1.315  1.00  0.00     0.080 C 
ENDROOT
BRANCH   1   2
ATOM      2  C   UNL     1       5.418   1.109   1.468  1.00  0.00     0.130 C 
ATOM      3  C   UNL     1       4.831   2.150   0.582  1.00  0.00     0.087 C 
ATOM      4  O   UNL     1       4.698   0.636   2.332  1.00  0.00    -0.300 OA
ENDBRANCH   1   2
BRANCH   1   5
ATOM      5  C   UNL     1       7.328   0.879  -0.099  1.00  0.00     0.043 C 
BRANCH   5   6
ATOM      6  C   UNL     1       7.720  -0.386  -0.746  1.00  0.00    -0.044 A 
ATOM      7  C   UNL     1       7.844  -0.490  -2.136  1.00  0.00     0.008 A 
ATOM      8  C   UNL     1       7.974  -1.497   0.026  1.00  0.00     0.054 A 
ATOM      9  C   UNL     1       8.216  -1.703  -2.687  1.00  0.00     0.051 A 
ATOM     10  C   UNL     1       8.350  -2.720  -0.536  1.00  0.00     0.166 A 
ATOM     11  C   UNL     1       8.472  -2.824  -1.904  1.00  0.00     0.165 A 
ATOM     12  O   UNL     1       8.652  -3.951   0.008  1.00  0.00    -0.454 OA
ATOM     13  O   UNL     1       8.851  -4.130  -2.174  1.00  0.00    -0.454 OA
ATOM     14  C   UNL     1       9.065  -4.854  -0.986  1.00  0.00     0.468 C 
ENDBRANCH   5   6
ENDBRANCH   1   5
TORSDOF 3
ENDMDL
