@<TRIPOS>MOLECULE
/home/cewinharhar/GITHUB/reincatalyze/data/processed/docking_pred/2023-May-24-1506_sub9_nm5_bs15_s42_ex16_mel10_mts10000_k50_ec02_g099_lra3e-4_lrc3e-3/db57195a81496af8cffcd6b4d9524a1fe0637e4f_ligand_9.pdbqt
 14 15 0 0 0
SMALL
GASTEIGER

@<TRIPOS>ATOM
      1  C          8.3500    0.2180   -2.5740 C.3     1  UNL1        0.0800
      2  C          8.0460   -1.2340   -2.7140 C.2     1  UNL1        0.1300
      3  C          9.1080   -2.2270   -3.0250 C.3     1  UNL1        0.0870
      4  O          6.9070   -1.6510   -2.5780 O.2     1  UNL1       -0.3000
      5  C          8.8540    0.5420   -1.1820 C.3     1  UNL1        0.0430
      6  C          7.7900    0.4120   -0.1700 C.2     1  UNL1       -0.0440
      7  C          7.8480   -0.5620    0.8330 C.2     1  UNL1        0.0080
      8  C          6.7100    1.2640   -0.2030 C.2     1  UNL1        0.0540
      9  C          6.8200   -0.6370    1.7560 C.2     1  UNL1        0.0510
     10  C          5.6740    1.1850    0.7330 C.2     1  UNL1        0.1660
     11  C          5.7300    0.2270    1.7200 C.2     1  UNL1        0.1650
     12  O          4.5120    1.9050    0.9100 O.2     1  UNL1       -0.4540
     13  O          4.5890    0.3800    2.4920 O.2     1  UNL1       -0.4540
     14  C          3.8340    1.4900    2.0680 C.3     1  UNL1        0.4680
@<TRIPOS>BOND
     1     3     2    1
     2     2     4    2
     3     2     1    1
     4     1     5    1
     5     5     6    1
     6     8     6    2
     7     8    10    1
     8     6     7    1
     9    10    12    1
    10    10    11    2
    11     7     9    2
    12    12    14    1
    13    11     9    1
    14    11    13    1
    15    14    13    1
