@<TRIPOS>MOLECULE
/home/cewinharhar/GITHUB/reincatalyze/data/processed/docking_pred/2023-May-24-1506_sub9_nm5_bs15_s42_ex16_mel10_mts10000_k50_ec02_g099_lra3e-4_lrc3e-3/db57195a81496af8cffcd6b4d9524a1fe0637e4f_ligand_9.pdbqt
 14 15 0 0 0
SMALL
GASTEIGER

@<TRIPOS>ATOM
      1  C          6.3460    1.2390    0.8690 C.3     1  UNL1        0.0800
      2  C          5.6570    0.4350    1.9170 C.2     1  UNL1        0.1300
      3  C          6.2730   -0.7910    2.4920 C.3     1  UNL1        0.0870
      4  O          4.5590    0.7630    2.3360 O.2     1  UNL1       -0.3000
      5  C          5.8310    0.8970   -0.5150 C.3     1  UNL1        0.0430
      6  C          6.8000    0.0880   -1.2750 C.2     1  UNL1       -0.0440
      7  C          7.5110    0.6210   -2.3570 C.2     1  UNL1        0.0080
      8  C          7.0210   -1.2230   -0.9200 C.2     1  UNL1        0.0540
      9  C          8.4080   -0.1850   -3.0330 C.2     1  UNL1        0.0510
     10  C          7.9300   -2.0340   -1.6060 C.2     1  UNL1        0.1660
     11  C          8.6290   -1.5110   -2.6720 C.2     1  UNL1        0.1650
     12  O          8.3210   -3.3470   -1.4510 O.2     1  UNL1       -0.4540
     13  O          9.4440   -2.5240   -3.1520 O.2     1  UNL1       -0.4540
     14  C          9.3470   -3.6770   -2.3520 C.3     1  UNL1        0.4680
@<TRIPOS>BOND
     1    13    11    1
     2    13    14    1
     3     9    11    2
     4     9     7    1
     5    11    10    1
     6     7     6    2
     7    14    12    1
     8    10    12    1
     9    10     8    2
    10     6     8    1
    11     6     5    1
    12     5     1    1
    13     1     2    1
    14     2     4    2
    15     2     3    1
