@<TRIPOS>MOLECULE
/home/cewinharhar/GITHUB/reincatalyze/data/processed/docking_pred/2023-May-24-1506_sub9_nm5_bs15_s42_ex16_mel10_mts10000_k50_ec02_g099_lra3e-4_lrc3e-3/db57195a81496af8cffcd6b4d9524a1fe0637e4f_ligand_9.pdbqt
 14 15 0 0 0
SMALL
GASTEIGER

@<TRIPOS>ATOM
      1  C          5.4280   -0.0400    2.0140 C.3     1  UNL1        0.0800
      2  C          4.5730    1.1510    1.7530 C.2     1  UNL1        0.1300
      3  C          4.9070    2.1330    0.6870 C.3     1  UNL1        0.0870
      4  O          3.5670    1.3570    2.4130 O.2     1  UNL1       -0.3000
      5  C          6.8630    0.2080    1.5910 C.3     1  UNL1        0.0430
      6  C          7.2930   -0.7310    0.5400 C.2     1  UNL1       -0.0440
      7  C          7.1780   -0.4140   -0.8180 C.2     1  UNL1        0.0080
      8  C          7.8250   -1.9510    0.8910 C.2     1  UNL1        0.0540
      9  C          7.5990   -1.3340   -1.7610 C.2     1  UNL1        0.0510
     10  C          8.2500   -2.8780   -0.0650 C.2     1  UNL1        0.1660
     11  C          8.1360   -2.5670   -1.4020 C.2     1  UNL1        0.1650
     12  O          8.8030   -4.1370    0.0280 O.2     1  UNL1       -0.4540
     13  O          8.6270   -3.6530   -2.1090 O.2     1  UNL1       -0.4540
     14  C          9.1440   -4.6330   -1.2410 C.3     1  UNL1        0.4680
@<TRIPOS>BOND
     1    13    11    1
     2    13    14    1
     3     9    11    2
     4     9     7    1
     5    11    10    1
     6    14    12    1
     7     7     6    2
     8    10    12    1
     9    10     8    2
    10     6     8    1
    11     6     5    1
    12     3     2    1
    13     5     1    1
    14     2     1    1
    15     2     4    2
