MODEL 1
REMARK VINA RESULT:      -7.7      0.000      0.000
REMARK SMILES CC(=O)CCc1ccc2c(c1)OCO2
REMARK SMILES IDX 4 1 2 2 1 3 3 4 5 5 6 6 7 7 11 8 8 9 10 10 9 11 12 12 14 13
REMARK SMILES IDX 13 14
REMARK H PARENT
REMARK Flexibility Score: inf
ROOT
ATOM      1  C   UNL     1       5.525   1.915   1.263  1.00  0.00     0.080 C 
ENDROOT
BRANCH   1   2
ATOM      2  C   UNL     1       5.064   0.707   2.003  1.00  0.00     0.130 C 
ATOM      3  C   UNL     1       5.931  -0.492   2.156  1.00  0.00     0.087 C 
ATOM      4  O   UNL     1       3.954   0.666   2.507  1.00  0.00    -0.300 OA
ENDBRANCH   1   2
BRANCH   1   5
ATOM      5  C   UNL     1       5.398   1.724  -0.236  1.00  0.00     0.043 C 
BRANCH   5   6
ATOM      6  C   UNL     1       6.566   1.024  -0.799  1.00  0.00    -0.044 A 
ATOM      7  C   UNL     1       7.872   1.462  -0.552  1.00  0.00     0.008 A 
ATOM      8  C   UNL     1       6.380  -0.090  -1.585  1.00  0.00     0.054 A 
ATOM      9  C   UNL     1       8.930   0.764  -1.106  1.00  0.00     0.051 A 
ATOM     10  C   UNL     1       7.453  -0.792  -2.143  1.00  0.00     0.166 A 
ATOM     11  C   UNL     1       8.738  -0.361  -1.901  1.00  0.00     0.165 A 
ATOM     12  O   UNL     1       7.528  -1.910  -2.947  1.00  0.00    -0.454 OA
ATOM     13  O   UNL     1       9.585  -1.233  -2.568  1.00  0.00    -0.454 OA
ATOM     14  C   UNL     1       8.864  -2.282  -3.169  1.00  0.00     0.468 C 
ENDBRANCH   5   6
ENDBRANCH   1   5
TORSDOF 3
ENDMDL
MODEL 2
REMARK VINA RESULT:      -7.4      1.934      2.416
REMARK SMILES CC(=O)CCc1ccc2c(c1)OCO2
REMARK SMILES IDX 4 1 2 2 1 3 3 4 5 5 6 6 7 7 11 8 8 9 10 10 9 11 12 12 14 13
REMARK SMILES IDX 13 14
REMARK H PARENT
REMARK Flexibility Score: inf
ROOT
ATOM      1  C   UNL     1       5.749   1.245  -0.303  1.00  0.00     0.080 C 
ENDROOT
BRANCH   1   2
ATOM      2  C   UNL     1       5.213   1.205   1.086  1.00  0.00     0.130 C 
ATOM      3  C   UNL     1       5.408   0.020   1.964  1.00  0.00     0.087 C 
ATOM      4  O   UNL     1       4.594   2.150   1.547  1.00  0.00    -0.300 OA
ENDBRANCH   1   2
BRANCH   1   5
ATOM      5  C   UNL     1       7.253   1.055  -0.319  1.00  0.00     0.043 C 
BRANCH   5   6
ATOM      6  C   UNL     1       7.634  -0.239  -0.912  1.00  0.00    -0.044 A 
ATOM      7  C   UNL     1       7.684  -0.423  -2.299  1.00  0.00     0.008 A 
ATOM      8  C   UNL     1       7.953  -1.298  -0.093  1.00  0.00     0.054 A 
ATOM      9  C   UNL     1       8.049  -1.659  -2.799  1.00  0.00     0.051 A 
ATOM     10  C   UNL     1       8.323  -2.546  -0.604  1.00  0.00     0.166 A 
ATOM     11  C   UNL     1       8.371  -2.728  -1.968  1.00  0.00     0.165 A 
ATOM     12  O   UNL     1       8.680  -3.737  -0.008  1.00  0.00    -0.454 OA
ATOM     13  O   UNL     1       8.761  -4.040  -2.184  1.00  0.00    -0.454 OA
ATOM     14  C   UNL     1       9.055  -4.689  -0.970  1.00  0.00     0.468 C 
ENDBRANCH   5   6
ENDBRANCH   1   5
TORSDOF 3
ENDMDL
MODEL 3
REMARK VINA RESULT:      -7.2      2.045      2.607
REMARK SMILES CC(=O)CCc1ccc2c(c1)OCO2
REMARK SMILES IDX 4 1 2 2 1 3 3 4 5 5 6 6 7 7 11 8 8 9 10 10 9 11 12 12 14 13
REMARK SMILES IDX 13 14
REMARK H PARENT
REMARK Flexibility Score: inf
ROOT
ATOM      1  C   UNL     1       5.442  -0.031   2.012  1.00  0.00     0.080 C 
ENDROOT
BRANCH   1   2
ATOM      2  C   UNL     1       4.574   1.153   1.766  1.00  0.00     0.130 C 
ATOM      3  C   UNL     1       4.888   2.144   0.701  1.00  0.00     0.087 C 
ATOM      4  O   UNL     1       3.572   1.347   2.436  1.00  0.00    -0.300 OA
ENDBRANCH   1   2
BRANCH   1   5
ATOM      5  C   UNL     1       6.867   0.229   1.566  1.00  0.00     0.043 C 
BRANCH   5   6
ATOM      6  C   UNL     1       7.287  -0.704   0.506  1.00  0.00    -0.044 A 
ATOM      7  C   UNL     1       7.165  -0.377  -0.849  1.00  0.00     0.008 A 
ATOM      8  C   UNL     1       7.817  -1.929   0.845  1.00  0.00     0.054 A 
ATOM      9  C   UNL     1       7.576  -1.292  -1.801  1.00  0.00     0.051 A 
ATOM     10  C   UNL     1       8.232  -2.851  -0.121  1.00  0.00     0.166 A 
ATOM     11  C   UNL     1       8.110  -2.530  -1.455  1.00  0.00     0.165 A 
ATOM     12  O   UNL     1       8.781  -4.113  -0.040  1.00  0.00    -0.454 OA
ATOM     13  O   UNL     1       8.593  -3.613  -2.173  1.00  0.00    -0.454 OA
ATOM     14  C   UNL     1       9.112  -4.601  -1.315  1.00  0.00     0.468 C 
ENDBRANCH   5   6
ENDBRANCH   1   5
TORSDOF 3
ENDMDL
MODEL 4
REMARK VINA RESULT:      -6.8      1.265      1.750
REMARK SMILES CC(=O)CCc1ccc2c(c1)OCO2
REMARK SMILES IDX 4 1 2 2 1 3 3 4 5 5 6 6 7 7 11 8 8 9 10 10 9 11 12 12 14 13
REMARK SMILES IDX 13 14
REMARK H PARENT
REMARK Flexibility Score: inf
ROOT
ATOM      1  C   UNL     1       5.315  -0.069   1.965  1.00  0.00     0.080 C 
ENDROOT
BRANCH   1   2
ATOM      2  C   UNL     1       4.433   1.119   1.788  1.00  0.00     0.130 C 
ATOM      3  C   UNL     1       4.711   2.150   0.752  1.00  0.00     0.087 C 
ATOM      4  O   UNL     1       3.451   1.281   2.493  1.00  0.00    -0.300 OA
ENDBRANCH   1   2
BRANCH   1   5
ATOM      5  C   UNL     1       6.779   0.318   1.901  1.00  0.00     0.043 C 
BRANCH   5   6
ATOM      6  C   UNL     1       7.383  -0.043   0.606  1.00  0.00    -0.044 A 
ATOM      7  C   UNL     1       7.875   0.932  -0.270  1.00  0.00     0.008 A 
ATOM      8  C   UNL     1       7.474  -1.366   0.241  1.00  0.00     0.054 A 
ATOM      9  C   UNL     1       8.432   0.534  -1.471  1.00  0.00     0.051 A 
ATOM     10  C   UNL     1       8.039  -1.764  -0.975  1.00  0.00     0.166 A 
ATOM     11  C   UNL     1       8.522  -0.805  -1.838  1.00  0.00     0.165 A 
ATOM     12  O   UNL     1       8.241  -2.996  -1.559  1.00  0.00    -0.454 OA
ATOM     13  O   UNL     1       9.016  -1.476  -2.945  1.00  0.00    -0.454 OA
ATOM     14  C   UNL     1       8.941  -2.871  -2.770  1.00  0.00     0.468 C 
ENDBRANCH   5   6
ENDBRANCH   1   5
TORSDOF 3
ENDMDL
MODEL 5
REMARK VINA RESULT:      -6.7      1.260      5.280
REMARK SMILES CC(=O)CCc1ccc2c(c1)OCO2
REMARK SMILES IDX 4 1 2 2 1 3 3 4 5 5 6 6 7 7 11 8 8 9 10 10 9 11 12 12 14 13
REMARK SMILES IDX 13 14
REMARK H PARENT
REMARK Flexibility Score: inf
ROOT
ATOM      1  C   UNL     1       8.561   0.260  -2.589  1.00  0.00     0.080 C 
ENDROOT
BRANCH   1   2
ATOM      2  C   UNL     1       8.486  -1.218  -2.761  1.00  0.00     0.130 C 
ATOM      3  C   UNL     1       7.183  -1.928  -2.861  1.00  0.00     0.087 C 
ATOM      4  O   UNL     1       9.501  -1.893  -2.825  1.00  0.00    -0.300 OA
ENDBRANCH   1   2
BRANCH   1   5
ATOM      5  C   UNL     1       9.020   0.629  -1.192  1.00  0.00     0.043 C 
BRANCH   5   6
ATOM      6  C   UNL     1       7.944   0.458  -0.200  1.00  0.00    -0.044 A 
ATOM      7  C   UNL     1       7.993  -0.552   0.768  1.00  0.00     0.008 A 
ATOM      8  C   UNL     1       6.862   1.308  -0.214  1.00  0.00     0.054 A 
ATOM      9  C   UNL     1       6.955  -0.664   1.674  1.00  0.00     0.051 A 
ATOM     10  C   UNL     1       5.814   1.191   0.704  1.00  0.00     0.166 A 
ATOM     11  C   UNL     1       5.861   0.196   1.656  1.00  0.00     0.165 A 
ATOM     12  O   UNL     1       4.647   1.899   0.894  1.00  0.00    -0.454 OA
ATOM     13  O   UNL     1       4.710   0.317   2.419  1.00  0.00    -0.454 OA
ATOM     14  C   UNL     1       3.956   1.440   2.027  1.00  0.00     0.468 C 
ENDBRANCH   5   6
ENDBRANCH   1   5
TORSDOF 3
ENDMDL
