@<TRIPOS>MOLECULE
/home/cewinharhar/GITHUB/reincatalyze/data/processed/docking_pred/2023-May-24-1506_sub9_nm5_bs15_s42_ex16_mel10_mts10000_k50_ec02_g099_lra3e-4_lrc3e-3/db6d960fae65c9d90f474a1e8ae318b6f28ec3f2_ligand_9.pdbqt
 14 15 0 0 0
SMALL
GASTEIGER

@<TRIPOS>ATOM
      1  C          5.3150   -0.0690    1.9650 C.3     1  UNL1        0.0800
      2  C          4.4330    1.1190    1.7880 C.2     1  UNL1        0.1300
      3  C          4.7110    2.1500    0.7520 C.3     1  UNL1        0.0870
      4  O          3.4510    1.2810    2.4930 O.2     1  UNL1       -0.3000
      5  C          6.7790    0.3180    1.9010 C.3     1  UNL1        0.0430
      6  C          7.3830   -0.0430    0.6060 C.2     1  UNL1       -0.0440
      7  C          7.8750    0.9320   -0.2700 C.2     1  UNL1        0.0080
      8  C          7.4740   -1.3660    0.2410 C.2     1  UNL1        0.0540
      9  C          8.4320    0.5340   -1.4710 C.2     1  UNL1        0.0510
     10  C          8.0390   -1.7640   -0.9750 C.2     1  UNL1        0.1660
     11  C          8.5220   -0.8050   -1.8380 C.2     1  UNL1        0.1650
     12  O          8.2410   -2.9960   -1.5590 O.2     1  UNL1       -0.4540
     13  O          9.0160   -1.4760   -2.9450 O.2     1  UNL1       -0.4540
     14  C          8.9410   -2.8710   -2.7700 C.3     1  UNL1        0.4680
@<TRIPOS>BOND
     1    13    14    1
     2    13    11    1
     3    14    12    1
     4    11     9    2
     5    11    10    1
     6    12    10    1
     7     9     7    1
     8    10     8    2
     9     7     6    2
    10     8     6    1
    11     6     5    1
    12     3     2    1
    13     2     1    1
    14     2     4    2
    15     5     1    1
