@<TRIPOS>MOLECULE
/home/cewinharhar/GITHUB/reincatalyze/data/processed/docking_pred/2023-May-24-1506_sub9_nm5_bs15_s42_ex16_mel10_mts10000_k50_ec02_g099_lra3e-4_lrc3e-3/db6d960fae65c9d90f474a1e8ae318b6f28ec3f2_ligand_9.pdbqt
 14 15 0 0 0
SMALL
GASTEIGER

@<TRIPOS>ATOM
      1  C          8.5610    0.2600   -2.5890 C.3     1  UNL1        0.0800
      2  C          8.4860   -1.2180   -2.7610 C.2     1  UNL1        0.1300
      3  C          7.1830   -1.9280   -2.8610 C.3     1  UNL1        0.0870
      4  O          9.5010   -1.8930   -2.8250 O.2     1  UNL1       -0.3000
      5  C          9.0200    0.6290   -1.1920 C.3     1  UNL1        0.0430
      6  C          7.9440    0.4580   -0.2000 C.2     1  UNL1       -0.0440
      7  C          7.9930   -0.5520    0.7680 C.2     1  UNL1        0.0080
      8  C          6.8620    1.3080   -0.2140 C.2     1  UNL1        0.0540
      9  C          6.9550   -0.6640    1.6740 C.2     1  UNL1        0.0510
     10  C          5.8140    1.1910    0.7040 C.2     1  UNL1        0.1660
     11  C          5.8610    0.1960    1.6560 C.2     1  UNL1        0.1650
     12  O          4.6470    1.8990    0.8940 O.2     1  UNL1       -0.4540
     13  O          4.7100    0.3170    2.4190 O.2     1  UNL1       -0.4540
     14  C          3.9560    1.4400    2.0270 C.3     1  UNL1        0.4680
@<TRIPOS>BOND
     1     3     2    1
     2     4     2    2
     3     2     1    1
     4     1     5    1
     5     5     6    1
     6     8     6    2
     7     8    10    1
     8     6     7    1
     9    10    12    1
    10    10    11    2
    11     7     9    2
    12    12    14    1
    13    11     9    1
    14    11    13    1
    15    14    13    1
