@<TRIPOS>MOLECULE
/home/cewinharhar/GITHUB/reincatalyze/data/processed/docking_pred/2023-May-24-1506_sub9_nm5_bs15_s42_ex16_mel10_mts10000_k50_ec02_g099_lra3e-4_lrc3e-3/db6d960fae65c9d90f474a1e8ae318b6f28ec3f2_ligand_9.pdbqt
 14 15 0 0 0
SMALL
GASTEIGER

@<TRIPOS>ATOM
      1  C          5.7490    1.2450   -0.3030 C.3     1  UNL1        0.0800
      2  C          5.2130    1.2050    1.0860 C.2     1  UNL1        0.1300
      3  C          5.4080    0.0200    1.9640 C.3     1  UNL1        0.0870
      4  O          4.5940    2.1500    1.5470 O.2     1  UNL1       -0.3000
      5  C          7.2530    1.0550   -0.3190 C.3     1  UNL1        0.0430
      6  C          7.6340   -0.2390   -0.9120 C.2     1  UNL1       -0.0440
      7  C          7.6840   -0.4230   -2.2990 C.2     1  UNL1        0.0080
      8  C          7.9530   -1.2980   -0.0930 C.2     1  UNL1        0.0540
      9  C          8.0490   -1.6590   -2.7990 C.2     1  UNL1        0.0510
     10  C          8.3230   -2.5460   -0.6040 C.2     1  UNL1        0.1660
     11  C          8.3710   -2.7280   -1.9680 C.2     1  UNL1        0.1650
     12  O          8.6800   -3.7370   -0.0080 O.2     1  UNL1       -0.4540
     13  O          8.7610   -4.0400   -2.1840 O.2     1  UNL1       -0.4540
     14  C          9.0550   -4.6890   -0.9700 C.3     1  UNL1        0.4680
@<TRIPOS>BOND
     1     9     7    1
     2     9    11    2
     3     7     6    2
     4    13    11    1
     5    13    14    1
     6    11    10    1
     7    14    12    1
     8     6     5    1
     9     6     8    1
    10    10     8    2
    11    10    12    1
    12     5     1    1
    13     1     2    1
    14     2     4    2
    15     2     3    1
