@<TRIPOS>MOLECULE
/home/cewinharhar/GITHUB/reincatalyze/data/processed/docking_pred/2023-May-24-1506_sub9_nm5_bs15_s42_ex16_mel10_mts10000_k50_ec02_g099_lra3e-4_lrc3e-3/db6d960fae65c9d90f474a1e8ae318b6f28ec3f2_ligand_9.pdbqt
 14 15 0 0 0
SMALL
GASTEIGER

@<TRIPOS>ATOM
      1  C          5.4420   -0.0310    2.0120 C.3     1  UNL1        0.0800
      2  C          4.5740    1.1530    1.7660 C.2     1  UNL1        0.1300
      3  C          4.8880    2.1440    0.7010 C.3     1  UNL1        0.0870
      4  O          3.5720    1.3470    2.4360 O.2     1  UNL1       -0.3000
      5  C          6.8670    0.2290    1.5660 C.3     1  UNL1        0.0430
      6  C          7.2870   -0.7040    0.5060 C.2     1  UNL1       -0.0440
      7  C          7.1650   -0.3770   -0.8490 C.2     1  UNL1        0.0080
      8  C          7.8170   -1.9290    0.8450 C.2     1  UNL1        0.0540
      9  C          7.5760   -1.2920   -1.8010 C.2     1  UNL1        0.0510
     10  C          8.2320   -2.8510   -0.1210 C.2     1  UNL1        0.1660
     11  C          8.1100   -2.5300   -1.4550 C.2     1  UNL1        0.1650
     12  O          8.7810   -4.1130   -0.0400 O.2     1  UNL1       -0.4540
     13  O          8.5930   -3.6130   -2.1730 O.2     1  UNL1       -0.4540
     14  C          9.1120   -4.6010   -1.3150 C.3     1  UNL1        0.4680
@<TRIPOS>BOND
     1    13    11    1
     2    13    14    1
     3     9    11    2
     4     9     7    1
     5    11    10    1
     6    14    12    1
     7     7     6    2
     8    10    12    1
     9    10     8    2
    10     6     8    1
    11     6     5    1
    12     3     2    1
    13     5     1    1
    14     2     1    1
    15     2     4    2
