@<TRIPOS>MOLECULE
/home/cewinharhar/GITHUB/reincatalyze/data/processed/docking_pred/2023-May-24-1506_sub9_nm5_bs15_s42_ex16_mel10_mts10000_k50_ec02_g099_lra3e-4_lrc3e-3/db6d960fae65c9d90f474a1e8ae318b6f28ec3f2_ligand_9.pdbqt
 14 15 0 0 0
SMALL
GASTEIGER

@<TRIPOS>ATOM
      1  C          5.5250    1.9150    1.2630 C.3     1  UNL1        0.0800
      2  C          5.0640    0.7070    2.0030 C.2     1  UNL1        0.1300
      3  C          5.9310   -0.4920    2.1560 C.3     1  UNL1        0.0870
      4  O          3.9540    0.6660    2.5070 O.2     1  UNL1       -0.3000
      5  C          5.3980    1.7240   -0.2360 C.3     1  UNL1        0.0430
      6  C          6.5660    1.0240   -0.7990 C.2     1  UNL1       -0.0440
      7  C          7.8720    1.4620   -0.5520 C.2     1  UNL1        0.0080
      8  C          6.3800   -0.0900   -1.5850 C.2     1  UNL1        0.0540
      9  C          8.9300    0.7640   -1.1060 C.2     1  UNL1        0.0510
     10  C          7.4530   -0.7920   -2.1430 C.2     1  UNL1        0.1660
     11  C          8.7380   -0.3610   -1.9010 C.2     1  UNL1        0.1650
     12  O          7.5280   -1.9100   -2.9470 O.2     1  UNL1       -0.4540
     13  O          9.5850   -1.2330   -2.5680 O.2     1  UNL1       -0.4540
     14  C          8.8640   -2.2820   -3.1690 C.3     1  UNL1        0.4680
@<TRIPOS>BOND
     1    14    12    1
     2    14    13    1
     3    12    10    1
     4    13    11    1
     5    10    11    2
     6    10     8    1
     7    11     9    1
     8     8     6    2
     9     9     7    2
    10     6     7    1
    11     6     5    1
    12     5     1    1
    13     1     2    1
    14     2     3    1
    15     2     4    2
