@<TRIPOS>MOLECULE
/home/cewinharhar/GITHUB/reincatalyze/data/processed/docking_pred/2023-May-24-1506_sub9_nm5_bs15_s42_ex16_mel10_mts10000_k50_ec02_g099_lra3e-4_lrc3e-3/dba3942d2f0306a5a819952336ad453bb769fd78_ligand_9.pdbqt
 14 15 0 0 0
SMALL
GASTEIGER

@<TRIPOS>ATOM
      1  C          5.5870    1.5040   -0.0930 C.3     1  UNL1        0.0800
      2  C          4.9400    1.1720    1.2070 C.2     1  UNL1        0.1300
      3  C          5.3280   -0.0340    1.9870 C.3     1  UNL1        0.0870
      4  O          4.0650    1.8840    1.6720 O.2     1  UNL1       -0.3000
      5  C          7.0810    1.2530   -0.0440 C.3     1  UNL1        0.0430
      6  C          7.4470    0.0030   -0.7320 C.2     1  UNL1       -0.0440
      7  C          7.4260   -0.1000   -2.1280 C.2     1  UNL1        0.0080
      8  C          7.8230   -1.0970    0.0050 C.2     1  UNL1        0.0540
      9  C          7.7810   -1.2990   -2.7190 C.2     1  UNL1        0.0510
     10  C          8.1820   -2.3070   -0.5960 C.2     1  UNL1        0.1660
     11  C          8.1600   -2.4090   -1.9700 C.2     1  UNL1        0.1650
     12  O          8.5850   -3.5240   -0.0910 O.2     1  UNL1       -0.4540
     13  O          8.5560   -3.7000   -2.2820 O.2     1  UNL1       -0.4540
     14  C          8.9220   -4.4130   -1.1250 C.3     1  UNL1        0.4680
@<TRIPOS>BOND
     1     9     7    1
     2     9    11    2
     3    13    11    1
     4    13    14    1
     5     7     6    2
     6    11    10    1
     7    14    12    1
     8     6     5    1
     9     6     8    1
    10    10    12    1
    11    10     8    2
    12     1     5    1
    13     1     2    1
    14     2     4    2
    15     2     3    1
