@<TRIPOS>MOLECULE
/home/cewinharhar/GITHUB/reincatalyze/data/processed/docking_pred/2023-May-24-1506_sub9_nm5_bs15_s42_ex16_mel10_mts10000_k50_ec02_g099_lra3e-4_lrc3e-3/dba3942d2f0306a5a819952336ad453bb769fd78_ligand_9.pdbqt
 14 15 0 0 0
SMALL
GASTEIGER

@<TRIPOS>ATOM
      1  C          6.3890    1.1610    0.9700 C.3     1  UNL1        0.0800
      2  C          5.6750    0.3240    1.9750 C.2     1  UNL1        0.1300
      3  C          6.3040   -0.8820    2.5750 C.3     1  UNL1        0.0870
      4  O          4.5440    0.6080    2.3360 O.2     1  UNL1       -0.3000
      5  C          5.8750    0.8960   -0.4320 C.3     1  UNL1        0.0430
      6  C          6.8160    0.0750   -1.2130 C.2     1  UNL1       -0.0440
      7  C          7.4800    0.5880   -2.3340 C.2     1  UNL1        0.0080
      8  C          7.0590   -1.2270   -0.8400 C.2     1  UNL1        0.0540
      9  C          8.3530   -0.2290   -3.0290 C.2     1  UNL1        0.0510
     10  C          7.9430   -2.0490   -1.5450 C.2     1  UNL1        0.1660
     11  C          8.5960   -1.5450   -2.6490 C.2     1  UNL1        0.1650
     12  O          8.3470   -3.3560   -1.3780 O.2     1  UNL1       -0.4540
     13  O          9.3960   -2.5650   -3.1410 O.2     1  UNL1       -0.4540
     14  C          9.3380   -3.7010   -2.3120 C.3     1  UNL1        0.4680
@<TRIPOS>BOND
     1    13    11    1
     2    13    14    1
     3     9    11    2
     4     9     7    1
     5    11    10    1
     6     7     6    2
     7    14    12    1
     8    10    12    1
     9    10     8    2
    10     6     8    1
    11     6     5    1
    12     5     1    1
    13     1     2    1
    14     2     4    2
    15     2     3    1
