MODEL 1
REMARK VINA RESULT:      -7.6      0.000      0.000
REMARK SMILES CC(=O)CCc1ccc2c(c1)OCO2
REMARK SMILES IDX 4 1 2 2 1 3 3 4 5 5 6 6 7 7 11 8 8 9 10 10 9 11 12 12 14 13
REMARK SMILES IDX 13 14
REMARK H PARENT
REMARK Flexibility Score: inf
ROOT
ATOM      1  C   UNL     1       5.541   1.900   1.260  1.00  0.00     0.080 C 
ENDROOT
BRANCH   1   2
ATOM      2  C   UNL     1       5.089   0.690   2.002  1.00  0.00     0.130 C 
ATOM      3  C   UNL     1       5.972  -0.494   2.178  1.00  0.00     0.087 C 
ATOM      4  O   UNL     1       3.972   0.635   2.491  1.00  0.00    -0.300 OA
ENDBRANCH   1   2
BRANCH   1   5
ATOM      5  C   UNL     1       5.408   1.709  -0.238  1.00  0.00     0.043 C 
BRANCH   5   6
ATOM      6  C   UNL     1       6.574   1.007  -0.804  1.00  0.00    -0.044 A 
ATOM      7  C   UNL     1       7.881   1.447  -0.567  1.00  0.00     0.008 A 
ATOM      8  C   UNL     1       6.384  -0.110  -1.586  1.00  0.00     0.054 A 
ATOM      9  C   UNL     1       8.936   0.748  -1.124  1.00  0.00     0.051 A 
ATOM     10  C   UNL     1       7.454  -0.814  -2.146  1.00  0.00     0.166 A 
ATOM     11  C   UNL     1       8.740  -0.381  -1.914  1.00  0.00     0.165 A 
ATOM     12  O   UNL     1       7.525  -1.934  -2.946  1.00  0.00    -0.454 OA
ATOM     13  O   UNL     1       9.584  -1.255  -2.582  1.00  0.00    -0.454 OA
ATOM     14  C   UNL     1       8.860  -2.307  -3.174  1.00  0.00     0.468 C 
ENDBRANCH   5   6
ENDBRANCH   1   5
TORSDOF 3
ENDMDL
MODEL 2
REMARK VINA RESULT:      -7.2      1.786      2.179
REMARK SMILES CC(=O)CCc1ccc2c(c1)OCO2
REMARK SMILES IDX 4 1 2 2 1 3 3 4 5 5 6 6 7 7 11 8 8 9 10 10 9 11 12 12 14 13
REMARK SMILES IDX 13 14
REMARK H PARENT
REMARK Flexibility Score: inf
ROOT
ATOM      1  C   UNL     1       5.587   1.504  -0.093  1.00  0.00     0.080 C 
ENDROOT
BRANCH   1   2
ATOM      2  C   UNL     1       4.940   1.172   1.207  1.00  0.00     0.130 C 
ATOM      3  C   UNL     1       5.328  -0.034   1.987  1.00  0.00     0.087 C 
ATOM      4  O   UNL     1       4.065   1.884   1.672  1.00  0.00    -0.300 OA
ENDBRANCH   1   2
BRANCH   1   5
ATOM      5  C   UNL     1       7.081   1.253  -0.044  1.00  0.00     0.043 C 
BRANCH   5   6
ATOM      6  C   UNL     1       7.447   0.003  -0.732  1.00  0.00    -0.044 A 
ATOM      7  C   UNL     1       7.426  -0.100  -2.128  1.00  0.00     0.008 A 
ATOM      8  C   UNL     1       7.823  -1.097   0.005  1.00  0.00     0.054 A 
ATOM      9  C   UNL     1       7.781  -1.299  -2.719  1.00  0.00     0.051 A 
ATOM     10  C   UNL     1       8.182  -2.307  -0.596  1.00  0.00     0.166 A 
ATOM     11  C   UNL     1       8.160  -2.409  -1.970  1.00  0.00     0.165 A 
ATOM     12  O   UNL     1       8.585  -3.524  -0.091  1.00  0.00    -0.454 OA
ATOM     13  O   UNL     1       8.556  -3.700  -2.282  1.00  0.00    -0.454 OA
ATOM     14  C   UNL     1       8.922  -4.413  -1.125  1.00  0.00     0.468 C 
ENDBRANCH   5   6
ENDBRANCH   1   5
TORSDOF 3
ENDMDL
MODEL 3
REMARK VINA RESULT:      -7.2      2.027      2.581
REMARK SMILES CC(=O)CCc1ccc2c(c1)OCO2
REMARK SMILES IDX 4 1 2 2 1 3 3 4 5 5 6 6 7 7 11 8 8 9 10 10 9 11 12 12 14 13
REMARK SMILES IDX 13 14
REMARK H PARENT
REMARK Flexibility Score: inf
ROOT
ATOM      1  C   UNL     1       5.476  -0.009   2.037  1.00  0.00     0.080 C 
ENDROOT
BRANCH   1   2
ATOM      2  C   UNL     1       4.583   1.151   1.762  1.00  0.00     0.130 C 
ATOM      3  C   UNL     1       4.884   2.130   0.684  1.00  0.00     0.087 C 
ATOM      4  O   UNL     1       3.572   1.333   2.421  1.00  0.00    -0.300 OA
ENDBRANCH   1   2
BRANCH   1   5
ATOM      5  C   UNL     1       6.891   0.262   1.567  1.00  0.00     0.043 C 
BRANCH   5   6
ATOM      6  C   UNL     1       7.303  -0.672   0.504  1.00  0.00    -0.044 A 
ATOM      7  C   UNL     1       7.167  -0.346  -0.851  1.00  0.00     0.008 A 
ATOM      8  C   UNL     1       7.837  -1.895   0.839  1.00  0.00     0.054 A 
ATOM      9  C   UNL     1       7.571  -1.263  -1.805  1.00  0.00     0.051 A 
ATOM     10  C   UNL     1       8.245  -2.818  -0.129  1.00  0.00     0.166 A 
ATOM     11  C   UNL     1       8.110  -2.499  -1.462  1.00  0.00     0.165 A 
ATOM     12  O   UNL     1       8.795  -4.079  -0.052  1.00  0.00    -0.454 OA
ATOM     13  O   UNL     1       8.587  -3.582  -2.183  1.00  0.00    -0.454 OA
ATOM     14  C   UNL     1       9.115  -4.569  -1.329  1.00  0.00     0.468 C 
ENDBRANCH   5   6
ENDBRANCH   1   5
TORSDOF 3
ENDMDL
MODEL 4
REMARK VINA RESULT:      -7.1      1.260      1.464
REMARK SMILES CC(=O)CCc1ccc2c(c1)OCO2
REMARK SMILES IDX 4 1 2 2 1 3 3 4 5 5 6 6 7 7 11 8 8 9 10 10 9 11 12 12 14 13
REMARK SMILES IDX 13 14
REMARK H PARENT
REMARK Flexibility Score: inf
ROOT
ATOM      1  C   UNL     1       6.389   1.161   0.970  1.00  0.00     0.080 C 
ENDROOT
BRANCH   1   2
ATOM      2  C   UNL     1       5.675   0.324   1.975  1.00  0.00     0.130 C 
ATOM      3  C   UNL     1       6.304  -0.882   2.575  1.00  0.00     0.087 C 
ATOM      4  O   UNL     1       4.544   0.608   2.336  1.00  0.00    -0.300 OA
ENDBRANCH   1   2
BRANCH   1   5
ATOM      5  C   UNL     1       5.875   0.896  -0.432  1.00  0.00     0.043 C 
BRANCH   5   6
ATOM      6  C   UNL     1       6.816   0.075  -1.213  1.00  0.00    -0.044 A 
ATOM      7  C   UNL     1       7.480   0.588  -2.334  1.00  0.00     0.008 A 
ATOM      8  C   UNL     1       7.059  -1.227  -0.840  1.00  0.00     0.054 A 
ATOM      9  C   UNL     1       8.353  -0.229  -3.029  1.00  0.00     0.051 A 
ATOM     10  C   UNL     1       7.943  -2.049  -1.545  1.00  0.00     0.166 A 
ATOM     11  C   UNL     1       8.596  -1.545  -2.649  1.00  0.00     0.165 A 
ATOM     12  O   UNL     1       8.347  -3.356  -1.378  1.00  0.00    -0.454 OA
ATOM     13  O   UNL     1       9.396  -2.565  -3.141  1.00  0.00    -0.454 OA
ATOM     14  C   UNL     1       9.338  -3.701  -2.312  1.00  0.00     0.468 C 
ENDBRANCH   5   6
ENDBRANCH   1   5
TORSDOF 3
ENDMDL
MODEL 5
REMARK VINA RESULT:      -7.0      1.982      2.546
REMARK SMILES CC(=O)CCc1ccc2c(c1)OCO2
REMARK SMILES IDX 4 1 2 2 1 3 3 4 5 5 6 6 7 7 11 8 8 9 10 10 9 11 12 12 14 13
REMARK SMILES IDX 13 14
REMARK H PARENT
REMARK Flexibility Score: inf
ROOT
ATOM      1  C   UNL     1       6.797   0.682   1.365  1.00  0.00     0.080 C 
ENDROOT
BRANCH   1   2
ATOM      2  C   UNL     1       5.368   1.072   1.514  1.00  0.00     0.130 C 
ATOM      3  C   UNL     1       4.763   2.150   0.686  1.00  0.00     0.087 C 
ATOM      4  O   UNL     1       4.647   0.516   2.327  1.00  0.00    -0.300 OA
ENDBRANCH   1   2
BRANCH   1   5
ATOM      5  C   UNL     1       7.285   0.909  -0.052  1.00  0.00     0.043 C 
BRANCH   5   6
ATOM      6  C   UNL     1       7.637  -0.358  -0.719  1.00  0.00    -0.044 A 
ATOM      7  C   UNL     1       7.652  -0.472  -2.114  1.00  0.00     0.008 A 
ATOM      8  C   UNL     1       7.961  -1.460   0.039  1.00  0.00     0.054 A 
ATOM      9  C   UNL     1       7.991  -1.686  -2.684  1.00  0.00     0.051 A 
ATOM     10  C   UNL     1       8.303  -2.685  -0.543  1.00  0.00     0.166 A 
ATOM     11  C   UNL     1       8.318  -2.799  -1.915  1.00  0.00     0.165 A 
ATOM     12  O   UNL     1       8.659  -3.908  -0.016  1.00  0.00    -0.454 OA
ATOM     13  O   UNL     1       8.686  -4.103  -2.205  1.00  0.00    -0.454 OA
ATOM     14  C   UNL     1       9.000  -4.815  -1.032  1.00  0.00     0.468 C 
ENDBRANCH   5   6
ENDBRANCH   1   5
TORSDOF 3
ENDMDL
