@<TRIPOS>MOLECULE
/home/cewinharhar/GITHUB/reincatalyze/data/processed/docking_pred/2023-May-24-1506_sub9_nm5_bs15_s42_ex16_mel10_mts10000_k50_ec02_g099_lra3e-4_lrc3e-3/dba3942d2f0306a5a819952336ad453bb769fd78_ligand_9.pdbqt
 14 15 0 0 0
SMALL
GASTEIGER

@<TRIPOS>ATOM
      1  C          5.5410    1.9000    1.2600 C.3     1  UNL1        0.0800
      2  C          5.0890    0.6900    2.0020 C.2     1  UNL1        0.1300
      3  C          5.9720   -0.4940    2.1780 C.3     1  UNL1        0.0870
      4  O          3.9720    0.6350    2.4910 O.2     1  UNL1       -0.3000
      5  C          5.4080    1.7090   -0.2380 C.3     1  UNL1        0.0430
      6  C          6.5740    1.0070   -0.8040 C.2     1  UNL1       -0.0440
      7  C          7.8810    1.4470   -0.5670 C.2     1  UNL1        0.0080
      8  C          6.3840   -0.1100   -1.5860 C.2     1  UNL1        0.0540
      9  C          8.9360    0.7480   -1.1240 C.2     1  UNL1        0.0510
     10  C          7.4540   -0.8140   -2.1460 C.2     1  UNL1        0.1660
     11  C          8.7400   -0.3810   -1.9140 C.2     1  UNL1        0.1650
     12  O          7.5250   -1.9340   -2.9460 O.2     1  UNL1       -0.4540
     13  O          9.5840   -1.2550   -2.5820 O.2     1  UNL1       -0.4540
     14  C          8.8600   -2.3070   -3.1740 C.3     1  UNL1        0.4680
@<TRIPOS>BOND
     1    14    12    1
     2    14    13    1
     3    12    10    1
     4    13    11    1
     5    10    11    2
     6    10     8    1
     7    11     9    1
     8     8     6    2
     9     9     7    2
    10     6     7    1
    11     6     5    1
    12     5     1    1
    13     1     2    1
    14     2     3    1
    15     2     4    2
