@<TRIPOS>MOLECULE
/home/cewinharhar/GITHUB/reincatalyze/data/processed/docking_pred/2023-May-24-1506_sub9_nm5_bs15_s42_ex16_mel10_mts10000_k50_ec02_g099_lra3e-4_lrc3e-3/dba3942d2f0306a5a819952336ad453bb769fd78_ligand_9.pdbqt
 14 15 0 0 0
SMALL
GASTEIGER

@<TRIPOS>ATOM
      1  C          5.4760   -0.0090    2.0370 C.3     1  UNL1        0.0800
      2  C          4.5830    1.1510    1.7620 C.2     1  UNL1        0.1300
      3  C          4.8840    2.1300    0.6840 C.3     1  UNL1        0.0870
      4  O          3.5720    1.3330    2.4210 O.2     1  UNL1       -0.3000
      5  C          6.8910    0.2620    1.5670 C.3     1  UNL1        0.0430
      6  C          7.3030   -0.6720    0.5040 C.2     1  UNL1       -0.0440
      7  C          7.1670   -0.3460   -0.8510 C.2     1  UNL1        0.0080
      8  C          7.8370   -1.8950    0.8390 C.2     1  UNL1        0.0540
      9  C          7.5710   -1.2630   -1.8050 C.2     1  UNL1        0.0510
     10  C          8.2450   -2.8180   -0.1290 C.2     1  UNL1        0.1660
     11  C          8.1100   -2.4990   -1.4620 C.2     1  UNL1        0.1650
     12  O          8.7950   -4.0790   -0.0520 O.2     1  UNL1       -0.4540
     13  O          8.5870   -3.5820   -2.1830 O.2     1  UNL1       -0.4540
     14  C          9.1150   -4.5690   -1.3290 C.3     1  UNL1        0.4680
@<TRIPOS>BOND
     1    13    11    1
     2    13    14    1
     3     9    11    2
     4     9     7    1
     5    11    10    1
     6    14    12    1
     7     7     6    2
     8    10    12    1
     9    10     8    2
    10     6     8    1
    11     6     5    1
    12     3     2    1
    13     5     1    1
    14     2     1    1
    15     2     4    2
