@<TRIPOS>MOLECULE
/home/cewinharhar/GITHUB/reincatalyze/data/processed/docking_pred/2023-May-24-1506_sub9_nm5_bs15_s42_ex16_mel10_mts10000_k50_ec02_g099_lra3e-4_lrc3e-3/dba3942d2f0306a5a819952336ad453bb769fd78_ligand_9.pdbqt
 14 15 0 0 0
SMALL
GASTEIGER

@<TRIPOS>ATOM
      1  C          6.7970    0.6820    1.3650 C.3     1  UNL1        0.0800
      2  C          5.3680    1.0720    1.5140 C.2     1  UNL1        0.1300
      3  C          4.7630    2.1500    0.6860 C.3     1  UNL1        0.0870
      4  O          4.6470    0.5160    2.3270 O.2     1  UNL1       -0.3000
      5  C          7.2850    0.9090   -0.0520 C.3     1  UNL1        0.0430
      6  C          7.6370   -0.3580   -0.7190 C.2     1  UNL1       -0.0440
      7  C          7.6520   -0.4720   -2.1140 C.2     1  UNL1        0.0080
      8  C          7.9610   -1.4600    0.0390 C.2     1  UNL1        0.0540
      9  C          7.9910   -1.6860   -2.6840 C.2     1  UNL1        0.0510
     10  C          8.3030   -2.6850   -0.5430 C.2     1  UNL1        0.1660
     11  C          8.3180   -2.7990   -1.9150 C.2     1  UNL1        0.1650
     12  O          8.6590   -3.9080   -0.0160 O.2     1  UNL1       -0.4540
     13  O          8.6860   -4.1030   -2.2050 O.2     1  UNL1       -0.4540
     14  C          9.0000   -4.8150   -1.0320 C.3     1  UNL1        0.4680
@<TRIPOS>BOND
     1     9     7    1
     2     9    11    2
     3    13    11    1
     4    13    14    1
     5     7     6    2
     6    11    10    1
     7    14    12    1
     8     6     5    1
     9     6     8    1
    10    10    12    1
    11    10     8    2
    12     5     1    1
    13     3     2    1
    14     1     2    1
    15     2     4    2
