@<TRIPOS>MOLECULE
/home/cewinharhar/GITHUB/reincatalyze/data/processed/docking_pred/2023-May-24-1506_sub9_nm5_bs15_s42_ex16_mel10_mts10000_k50_ec02_g099_lra3e-4_lrc3e-3/dcb3b3821b230acb752c106843a0b7e907fda2aa_ligand_9.pdbqt
 14 15 0 0 0
SMALL
GASTEIGER

@<TRIPOS>ATOM
      1  C          6.4820    0.4280   -0.8350 C.3     1  UNL1        0.0800
      2  C          7.0990   -0.3850   -1.9200 C.2     1  UNL1        0.1300
      3  C          8.2320    0.1310   -2.7340 C.3     1  UNL1        0.0870
      4  O          6.6900   -1.5070   -2.1730 O.2     1  UNL1       -0.3000
      5  C          6.7360   -0.1870    0.5270 C.3     1  UNL1        0.0430
      6  C          7.9290    0.3890    1.1720 C.2     1  UNL1       -0.0440
      7  C          7.8730    1.6010    1.8690 C.2     1  UNL1        0.0080
      8  C          9.1320   -0.2750    1.0970 C.2     1  UNL1        0.0540
      9  C          9.0250    2.0920    2.4550 C.2     1  UNL1        0.0510
     10  C         10.2940    0.2250    1.6920 C.2     1  UNL1        0.1660
     11  C         10.2400    1.4190    2.3760 C.2     1  UNL1        0.1650
     12  O         11.5910   -0.2380    1.7570 O.2     1  UNL1       -0.4540
     13  O         11.5180    1.6660    2.8530 O.2     1  UNL1       -0.4540
     14  C         12.3850    0.5960    2.5610 C.3     1  UNL1        0.4680
@<TRIPOS>BOND
     1     3     2    1
     2     4     2    2
     3     2     1    1
     4     1     5    1
     5     5     6    1
     6     8     6    2
     7     8    10    1
     8     6     7    1
     9    10    12    1
    10    10    11    2
    11    12    14    1
    12     7     9    2
    13    11     9    1
    14    11    13    1
    15    14    13    1
