MODEL 1
REMARK VINA RESULT:      -7.6      0.000      0.000
REMARK SMILES CC(=O)CCc1ccc2c(c1)OCO2
REMARK SMILES IDX 4 1 2 2 1 3 3 4 5 5 6 6 7 7 11 8 8 9 10 10 9 11 12 12 14 13
REMARK SMILES IDX 13 14
REMARK H PARENT
REMARK Flexibility Score: inf
ROOT
ATOM      1  C   UNL     1       5.562   1.906   1.288  1.00  0.00     0.080 C 
ENDROOT
BRANCH   1   2
ATOM      2  C   UNL     1       5.131   0.684   2.022  1.00  0.00     0.130 C 
ATOM      3  C   UNL     1       6.038  -0.482   2.197  1.00  0.00     0.087 C 
ATOM      4  O   UNL     1       4.013   0.603   2.503  1.00  0.00    -0.300 OA
ENDBRANCH   1   2
BRANCH   1   5
ATOM      5  C   UNL     1       5.426   1.725  -0.211  1.00  0.00     0.043 C 
BRANCH   5   6
ATOM      6  C   UNL     1       6.588   1.021  -0.784  1.00  0.00    -0.044 A 
ATOM      7  C   UNL     1       7.898   1.450  -0.540  1.00  0.00     0.008 A 
ATOM      8  C   UNL     1       6.392  -0.087  -1.576  1.00  0.00     0.054 A 
ATOM      9  C   UNL     1       8.949   0.750  -1.103  1.00  0.00     0.051 A 
ATOM     10  C   UNL     1       7.458  -0.791  -2.143  1.00  0.00     0.166 A 
ATOM     11  C   UNL     1       8.747  -0.369  -1.905  1.00  0.00     0.165 A 
ATOM     12  O   UNL     1       7.523  -1.904  -2.954  1.00  0.00    -0.454 OA
ATOM     13  O   UNL     1       9.586  -1.242  -2.580  1.00  0.00    -0.454 OA
ATOM     14  C   UNL     1       8.856  -2.283  -3.184  1.00  0.00     0.468 C 
ENDBRANCH   5   6
ENDBRANCH   1   5
TORSDOF 3
ENDMDL
MODEL 2
REMARK VINA RESULT:      -7.4      1.938      2.425
REMARK SMILES CC(=O)CCc1ccc2c(c1)OCO2
REMARK SMILES IDX 4 1 2 2 1 3 3 4 5 5 6 6 7 7 11 8 8 9 10 10 9 11 12 12 14 13
REMARK SMILES IDX 13 14
REMARK H PARENT
REMARK Flexibility Score: inf
ROOT
ATOM      1  C   UNL     1       5.738   1.295  -0.335  1.00  0.00     0.080 C 
ENDROOT
BRANCH   1   2
ATOM      2  C   UNL     1       5.142   1.237   1.029  1.00  0.00     0.130 C 
ATOM      3  C   UNL     1       5.365   0.074   1.930  1.00  0.00     0.087 C 
ATOM      4  O   UNL     1       4.449   2.149   1.449  1.00  0.00    -0.300 OA
ENDBRANCH   1   2
BRANCH   1   5
ATOM      5  C   UNL     1       7.234   1.052  -0.293  1.00  0.00     0.043 C 
BRANCH   5   6
ATOM      6  C   UNL     1       7.594  -0.244  -0.895  1.00  0.00    -0.044 A 
ATOM      7  C   UNL     1       7.635  -0.422  -2.282  1.00  0.00     0.008 A 
ATOM      8  C   UNL     1       7.902  -1.311  -0.082  1.00  0.00     0.054 A 
ATOM      9  C   UNL     1       7.981  -1.661  -2.790  1.00  0.00     0.051 A 
ATOM     10  C   UNL     1       8.252  -2.562  -0.600  1.00  0.00     0.166 A 
ATOM     11  C   UNL     1       8.291  -2.738  -1.965  1.00  0.00     0.165 A 
ATOM     12  O   UNL     1       8.595  -3.760  -0.011  1.00  0.00    -0.454 OA
ATOM     13  O   UNL     1       8.662  -4.055  -2.189  1.00  0.00    -0.454 OA
ATOM     14  C   UNL     1       8.953  -4.713  -0.979  1.00  0.00     0.468 C 
ENDBRANCH   5   6
ENDBRANCH   1   5
TORSDOF 3
ENDMDL
MODEL 3
REMARK VINA RESULT:      -7.2      2.080      2.618
REMARK SMILES CC(=O)CCc1ccc2c(c1)OCO2
REMARK SMILES IDX 4 1 2 2 1 3 3 4 5 5 6 6 7 7 11 8 8 9 10 10 9 11 12 12 14 13
REMARK SMILES IDX 13 14
REMARK H PARENT
REMARK Flexibility Score: inf
ROOT
ATOM      1  C   UNL     1       5.512  -0.007   1.948  1.00  0.00     0.080 C 
ENDROOT
BRANCH   1   2
ATOM      2  C   UNL     1       4.644   1.167   1.650  1.00  0.00     0.130 C 
ATOM      3  C   UNL     1       4.957   2.107   0.540  1.00  0.00     0.087 C 
ATOM      4  O   UNL     1       3.645   1.392   2.313  1.00  0.00    -0.300 OA
ENDBRANCH   1   2
BRANCH   1   5
ATOM      5  C   UNL     1       6.942   0.240   1.510  1.00  0.00     0.043 C 
BRANCH   5   6
ATOM      6  C   UNL     1       7.364  -0.708   0.463  1.00  0.00    -0.044 A 
ATOM      7  C   UNL     1       7.290  -0.381  -0.896  1.00  0.00     0.008 A 
ATOM      8  C   UNL     1       7.847  -1.947   0.819  1.00  0.00     0.054 A 
ATOM      9  C   UNL     1       7.701  -1.311  -1.833  1.00  0.00     0.051 A 
ATOM     10  C   UNL     1       8.262  -2.883  -0.132  1.00  0.00     0.166 A 
ATOM     11  C   UNL     1       8.188  -2.562  -1.470  1.00  0.00     0.165 A 
ATOM     12  O   UNL     1       8.770  -4.161  -0.034  1.00  0.00    -0.454 OA
ATOM     13  O   UNL     1       8.658  -3.661  -2.172  1.00  0.00    -0.454 OA
ATOM     14  C   UNL     1       9.123  -4.662  -1.298  1.00  0.00     0.468 C 
ENDBRANCH   5   6
ENDBRANCH   1   5
TORSDOF 3
ENDMDL
MODEL 4
REMARK VINA RESULT:      -7.1      1.248      1.456
REMARK SMILES CC(=O)CCc1ccc2c(c1)OCO2
REMARK SMILES IDX 4 1 2 2 1 3 3 4 5 5 6 6 7 7 11 8 8 9 10 10 9 11 12 12 14 13
REMARK SMILES IDX 13 14
REMARK H PARENT
REMARK Flexibility Score: inf
ROOT
ATOM      1  C   UNL     1       6.400   1.188   0.952  1.00  0.00     0.080 C 
ENDROOT
BRANCH   1   2
ATOM      2  C   UNL     1       5.657   0.356   1.939  1.00  0.00     0.130 C 
ATOM      3  C   UNL     1       6.245  -0.883   2.515  1.00  0.00     0.087 C 
ATOM      4  O   UNL     1       4.536   0.669   2.306  1.00  0.00    -0.300 OA
ENDBRANCH   1   2
BRANCH   1   5
ATOM      5  C   UNL     1       5.897   0.949  -0.458  1.00  0.00     0.043 C 
BRANCH   5   6
ATOM      6  C   UNL     1       6.831   0.116  -1.237  1.00  0.00    -0.044 A 
ATOM      7  C   UNL     1       7.510   0.622  -2.351  1.00  0.00     0.008 A 
ATOM      8  C   UNL     1       7.049  -1.192  -0.868  1.00  0.00     0.054 A 
ATOM      9  C   UNL     1       8.375  -0.206  -3.043  1.00  0.00     0.051 A 
ATOM     10  C   UNL     1       7.924  -2.025  -1.571  1.00  0.00     0.166 A 
ATOM     11  C   UNL     1       8.593  -1.528  -2.668  1.00  0.00     0.165 A 
ATOM     12  O   UNL     1       8.305  -3.340  -1.407  1.00  0.00    -0.454 OA
ATOM     13  O   UNL     1       9.379  -2.558  -3.159  1.00  0.00    -0.454 OA
ATOM     14  C   UNL     1       9.296  -3.697  -2.336  1.00  0.00     0.468 C 
ENDBRANCH   5   6
ENDBRANCH   1   5
TORSDOF 3
ENDMDL
MODEL 5
REMARK VINA RESULT:      -7.0      2.024      2.684
REMARK SMILES CC(=O)CCc1ccc2c(c1)OCO2
REMARK SMILES IDX 4 1 2 2 1 3 3 4 5 5 6 6 7 7 11 8 8 9 10 10 9 11 12 12 14 13
REMARK SMILES IDX 13 14
REMARK H PARENT
REMARK Flexibility Score: inf
ROOT
ATOM      1  C   UNL     1       6.421   0.800   1.107  1.00  0.00     0.080 C 
ENDROOT
BRANCH   1   2
ATOM      2  C   UNL     1       5.223   1.615   0.765  1.00  0.00     0.130 C 
ATOM      3  C   UNL     1       5.005   2.146  -0.608  1.00  0.00     0.087 C 
ATOM      4  O   UNL     1       4.379   1.874   1.608  1.00  0.00    -0.300 OA
ENDBRANCH   1   2
BRANCH   1   5
ATOM      5  C   UNL     1       7.509   0.956   0.063  1.00  0.00     0.043 C 
BRANCH   5   6
ATOM      6  C   UNL     1       7.794  -0.316  -0.624  1.00  0.00    -0.044 A 
ATOM      7  C   UNL     1       7.741  -0.424  -2.019  1.00  0.00     0.008 A 
ATOM      8  C   UNL     1       8.124  -1.431   0.113  1.00  0.00     0.054 A 
ATOM      9  C   UNL     1       8.018  -1.644  -2.609  1.00  0.00     0.051 A 
ATOM     10  C   UNL     1       8.404  -2.662  -0.489  1.00  0.00     0.166 A 
ATOM     11  C   UNL     1       8.351  -2.769  -1.860  1.00  0.00     0.165 A 
ATOM     12  O   UNL     1       8.750  -3.897   0.016  1.00  0.00    -0.454 OA
ATOM     13  O   UNL     1       8.670  -4.081  -2.173  1.00  0.00    -0.454 OA
ATOM     14  C   UNL     1       9.018  -4.808  -1.019  1.00  0.00     0.468 C 
ENDBRANCH   5   6
ENDBRANCH   1   5
TORSDOF 3
ENDMDL
