@<TRIPOS>MOLECULE
/home/cewinharhar/GITHUB/reincatalyze/data/processed/docking_pred/2023-May-24-1506_sub9_nm5_bs15_s42_ex16_mel10_mts10000_k50_ec02_g099_lra3e-4_lrc3e-3/dcca543849eb83a4cf97fda16a0578d2b97a91da_ligand_9.pdbqt
 14 15 0 0 0
SMALL
GASTEIGER

@<TRIPOS>ATOM
      1  C          5.5120   -0.0070    1.9480 C.3     1  UNL1        0.0800
      2  C          4.6440    1.1670    1.6500 C.2     1  UNL1        0.1300
      3  C          4.9570    2.1070    0.5400 C.3     1  UNL1        0.0870
      4  O          3.6450    1.3920    2.3130 O.2     1  UNL1       -0.3000
      5  C          6.9420    0.2400    1.5100 C.3     1  UNL1        0.0430
      6  C          7.3640   -0.7080    0.4630 C.2     1  UNL1       -0.0440
      7  C          7.2900   -0.3810   -0.8960 C.2     1  UNL1        0.0080
      8  C          7.8470   -1.9470    0.8190 C.2     1  UNL1        0.0540
      9  C          7.7010   -1.3110   -1.8330 C.2     1  UNL1        0.0510
     10  C          8.2620   -2.8830   -0.1320 C.2     1  UNL1        0.1660
     11  C          8.1880   -2.5620   -1.4700 C.2     1  UNL1        0.1650
     12  O          8.7700   -4.1610   -0.0340 O.2     1  UNL1       -0.4540
     13  O          8.6580   -3.6610   -2.1720 O.2     1  UNL1       -0.4540
     14  C          9.1230   -4.6620   -1.2980 C.3     1  UNL1        0.4680
@<TRIPOS>BOND
     1    13    11    1
     2    13    14    1
     3     9    11    2
     4     9     7    1
     5    11    10    1
     6    14    12    1
     7     7     6    2
     8    10    12    1
     9    10     8    2
    10     6     8    1
    11     6     5    1
    12     3     2    1
    13     5     1    1
    14     2     1    1
    15     2     4    2
