@<TRIPOS>MOLECULE
/home/cewinharhar/GITHUB/reincatalyze/data/processed/docking_pred/2023-May-24-1506_sub9_nm5_bs15_s42_ex16_mel10_mts10000_k50_ec02_g099_lra3e-4_lrc3e-3/dcca543849eb83a4cf97fda16a0578d2b97a91da_ligand_9.pdbqt
 14 15 0 0 0
SMALL
GASTEIGER

@<TRIPOS>ATOM
      1  C          5.7380    1.2950   -0.3350 C.3     1  UNL1        0.0800
      2  C          5.1420    1.2370    1.0290 C.2     1  UNL1        0.1300
      3  C          5.3650    0.0740    1.9300 C.3     1  UNL1        0.0870
      4  O          4.4490    2.1490    1.4490 O.2     1  UNL1       -0.3000
      5  C          7.2340    1.0520   -0.2930 C.3     1  UNL1        0.0430
      6  C          7.5940   -0.2440   -0.8950 C.2     1  UNL1       -0.0440
      7  C          7.6350   -0.4220   -2.2820 C.2     1  UNL1        0.0080
      8  C          7.9020   -1.3110   -0.0820 C.2     1  UNL1        0.0540
      9  C          7.9810   -1.6610   -2.7900 C.2     1  UNL1        0.0510
     10  C          8.2520   -2.5620   -0.6000 C.2     1  UNL1        0.1660
     11  C          8.2910   -2.7380   -1.9650 C.2     1  UNL1        0.1650
     12  O          8.5950   -3.7600   -0.0110 O.2     1  UNL1       -0.4540
     13  O          8.6620   -4.0550   -2.1890 O.2     1  UNL1       -0.4540
     14  C          8.9530   -4.7130   -0.9790 C.3     1  UNL1        0.4680
@<TRIPOS>BOND
     1     9     7    1
     2     9    11    2
     3     7     6    2
     4    13    11    1
     5    13    14    1
     6    11    10    1
     7    14    12    1
     8     6     5    1
     9     6     8    1
    10    10     8    2
    11    10    12    1
    12     1     5    1
    13     1     2    1
    14     2     4    2
    15     2     3    1
