@<TRIPOS>MOLECULE
/home/cewinharhar/GITHUB/reincatalyze/data/processed/docking_pred/2023-May-24-1506_sub9_nm5_bs15_s42_ex16_mel10_mts10000_k50_ec02_g099_lra3e-4_lrc3e-3/dcca543849eb83a4cf97fda16a0578d2b97a91da_ligand_9.pdbqt
 14 15 0 0 0
SMALL
GASTEIGER

@<TRIPOS>ATOM
      1  C          6.4210    0.8000    1.1070 C.3     1  UNL1        0.0800
      2  C          5.2230    1.6150    0.7650 C.2     1  UNL1        0.1300
      3  C          5.0050    2.1460   -0.6080 C.3     1  UNL1        0.0870
      4  O          4.3790    1.8740    1.6080 O.2     1  UNL1       -0.3000
      5  C          7.5090    0.9560    0.0630 C.3     1  UNL1        0.0430
      6  C          7.7940   -0.3160   -0.6240 C.2     1  UNL1       -0.0440
      7  C          7.7410   -0.4240   -2.0190 C.2     1  UNL1        0.0080
      8  C          8.1240   -1.4310    0.1130 C.2     1  UNL1        0.0540
      9  C          8.0180   -1.6440   -2.6090 C.2     1  UNL1        0.0510
     10  C          8.4040   -2.6620   -0.4890 C.2     1  UNL1        0.1660
     11  C          8.3510   -2.7690   -1.8600 C.2     1  UNL1        0.1650
     12  O          8.7500   -3.8970    0.0160 O.2     1  UNL1       -0.4540
     13  O          8.6700   -4.0810   -2.1730 O.2     1  UNL1       -0.4540
     14  C          9.0180   -4.8080   -1.0190 C.3     1  UNL1        0.4680
@<TRIPOS>BOND
     1     9     7    1
     2     9    11    2
     3    13    11    1
     4    13    14    1
     5     7     6    2
     6    11    10    1
     7    14    12    1
     8     6     5    1
     9     6     8    1
    10     3     2    1
    11    10    12    1
    12    10     8    2
    13     5     1    1
    14     2     1    1
    15     2     4    2
