@<TRIPOS>MOLECULE
/home/cewinharhar/GITHUB/reincatalyze/data/processed/docking_pred/2023-May-24-1506_sub9_nm5_bs15_s42_ex16_mel10_mts10000_k50_ec02_g099_lra3e-4_lrc3e-3/dcca543849eb83a4cf97fda16a0578d2b97a91da_ligand_9.pdbqt
 14 15 0 0 0
SMALL
GASTEIGER

@<TRIPOS>ATOM
      1  C          6.4000    1.1880    0.9520 C.3     1  UNL1        0.0800
      2  C          5.6570    0.3560    1.9390 C.2     1  UNL1        0.1300
      3  C          6.2450   -0.8830    2.5150 C.3     1  UNL1        0.0870
      4  O          4.5360    0.6690    2.3060 O.2     1  UNL1       -0.3000
      5  C          5.8970    0.9490   -0.4580 C.3     1  UNL1        0.0430
      6  C          6.8310    0.1160   -1.2370 C.2     1  UNL1       -0.0440
      7  C          7.5100    0.6220   -2.3510 C.2     1  UNL1        0.0080
      8  C          7.0490   -1.1920   -0.8680 C.2     1  UNL1        0.0540
      9  C          8.3750   -0.2060   -3.0430 C.2     1  UNL1        0.0510
     10  C          7.9240   -2.0250   -1.5710 C.2     1  UNL1        0.1660
     11  C          8.5930   -1.5280   -2.6680 C.2     1  UNL1        0.1650
     12  O          8.3050   -3.3400   -1.4070 O.2     1  UNL1       -0.4540
     13  O          9.3790   -2.5580   -3.1590 O.2     1  UNL1       -0.4540
     14  C          9.2960   -3.6970   -2.3360 C.3     1  UNL1        0.4680
@<TRIPOS>BOND
     1    13    11    1
     2    13    14    1
     3     9    11    2
     4     9     7    1
     5    11    10    1
     6     7     6    2
     7    14    12    1
     8    10    12    1
     9    10     8    2
    10     6     8    1
    11     6     5    1
    12     5     1    1
    13     1     2    1
    14     2     4    2
    15     2     3    1
