@<TRIPOS>MOLECULE
/home/cewinharhar/GITHUB/reincatalyze/data/processed/docking_pred/2023-May-24-1506_sub9_nm5_bs15_s42_ex16_mel10_mts10000_k50_ec02_g099_lra3e-4_lrc3e-3/dd626561b0241c753f5aa586a778cbbb50e2da15_ligand_9.pdbqt
 14 15 0 0 0
SMALL
GASTEIGER

@<TRIPOS>ATOM
      1  C          5.7380    1.3800   -0.2950 C.3     1  UNL1        0.0800
      2  C          5.0890    1.2820    1.0420 C.2     1  UNL1        0.1300
      3  C          5.3630    0.1450    1.9620 C.3     1  UNL1        0.0870
      4  O          4.3080    2.1380    1.4240 O.2     1  UNL1       -0.3000
      5  C          7.2290    1.1240   -0.2040 C.3     1  UNL1        0.0430
      6  C          7.6020   -0.1620   -0.8200 C.2     1  UNL1       -0.0440
      7  C          7.6750   -0.3160   -2.2090 C.2     1  UNL1        0.0080
      8  C          7.8880   -1.2450   -0.0190 C.2     1  UNL1        0.0540
      9  C          8.0310   -1.5460   -2.7300 C.2     1  UNL1        0.0510
     10  C          8.2480   -2.4870   -0.5510 C.2     1  UNL1        0.1660
     11  C          8.3190   -2.6390   -1.9180 C.2     1  UNL1        0.1650
     12  O          8.5740   -3.6960    0.0240 O.2     1  UNL1       -0.4540
     13  O          8.6930   -3.9520   -2.1560 O.2     1  UNL1       -0.4540
     14  C          8.9530   -4.6330   -0.9520 C.3     1  UNL1        0.4680
@<TRIPOS>BOND
     1     9     7    1
     2     9    11    2
     3     7     6    2
     4    13    11    1
     5    13    14    1
     6    11    10    1
     7    14    12    1
     8     6     5    1
     9     6     8    1
    10    10     8    2
    11    10    12    1
    12     1     5    1
    13     1     2    1
    14     2     4    2
    15     2     3    1
