MODEL 1
REMARK VINA RESULT:      -7.7      0.000      0.000
REMARK SMILES CC(=O)CCc1ccc2c(c1)OCO2
REMARK SMILES IDX 4 1 2 2 1 3 3 4 5 5 6 6 7 7 11 8 8 9 10 10 9 11 12 12 14 13
REMARK SMILES IDX 13 14
REMARK H PARENT
REMARK Flexibility Score: inf
ROOT
ATOM      1  C   UNL     1       5.501   1.924   1.267  1.00  0.00     0.080 C 
ENDROOT
BRANCH   1   2
ATOM      2  C   UNL     1       5.036   0.712   1.997  1.00  0.00     0.130 C 
ATOM      3  C   UNL     1       5.892  -0.498   2.125  1.00  0.00     0.087 C 
ATOM      4  O   UNL     1       3.931   0.676   2.513  1.00  0.00    -0.300 OA
ENDBRANCH   1   2
BRANCH   1   5
ATOM      5  C   UNL     1       5.383   1.743  -0.233  1.00  0.00     0.043 C 
BRANCH   5   6
ATOM      6  C   UNL     1       6.553   1.043  -0.793  1.00  0.00    -0.044 A 
ATOM      7  C   UNL     1       7.859   1.478  -0.538  1.00  0.00     0.008 A 
ATOM      8  C   UNL     1       6.370  -0.068  -1.585  1.00  0.00     0.054 A 
ATOM      9  C   UNL     1       8.918   0.781  -1.090  1.00  0.00     0.051 A 
ATOM     10  C   UNL     1       7.444  -0.770  -2.139  1.00  0.00     0.166 A 
ATOM     11  C   UNL     1       8.729  -0.341  -1.890  1.00  0.00     0.165 A 
ATOM     12  O   UNL     1       7.522  -1.884  -2.947  1.00  0.00    -0.454 OA
ATOM     13  O   UNL     1       9.578  -1.211  -2.556  1.00  0.00    -0.454 OA
ATOM     14  C   UNL     1       8.859  -2.258  -3.164  1.00  0.00     0.468 C 
ENDBRANCH   5   6
ENDBRANCH   1   5
TORSDOF 3
ENDMDL
MODEL 2
REMARK VINA RESULT:      -7.5      1.934      2.394
REMARK SMILES CC(=O)CCc1ccc2c(c1)OCO2
REMARK SMILES IDX 4 1 2 2 1 3 3 4 5 5 6 6 7 7 11 8 8 9 10 10 9 11 12 12 14 13
REMARK SMILES IDX 13 14
REMARK H PARENT
REMARK Flexibility Score: inf
ROOT
ATOM      1  C   UNL     1       5.709   1.352  -0.300  1.00  0.00     0.080 C 
ENDROOT
BRANCH   1   2
ATOM      2  C   UNL     1       5.090   1.267   1.052  1.00  0.00     0.130 C 
ATOM      3  C   UNL     1       5.363   0.125   1.965  1.00  0.00     0.087 C 
ATOM      4  O   UNL     1       4.334   2.139   1.451  1.00  0.00    -0.300 OA
ENDBRANCH   1   2
BRANCH   1   5
ATOM      5  C   UNL     1       7.205   1.114  -0.236  1.00  0.00     0.043 C 
BRANCH   5   6
ATOM      6  C   UNL     1       7.579  -0.177  -0.841  1.00  0.00    -0.044 A 
ATOM      7  C   UNL     1       7.631  -0.349  -2.229  1.00  0.00     0.008 A 
ATOM      8  C   UNL     1       7.889  -1.245  -0.030  1.00  0.00     0.054 A 
ATOM      9  C   UNL     1       7.989  -1.583  -2.739  1.00  0.00     0.051 A 
ATOM     10  C   UNL     1       8.252  -2.491  -0.551  1.00  0.00     0.166 A 
ATOM     11  C   UNL     1       8.302  -2.661  -1.916  1.00  0.00     0.165 A 
ATOM     12  O   UNL     1       8.599  -3.689   0.036  1.00  0.00    -0.454 OA
ATOM     13  O   UNL     1       8.684  -3.974  -2.143  1.00  0.00    -0.454 OA
ATOM     14  C   UNL     1       8.971  -4.636  -0.933  1.00  0.00     0.468 C 
ENDBRANCH   5   6
ENDBRANCH   1   5
TORSDOF 3
ENDMDL
MODEL 3
REMARK VINA RESULT:      -7.3      2.060      2.641
REMARK SMILES CC(=O)CCc1ccc2c(c1)OCO2
REMARK SMILES IDX 4 1 2 2 1 3 3 4 5 5 6 6 7 7 11 8 8 9 10 10 9 11 12 12 14 13
REMARK SMILES IDX 13 14
REMARK H PARENT
REMARK Flexibility Score: inf
ROOT
ATOM      1  C   UNL     1       5.381  -0.094   2.018  1.00  0.00     0.080 C 
ENDROOT
BRANCH   1   2
ATOM      2  C   UNL     1       4.554   1.121   1.776  1.00  0.00     0.130 C 
ATOM      3  C   UNL     1       4.913   2.115   0.730  1.00  0.00     0.087 C 
ATOM      4  O   UNL     1       3.550   1.336   2.435  1.00  0.00    -0.300 OA
ENDBRANCH   1   2
BRANCH   1   5
ATOM      5  C   UNL     1       6.830   0.142   1.639  1.00  0.00     0.043 C 
BRANCH   5   6
ATOM      6  C   UNL     1       7.268  -0.766   0.564  1.00  0.00    -0.044 A 
ATOM      7  C   UNL     1       7.154  -0.414  -0.785  1.00  0.00     0.008 A 
ATOM      8  C   UNL     1       7.807  -1.992   0.885  1.00  0.00     0.054 A 
ATOM      9  C   UNL     1       7.584  -1.307  -1.750  1.00  0.00     0.051 A 
ATOM     10  C   UNL     1       8.240  -2.891  -0.094  1.00  0.00     0.166 A 
ATOM     11  C   UNL     1       8.127  -2.546  -1.423  1.00  0.00     0.165 A 
ATOM     12  O   UNL     1       8.800  -4.149  -0.033  1.00  0.00    -0.454 OA
ATOM     13  O   UNL     1       8.627  -3.610  -2.157  1.00  0.00    -0.454 OA
ATOM     14  C   UNL     1       9.148  -4.609  -1.313  1.00  0.00     0.468 C 
ENDBRANCH   5   6
ENDBRANCH   1   5
TORSDOF 3
ENDMDL
MODEL 4
REMARK VINA RESULT:      -7.1      1.262      1.477
REMARK SMILES CC(=O)CCc1ccc2c(c1)OCO2
REMARK SMILES IDX 4 1 2 2 1 3 3 4 5 5 6 6 7 7 11 8 8 9 10 10 9 11 12 12 14 13
REMARK SMILES IDX 13 14
REMARK H PARENT
REMARK Flexibility Score: inf
ROOT
ATOM      1  C   UNL     1       6.377   1.215   0.934  1.00  0.00     0.080 C 
ENDROOT
BRANCH   1   2
ATOM      2  C   UNL     1       5.663   0.383   1.942  1.00  0.00     0.130 C 
ATOM      3  C   UNL     1       6.281  -0.838   2.526  1.00  0.00     0.087 C 
ATOM      4  O   UNL     1       4.543   0.682   2.321  1.00  0.00    -0.300 OA
ENDBRANCH   1   2
BRANCH   1   5
ATOM      5  C   UNL     1       5.869   0.937  -0.467  1.00  0.00     0.043 C 
BRANCH   5   6
ATOM      6  C   UNL     1       6.816   0.112  -1.238  1.00  0.00    -0.044 A 
ATOM      7  C   UNL     1       7.500   0.623  -2.347  1.00  0.00     0.008 A 
ATOM      8  C   UNL     1       7.042  -1.194  -0.867  1.00  0.00     0.054 A 
ATOM      9  C   UNL     1       8.377  -0.198  -3.031  1.00  0.00     0.051 A 
ATOM     10  C   UNL     1       7.930  -2.020  -1.562  1.00  0.00     0.166 A 
ATOM     11  C   UNL     1       8.603  -1.518  -2.653  1.00  0.00     0.165 A 
ATOM     12  O   UNL     1       8.320  -3.332  -1.394  1.00  0.00    -0.454 OA
ATOM     13  O   UNL     1       9.402  -2.542  -3.138  1.00  0.00    -0.454 OA
ATOM     14  C   UNL     1       9.322  -3.681  -2.315  1.00  0.00     0.468 C 
ENDBRANCH   5   6
ENDBRANCH   1   5
TORSDOF 3
ENDMDL
MODEL 5
REMARK VINA RESULT:      -6.8      1.259      1.748
REMARK SMILES CC(=O)CCc1ccc2c(c1)OCO2
REMARK SMILES IDX 4 1 2 2 1 3 3 4 5 5 6 6 7 7 11 8 8 9 10 10 9 11 12 12 14 13
REMARK SMILES IDX 13 14
REMARK H PARENT
REMARK Flexibility Score: inf
ROOT
ATOM      1  C   UNL     1       5.328  -0.067   1.973  1.00  0.00     0.080 C 
ENDROOT
BRANCH   1   2
ATOM      2  C   UNL     1       4.445   1.118   1.782  1.00  0.00     0.130 C 
ATOM      3  C   UNL     1       4.736   2.150   0.751  1.00  0.00     0.087 C 
ATOM      4  O   UNL     1       3.451   1.277   2.472  1.00  0.00    -0.300 OA
ENDBRANCH   1   2
BRANCH   1   5
ATOM      5  C   UNL     1       6.792   0.320   1.903  1.00  0.00     0.043 C 
BRANCH   5   6
ATOM      6  C   UNL     1       7.390  -0.037   0.604  1.00  0.00    -0.044 A 
ATOM      7  C   UNL     1       7.884   0.940  -0.269  1.00  0.00     0.008 A 
ATOM      8  C   UNL     1       7.472  -1.359   0.231  1.00  0.00     0.054 A 
ATOM      9  C   UNL     1       8.435   0.545  -1.474  1.00  0.00     0.051 A 
ATOM     10  C   UNL     1       8.030  -1.753  -0.989  1.00  0.00     0.166 A 
ATOM     11  C   UNL     1       8.515  -0.793  -1.848  1.00  0.00     0.165 A 
ATOM     12  O   UNL     1       8.224  -2.983  -1.580  1.00  0.00    -0.454 OA
ATOM     13  O   UNL     1       9.003  -1.460  -2.961  1.00  0.00    -0.454 OA
ATOM     14  C   UNL     1       8.920  -2.855  -2.793  1.00  0.00     0.468 C 
ENDBRANCH   5   6
ENDBRANCH   1   5
TORSDOF 3
ENDMDL
