@<TRIPOS>MOLECULE
/home/cewinharhar/GITHUB/reincatalyze/data/processed/docking_pred/2023-May-24-1506_sub9_nm5_bs15_s42_ex16_mel10_mts10000_k50_ec02_g099_lra3e-4_lrc3e-3/ddc375cfe0538f632f4fe0023d9c8e07951c55a5_ligand_9.pdbqt
 14 15 0 0 0
SMALL
GASTEIGER

@<TRIPOS>ATOM
      1  C          5.7090    1.3520   -0.3000 C.3     1  UNL1        0.0800
      2  C          5.0900    1.2670    1.0520 C.2     1  UNL1        0.1300
      3  C          5.3630    0.1250    1.9650 C.3     1  UNL1        0.0870
      4  O          4.3340    2.1390    1.4510 O.2     1  UNL1       -0.3000
      5  C          7.2050    1.1140   -0.2360 C.3     1  UNL1        0.0430
      6  C          7.5790   -0.1770   -0.8410 C.2     1  UNL1       -0.0440
      7  C          7.6310   -0.3490   -2.2290 C.2     1  UNL1        0.0080
      8  C          7.8890   -1.2450   -0.0300 C.2     1  UNL1        0.0540
      9  C          7.9890   -1.5830   -2.7390 C.2     1  UNL1        0.0510
     10  C          8.2520   -2.4910   -0.5510 C.2     1  UNL1        0.1660
     11  C          8.3020   -2.6610   -1.9160 C.2     1  UNL1        0.1650
     12  O          8.5990   -3.6890    0.0360 O.2     1  UNL1       -0.4540
     13  O          8.6840   -3.9740   -2.1430 O.2     1  UNL1       -0.4540
     14  C          8.9710   -4.6360   -0.9330 C.3     1  UNL1        0.4680
@<TRIPOS>BOND
     1     9     7    1
     2     9    11    2
     3     7     6    2
     4    13    11    1
     5    13    14    1
     6    11    10    1
     7    14    12    1
     8     6     5    1
     9     6     8    1
    10    10     8    2
    11    10    12    1
    12     1     5    1
    13     1     2    1
    14     2     4    2
    15     2     3    1
