@<TRIPOS>MOLECULE
/home/cewinharhar/GITHUB/reincatalyze/data/processed/docking_pred/2023-May-24-1506_sub9_nm5_bs15_s42_ex16_mel10_mts10000_k50_ec02_g099_lra3e-4_lrc3e-3/ddc375cfe0538f632f4fe0023d9c8e07951c55a5_ligand_9.pdbqt
 14 15 0 0 0
SMALL
GASTEIGER

@<TRIPOS>ATOM
      1  C          5.3280   -0.0670    1.9730 C.3     1  UNL1        0.0800
      2  C          4.4450    1.1180    1.7820 C.2     1  UNL1        0.1300
      3  C          4.7360    2.1500    0.7510 C.3     1  UNL1        0.0870
      4  O          3.4510    1.2770    2.4720 O.2     1  UNL1       -0.3000
      5  C          6.7920    0.3200    1.9030 C.3     1  UNL1        0.0430
      6  C          7.3900   -0.0370    0.6040 C.2     1  UNL1       -0.0440
      7  C          7.8840    0.9400   -0.2690 C.2     1  UNL1        0.0080
      8  C          7.4720   -1.3590    0.2310 C.2     1  UNL1        0.0540
      9  C          8.4350    0.5450   -1.4740 C.2     1  UNL1        0.0510
     10  C          8.0300   -1.7530   -0.9890 C.2     1  UNL1        0.1660
     11  C          8.5150   -0.7930   -1.8480 C.2     1  UNL1        0.1650
     12  O          8.2240   -2.9830   -1.5800 O.2     1  UNL1       -0.4540
     13  O          9.0030   -1.4600   -2.9610 O.2     1  UNL1       -0.4540
     14  C          8.9200   -2.8550   -2.7930 C.3     1  UNL1        0.4680
@<TRIPOS>BOND
     1    13    14    1
     2    13    11    1
     3    14    12    1
     4    11     9    2
     5    11    10    1
     6    12    10    1
     7     9     7    1
     8    10     8    2
     9     7     6    2
    10     8     6    1
    11     6     5    1
    12     3     2    1
    13     2     1    1
    14     2     4    2
    15     5     1    1
