@<TRIPOS>MOLECULE
/home/cewinharhar/GITHUB/reincatalyze/data/processed/docking_pred/2023-May-24-1506_sub9_nm5_bs15_s42_ex16_mel10_mts10000_k50_ec02_g099_lra3e-4_lrc3e-3/ddc375cfe0538f632f4fe0023d9c8e07951c55a5_ligand_9.pdbqt
 14 15 0 0 0
SMALL
GASTEIGER

@<TRIPOS>ATOM
      1  C          5.3810   -0.0940    2.0180 C.3     1  UNL1        0.0800
      2  C          4.5540    1.1210    1.7760 C.2     1  UNL1        0.1300
      3  C          4.9130    2.1150    0.7300 C.3     1  UNL1        0.0870
      4  O          3.5500    1.3360    2.4350 O.2     1  UNL1       -0.3000
      5  C          6.8300    0.1420    1.6390 C.3     1  UNL1        0.0430
      6  C          7.2680   -0.7660    0.5640 C.2     1  UNL1       -0.0440
      7  C          7.1540   -0.4140   -0.7850 C.2     1  UNL1        0.0080
      8  C          7.8070   -1.9920    0.8850 C.2     1  UNL1        0.0540
      9  C          7.5840   -1.3070   -1.7500 C.2     1  UNL1        0.0510
     10  C          8.2400   -2.8910   -0.0940 C.2     1  UNL1        0.1660
     11  C          8.1270   -2.5460   -1.4230 C.2     1  UNL1        0.1650
     12  O          8.8000   -4.1490   -0.0330 O.2     1  UNL1       -0.4540
     13  O          8.6270   -3.6100   -2.1570 O.2     1  UNL1       -0.4540
     14  C          9.1480   -4.6090   -1.3130 C.3     1  UNL1        0.4680
@<TRIPOS>BOND
     1    13    11    1
     2    13    14    1
     3     9    11    2
     4     9     7    1
     5    11    10    1
     6    14    12    1
     7     7     6    2
     8    10    12    1
     9    10     8    2
    10     6     8    1
    11     6     5    1
    12     3     2    1
    13     5     1    1
    14     2     1    1
    15     2     4    2
