@<TRIPOS>MOLECULE
/home/cewinharhar/GITHUB/reincatalyze/data/processed/docking_pred/2023-May-24-1506_sub9_nm5_bs15_s42_ex16_mel10_mts10000_k50_ec02_g099_lra3e-4_lrc3e-3/ddc375cfe0538f632f4fe0023d9c8e07951c55a5_ligand_9.pdbqt
 14 15 0 0 0
SMALL
GASTEIGER

@<TRIPOS>ATOM
      1  C          5.5010    1.9240    1.2670 C.3     1  UNL1        0.0800
      2  C          5.0360    0.7120    1.9970 C.2     1  UNL1        0.1300
      3  C          5.8920   -0.4980    2.1250 C.3     1  UNL1        0.0870
      4  O          3.9310    0.6760    2.5130 O.2     1  UNL1       -0.3000
      5  C          5.3830    1.7430   -0.2330 C.3     1  UNL1        0.0430
      6  C          6.5530    1.0430   -0.7930 C.2     1  UNL1       -0.0440
      7  C          7.8590    1.4780   -0.5380 C.2     1  UNL1        0.0080
      8  C          6.3700   -0.0680   -1.5850 C.2     1  UNL1        0.0540
      9  C          8.9180    0.7810   -1.0900 C.2     1  UNL1        0.0510
     10  C          7.4440   -0.7700   -2.1390 C.2     1  UNL1        0.1660
     11  C          8.7290   -0.3410   -1.8900 C.2     1  UNL1        0.1650
     12  O          7.5220   -1.8840   -2.9470 O.2     1  UNL1       -0.4540
     13  O          9.5780   -1.2110   -2.5560 O.2     1  UNL1       -0.4540
     14  C          8.8590   -2.2580   -3.1640 C.3     1  UNL1        0.4680
@<TRIPOS>BOND
     1    14    12    1
     2    14    13    1
     3    12    10    1
     4    13    11    1
     5    10    11    2
     6    10     8    1
     7    11     9    1
     8     8     6    2
     9     9     7    2
    10     6     7    1
    11     6     5    1
    12     5     1    1
    13     1     2    1
    14     2     3    1
    15     2     4    2
