@<TRIPOS>MOLECULE
/home/cewinharhar/GITHUB/reincatalyze/data/processed/docking_pred/2023-May-24-1506_sub9_nm5_bs15_s42_ex16_mel10_mts10000_k50_ec02_g099_lra3e-4_lrc3e-3/dec3c7f7dc181dec8ebb65c61c0ebadd1663ac5d_ligand_9.pdbqt
 14 15 0 0 0
SMALL
GASTEIGER

@<TRIPOS>ATOM
      1  C          6.3730    1.1670    0.9670 C.3     1  UNL1        0.0800
      2  C          5.6410    0.3460    1.9720 C.2     1  UNL1        0.1300
      3  C          6.2380   -0.8840    2.5590 C.3     1  UNL1        0.0870
      4  O          4.5230    0.6610    2.3440 O.2     1  UNL1       -0.3000
      5  C          5.8640    0.9030   -0.4360 C.3     1  UNL1        0.0430
      6  C          6.8120    0.0890   -1.2170 C.2     1  UNL1       -0.0440
      7  C          7.4880    0.6120   -2.3250 C.2     1  UNL1        0.0080
      8  C          7.0470   -1.2180   -0.8560 C.2     1  UNL1        0.0540
      9  C          8.3670   -0.1990   -3.0190 C.2     1  UNL1        0.0510
     10  C          7.9370   -2.0340   -1.5600 C.2     1  UNL1        0.1660
     11  C          8.6020   -1.5210   -2.6510 C.2     1  UNL1        0.1650
     12  O          8.3360   -3.3450   -1.4040 O.2     1  UNL1       -0.4540
     13  O          9.4050   -2.5360   -3.1460 O.2     1  UNL1       -0.4540
     14  C          9.3350   -3.6820   -2.3310 C.3     1  UNL1        0.4680
@<TRIPOS>BOND
     1    13    11    1
     2    13    14    1
     3     9    11    2
     4     9     7    1
     5    11    10    1
     6    14    12    1
     7     7     6    2
     8    10    12    1
     9    10     8    2
    10     6     8    1
    11     6     5    1
    12     5     1    1
    13     1     2    1
    14     2     4    2
    15     2     3    1
