MODEL 1
REMARK VINA RESULT:      -7.6      0.000      0.000
REMARK SMILES CC(=O)CCc1ccc2c(c1)OCO2
REMARK SMILES IDX 4 1 2 2 1 3 3 4 5 5 6 6 7 7 11 8 8 9 10 10 9 11 12 12 14 13
REMARK SMILES IDX 13 14
REMARK H PARENT
REMARK Flexibility Score: inf
ROOT
ATOM      1  C   UNL     1       5.586   1.873   1.295  1.00  0.00     0.080 C 
ENDROOT
BRANCH   1   2
ATOM      2  C   UNL     1       5.137   0.656   2.027  1.00  0.00     0.130 C 
ATOM      3  C   UNL     1       6.032  -0.517   2.213  1.00  0.00     0.087 C 
ATOM      4  O   UNL     1       4.013   0.586   2.496  1.00  0.00    -0.300 OA
ENDBRANCH   1   2
BRANCH   1   5
ATOM      5  C   UNL     1       5.444   1.699  -0.204  1.00  0.00     0.043 C 
BRANCH   5   6
ATOM      6  C   UNL     1       6.601   0.996  -0.785  1.00  0.00    -0.044 A 
ATOM      7  C   UNL     1       7.912   1.433  -0.562  1.00  0.00     0.008 A 
ATOM      8  C   UNL     1       6.400  -0.120  -1.565  1.00  0.00     0.054 A 
ATOM      9  C   UNL     1       8.959   0.733  -1.133  1.00  0.00     0.051 A 
ATOM     10  C   UNL     1       7.462  -0.825  -2.139  1.00  0.00     0.166 A 
ATOM     11  C   UNL     1       8.752  -0.394  -1.922  1.00  0.00     0.165 A 
ATOM     12  O   UNL     1       7.523  -1.945  -2.941  1.00  0.00    -0.454 OA
ATOM     13  O   UNL     1       9.586  -1.269  -2.600  1.00  0.00    -0.454 OA
ATOM     14  C   UNL     1       8.854  -2.319  -3.185  1.00  0.00     0.468 C 
ENDBRANCH   5   6
ENDBRANCH   1   5
TORSDOF 3
ENDMDL
MODEL 2
REMARK VINA RESULT:      -7.4      1.903      2.347
REMARK SMILES CC(=O)CCc1ccc2c(c1)OCO2
REMARK SMILES IDX 4 1 2 2 1 3 3 4 5 5 6 6 7 7 11 8 8 9 10 10 9 11 12 12 14 13
REMARK SMILES IDX 13 14
REMARK H PARENT
REMARK Flexibility Score: inf
ROOT
ATOM      1  C   UNL     1       5.774   1.425  -0.260  1.00  0.00     0.080 C 
ENDROOT
BRANCH   1   2
ATOM      2  C   UNL     1       5.108   1.305   1.067  1.00  0.00     0.130 C 
ATOM      3  C   UNL     1       5.379   0.160   1.976  1.00  0.00     0.087 C 
ATOM      4  O   UNL     1       4.314   2.150   1.448  1.00  0.00    -0.300 OA
ENDBRANCH   1   2
BRANCH   1   5
ATOM      5  C   UNL     1       7.258   1.137  -0.159  1.00  0.00     0.043 C 
BRANCH   5   6
ATOM      6  C   UNL     1       7.611  -0.147  -0.790  1.00  0.00    -0.044 A 
ATOM      7  C   UNL     1       7.640  -0.297  -2.181  1.00  0.00     0.008 A 
ATOM      8  C   UNL     1       7.923  -1.232  -0.002  1.00  0.00     0.054 A 
ATOM      9  C   UNL     1       7.978  -1.527  -2.717  1.00  0.00     0.051 A 
ATOM     10  C   UNL     1       8.265  -2.472  -0.548  1.00  0.00     0.166 A 
ATOM     11  C   UNL     1       8.293  -2.621  -1.917  1.00  0.00     0.165 A 
ATOM     12  O   UNL     1       8.609  -3.684   0.013  1.00  0.00    -0.454 OA
ATOM     13  O   UNL     1       8.658  -3.934  -2.170  1.00  0.00    -0.454 OA
ATOM     14  C   UNL     1       8.957  -4.617  -0.976  1.00  0.00     0.468 C 
ENDBRANCH   5   6
ENDBRANCH   1   5
TORSDOF 3
ENDMDL
MODEL 3
REMARK VINA RESULT:      -7.1      2.075      2.604
REMARK SMILES CC(=O)CCc1ccc2c(c1)OCO2
REMARK SMILES IDX 4 1 2 2 1 3 3 4 5 5 6 6 7 7 11 8 8 9 10 10 9 11 12 12 14 13
REMARK SMILES IDX 13 14
REMARK H PARENT
REMARK Flexibility Score: inf
ROOT
ATOM      1  C   UNL     1       5.534  -0.008   1.949  1.00  0.00     0.080 C 
ENDROOT
BRANCH   1   2
ATOM      2  C   UNL     1       4.660   1.161   1.650  1.00  0.00     0.130 C 
ATOM      3  C   UNL     1       4.964   2.097   0.535  1.00  0.00     0.087 C 
ATOM      4  O   UNL     1       3.663   1.385   2.317  1.00  0.00    -0.300 OA
ENDBRANCH   1   2
BRANCH   1   5
ATOM      5  C   UNL     1       6.960   0.241   1.500  1.00  0.00     0.043 C 
BRANCH   5   6
ATOM      6  C   UNL     1       7.378  -0.710   0.455  1.00  0.00    -0.044 A 
ATOM      7  C   UNL     1       7.302  -0.387  -0.904  1.00  0.00     0.008 A 
ATOM      8  C   UNL     1       7.860  -1.949   0.814  1.00  0.00     0.054 A 
ATOM      9  C   UNL     1       7.709  -1.320  -1.840  1.00  0.00     0.051 A 
ATOM     10  C   UNL     1       8.271  -2.889  -0.136  1.00  0.00     0.166 A 
ATOM     11  C   UNL     1       8.195  -2.572  -1.474  1.00  0.00     0.165 A 
ATOM     12  O   UNL     1       8.778  -4.167  -0.035  1.00  0.00    -0.454 OA
ATOM     13  O   UNL     1       8.662  -3.673  -2.174  1.00  0.00    -0.454 OA
ATOM     14  C   UNL     1       9.127  -4.673  -1.298  1.00  0.00     0.468 C 
ENDBRANCH   5   6
ENDBRANCH   1   5
TORSDOF 3
ENDMDL
MODEL 4
REMARK VINA RESULT:      -7.1      1.236      1.428
REMARK SMILES CC(=O)CCc1ccc2c(c1)OCO2
REMARK SMILES IDX 4 1 2 2 1 3 3 4 5 5 6 6 7 7 11 8 8 9 10 10 9 11 12 12 14 13
REMARK SMILES IDX 13 14
REMARK H PARENT
REMARK Flexibility Score: inf
ROOT
ATOM      1  C   UNL     1       6.373   1.167   0.967  1.00  0.00     0.080 C 
ENDROOT
BRANCH   1   2
ATOM      2  C   UNL     1       5.641   0.346   1.972  1.00  0.00     0.130 C 
ATOM      3  C   UNL     1       6.238  -0.884   2.559  1.00  0.00     0.087 C 
ATOM      4  O   UNL     1       4.523   0.661   2.344  1.00  0.00    -0.300 OA
ENDBRANCH   1   2
BRANCH   1   5
ATOM      5  C   UNL     1       5.864   0.903  -0.436  1.00  0.00     0.043 C 
BRANCH   5   6
ATOM      6  C   UNL     1       6.812   0.089  -1.217  1.00  0.00    -0.044 A 
ATOM      7  C   UNL     1       7.488   0.612  -2.325  1.00  0.00     0.008 A 
ATOM      8  C   UNL     1       7.047  -1.218  -0.856  1.00  0.00     0.054 A 
ATOM      9  C   UNL     1       8.367  -0.199  -3.019  1.00  0.00     0.051 A 
ATOM     10  C   UNL     1       7.937  -2.034  -1.560  1.00  0.00     0.166 A 
ATOM     11  C   UNL     1       8.602  -1.521  -2.651  1.00  0.00     0.165 A 
ATOM     12  O   UNL     1       8.336  -3.345  -1.404  1.00  0.00    -0.454 OA
ATOM     13  O   UNL     1       9.405  -2.536  -3.146  1.00  0.00    -0.454 OA
ATOM     14  C   UNL     1       9.335  -3.682  -2.331  1.00  0.00     0.468 C 
ENDBRANCH   5   6
ENDBRANCH   1   5
TORSDOF 3
ENDMDL
MODEL 5
REMARK VINA RESULT:      -7.0      1.973      2.488
REMARK SMILES CC(=O)CCc1ccc2c(c1)OCO2
REMARK SMILES IDX 4 1 2 2 1 3 3 4 5 5 6 6 7 7 11 8 8 9 10 10 9 11 12 12 14 13
REMARK SMILES IDX 13 14
REMARK H PARENT
REMARK Flexibility Score: inf
ROOT
ATOM      1  C   UNL     1       6.834   0.899   1.405  1.00  0.00     0.080 C 
ENDROOT
BRANCH   1   2
ATOM      2  C   UNL     1       5.365   1.127   1.512  1.00  0.00     0.130 C 
ATOM      3  C   UNL     1       4.669   2.137   0.672  1.00  0.00     0.087 C 
ATOM      4  O   UNL     1       4.687   0.486   2.298  1.00  0.00    -0.300 OA
ENDBRANCH   1   2
BRANCH   1   5
ATOM      5  C   UNL     1       7.319   1.092  -0.018  1.00  0.00     0.043 C 
BRANCH   5   6
ATOM      6  C   UNL     1       7.653  -0.192  -0.659  1.00  0.00    -0.044 A 
ATOM      7  C   UNL     1       7.672  -0.333  -2.052  1.00  0.00     0.008 A 
ATOM      8  C   UNL     1       7.959  -1.285   0.120  1.00  0.00     0.054 A 
ATOM      9  C   UNL     1       7.994  -1.562  -2.598  1.00  0.00     0.051 A 
ATOM     10  C   UNL     1       8.285  -2.525  -0.437  1.00  0.00     0.166 A 
ATOM     11  C   UNL     1       8.302  -2.665  -1.807  1.00  0.00     0.165 A 
ATOM     12  O   UNL     1       8.621  -3.744   0.114  1.00  0.00    -0.454 OA
ATOM     13  O   UNL     1       8.653  -3.980  -2.072  1.00  0.00    -0.454 OA
ATOM     14  C   UNL     1       8.952  -4.674  -0.885  1.00  0.00     0.468 C 
ENDBRANCH   5   6
ENDBRANCH   1   5
TORSDOF 3
ENDMDL
