@<TRIPOS>MOLECULE
/home/cewinharhar/GITHUB/reincatalyze/data/processed/docking_pred/2023-May-24-1506_sub9_nm5_bs15_s42_ex16_mel10_mts10000_k50_ec02_g099_lra3e-4_lrc3e-3/dec3c7f7dc181dec8ebb65c61c0ebadd1663ac5d_ligand_9.pdbqt
 14 15 0 0 0
SMALL
GASTEIGER

@<TRIPOS>ATOM
      1  C          5.5340   -0.0080    1.9490 C.3     1  UNL1        0.0800
      2  C          4.6600    1.1610    1.6500 C.2     1  UNL1        0.1300
      3  C          4.9640    2.0970    0.5350 C.3     1  UNL1        0.0870
      4  O          3.6630    1.3850    2.3170 O.2     1  UNL1       -0.3000
      5  C          6.9600    0.2410    1.5000 C.3     1  UNL1        0.0430
      6  C          7.3780   -0.7100    0.4550 C.2     1  UNL1       -0.0440
      7  C          7.3020   -0.3870   -0.9040 C.2     1  UNL1        0.0080
      8  C          7.8600   -1.9490    0.8140 C.2     1  UNL1        0.0540
      9  C          7.7090   -1.3200   -1.8400 C.2     1  UNL1        0.0510
     10  C          8.2710   -2.8890   -0.1360 C.2     1  UNL1        0.1660
     11  C          8.1950   -2.5720   -1.4740 C.2     1  UNL1        0.1650
     12  O          8.7780   -4.1670   -0.0350 O.2     1  UNL1       -0.4540
     13  O          8.6620   -3.6730   -2.1740 O.2     1  UNL1       -0.4540
     14  C          9.1270   -4.6730   -1.2980 C.3     1  UNL1        0.4680
@<TRIPOS>BOND
     1    13    11    1
     2    13    14    1
     3     9    11    2
     4     9     7    1
     5    11    10    1
     6    14    12    1
     7     7     6    2
     8    10    12    1
     9    10     8    2
    10     6     8    1
    11     6     5    1
    12     3     2    1
    13     5     1    1
    14     2     1    1
    15     2     4    2
