@<TRIPOS>MOLECULE
/home/cewinharhar/GITHUB/reincatalyze/data/processed/docking_pred/2023-May-24-1506_sub9_nm5_bs15_s42_ex16_mel10_mts10000_k50_ec02_g099_lra3e-4_lrc3e-3/dec3c7f7dc181dec8ebb65c61c0ebadd1663ac5d_ligand_9.pdbqt
 14 15 0 0 0
SMALL
GASTEIGER

@<TRIPOS>ATOM
      1  C          6.8340    0.8990    1.4050 C.3     1  UNL1        0.0800
      2  C          5.3650    1.1270    1.5120 C.2     1  UNL1        0.1300
      3  C          4.6690    2.1370    0.6720 C.3     1  UNL1        0.0870
      4  O          4.6870    0.4860    2.2980 O.2     1  UNL1       -0.3000
      5  C          7.3190    1.0920   -0.0180 C.3     1  UNL1        0.0430
      6  C          7.6530   -0.1920   -0.6590 C.2     1  UNL1       -0.0440
      7  C          7.6720   -0.3330   -2.0520 C.2     1  UNL1        0.0080
      8  C          7.9590   -1.2850    0.1200 C.2     1  UNL1        0.0540
      9  C          7.9940   -1.5620   -2.5980 C.2     1  UNL1        0.0510
     10  C          8.2850   -2.5250   -0.4370 C.2     1  UNL1        0.1660
     11  C          8.3020   -2.6650   -1.8070 C.2     1  UNL1        0.1650
     12  O          8.6210   -3.7440    0.1140 O.2     1  UNL1       -0.4540
     13  O          8.6530   -3.9800   -2.0720 O.2     1  UNL1       -0.4540
     14  C          8.9520   -4.6740   -0.8850 C.3     1  UNL1        0.4680
@<TRIPOS>BOND
     1     9     7    1
     2     9    11    2
     3    13    11    1
     4    13    14    1
     5     7     6    2
     6    11    10    1
     7    14    12    1
     8     6     5    1
     9     6     8    1
    10    10    12    1
    11    10     8    2
    12     5     1    1
    13     3     2    1
    14     1     2    1
    15     2     4    2
