@<TRIPOS>MOLECULE
/home/cewinharhar/GITHUB/reincatalyze/data/processed/docking_pred/2023-May-24-1506_sub9_nm5_bs15_s42_ex16_mel10_mts10000_k50_ec02_g099_lra3e-4_lrc3e-3/dec3c7f7dc181dec8ebb65c61c0ebadd1663ac5d_ligand_9.pdbqt
 14 15 0 0 0
SMALL
GASTEIGER

@<TRIPOS>ATOM
      1  C          5.5860    1.8730    1.2950 C.3     1  UNL1        0.0800
      2  C          5.1370    0.6560    2.0270 C.2     1  UNL1        0.1300
      3  C          6.0320   -0.5170    2.2130 C.3     1  UNL1        0.0870
      4  O          4.0130    0.5860    2.4960 O.2     1  UNL1       -0.3000
      5  C          5.4440    1.6990   -0.2040 C.3     1  UNL1        0.0430
      6  C          6.6010    0.9960   -0.7850 C.2     1  UNL1       -0.0440
      7  C          7.9120    1.4330   -0.5620 C.2     1  UNL1        0.0080
      8  C          6.4000   -0.1200   -1.5650 C.2     1  UNL1        0.0540
      9  C          8.9590    0.7330   -1.1330 C.2     1  UNL1        0.0510
     10  C          7.4620   -0.8250   -2.1390 C.2     1  UNL1        0.1660
     11  C          8.7520   -0.3940   -1.9220 C.2     1  UNL1        0.1650
     12  O          7.5230   -1.9450   -2.9410 O.2     1  UNL1       -0.4540
     13  O          9.5860   -1.2690   -2.6000 O.2     1  UNL1       -0.4540
     14  C          8.8540   -2.3190   -3.1850 C.3     1  UNL1        0.4680
@<TRIPOS>BOND
     1    14    12    1
     2    14    13    1
     3    12    10    1
     4    13    11    1
     5    10    11    2
     6    10     8    1
     7    11     9    1
     8     8     6    2
     9     9     7    2
    10     6     7    1
    11     6     5    1
    12     5     1    1
    13     1     2    1
    14     2     3    1
    15     2     4    2
