@<TRIPOS>MOLECULE
/home/cewinharhar/GITHUB/reincatalyze/data/processed/docking_pred/2023-May-24-1506_sub9_nm5_bs15_s42_ex16_mel10_mts10000_k50_ec02_g099_lra3e-4_lrc3e-3/e098785ba58320b640a14c9c91abed0998b2ce53_ligand_9.pdbqt
 14 15 0 0 0
SMALL
GASTEIGER

@<TRIPOS>ATOM
      1  C          5.5250   -0.0130    1.9570 C.3     1  UNL1        0.0800
      2  C          4.6690    1.1680    1.6590 C.2     1  UNL1        0.1300
      3  C          4.9950    2.1100    0.5550 C.3     1  UNL1        0.0870
      4  O          3.6680    1.3990    2.3170 O.2     1  UNL1       -0.3000
      5  C          6.9670    0.2370    1.5610 C.3     1  UNL1        0.0430
      6  C          7.4090   -0.6810    0.4970 C.2     1  UNL1       -0.0440
      7  C          7.3990   -0.3010   -0.8500 C.2     1  UNL1        0.0080
      8  C          7.8450   -1.9450    0.8240 C.2     1  UNL1        0.0540
      9  C          7.8270   -1.2050   -1.8050 C.2     1  UNL1        0.0510
     10  C          8.2770   -2.8550   -0.1450 C.2     1  UNL1        0.1660
     11  C          8.2670   -2.4820   -1.4710 C.2     1  UNL1        0.1650
     12  O          8.7490   -4.1490   -0.0760 O.2     1  UNL1       -0.4540
     13  O          8.7390   -3.5650   -2.1960 O.2     1  UNL1       -0.4540
     14  C          9.1410   -4.6110   -1.3430 C.3     1  UNL1        0.4680
@<TRIPOS>BOND
     1    13    11    1
     2    13    14    1
     3     9    11    2
     4     9     7    1
     5    11    10    1
     6    14    12    1
     7     7     6    2
     8    10    12    1
     9    10     8    2
    10     6     8    1
    11     6     5    1
    12     3     2    1
    13     5     1    1
    14     2     1    1
    15     2     4    2
