MODEL 1
REMARK VINA RESULT:      -7.7      0.000      0.000
REMARK SMILES CC(=O)CCc1ccc2c(c1)OCO2
REMARK SMILES IDX 4 1 2 2 1 3 3 4 5 5 6 6 7 7 11 8 8 9 10 10 9 11 12 12 14 13
REMARK SMILES IDX 13 14
REMARK H PARENT
REMARK Flexibility Score: inf
ROOT
ATOM      1  C   UNL     1       5.540   1.935   1.261  1.00  0.00     0.080 C 
ENDROOT
BRANCH   1   2
ATOM      2  C   UNL     1       5.124   0.712   2.003  1.00  0.00     0.130 C 
ATOM      3  C   UNL     1       6.044  -0.442   2.186  1.00  0.00     0.087 C 
ATOM      4  O   UNL     1       4.007   0.623   2.487  1.00  0.00    -0.300 OA
ENDBRANCH   1   2
BRANCH   1   5
ATOM      5  C   UNL     1       5.413   1.739  -0.237  1.00  0.00     0.043 C 
BRANCH   5   6
ATOM      6  C   UNL     1       6.577   1.029  -0.796  1.00  0.00    -0.044 A 
ATOM      7  C   UNL     1       7.887   1.449  -0.536  1.00  0.00     0.008 A 
ATOM      8  C   UNL     1       6.384  -0.077  -1.592  1.00  0.00     0.054 A 
ATOM      9  C   UNL     1       8.940   0.743  -1.087  1.00  0.00     0.051 A 
ATOM     10  C   UNL     1       7.453  -0.788  -2.146  1.00  0.00     0.166 A 
ATOM     11  C   UNL     1       8.741  -0.374  -1.892  1.00  0.00     0.165 A 
ATOM     12  O   UNL     1       7.521  -1.901  -2.957  1.00  0.00    -0.454 OA
ATOM     13  O   UNL     1       9.583  -1.251  -2.558  1.00  0.00    -0.454 OA
ATOM     14  C   UNL     1       8.854  -2.288  -3.172  1.00  0.00     0.468 C 
ENDBRANCH   5   6
ENDBRANCH   1   5
TORSDOF 3
ENDMDL
MODEL 2
REMARK VINA RESULT:      -7.4      1.866      2.319
REMARK SMILES CC(=O)CCc1ccc2c(c1)OCO2
REMARK SMILES IDX 4 1 2 2 1 3 3 4 5 5 6 6 7 7 11 8 8 9 10 10 9 11 12 12 14 13
REMARK SMILES IDX 13 14
REMARK H PARENT
REMARK Flexibility Score: inf
ROOT
ATOM      1  C   UNL     1       5.735   1.405  -0.290  1.00  0.00     0.080 C 
ENDROOT
BRANCH   1   2
ATOM      2  C   UNL     1       5.180   1.286   1.087  1.00  0.00     0.130 C 
ATOM      3  C   UNL     1       5.488   0.117   1.954  1.00  0.00     0.087 C 
ATOM      4  O   UNL     1       4.451   2.150   1.547  1.00  0.00    -0.300 OA
ENDBRANCH   1   2
BRANCH   1   5
ATOM      5  C   UNL     1       7.236   1.193  -0.299  1.00  0.00     0.043 C 
BRANCH   5   6
ATOM      6  C   UNL     1       7.601  -0.096  -0.911  1.00  0.00    -0.044 A 
ATOM      7  C   UNL     1       7.672  -0.255  -2.300  1.00  0.00     0.008 A 
ATOM      8  C   UNL     1       7.885  -1.177  -0.108  1.00  0.00     0.054 A 
ATOM      9  C   UNL     1       8.021  -1.488  -2.818  1.00  0.00     0.051 A 
ATOM     10  C   UNL     1       8.239  -2.422  -0.636  1.00  0.00     0.166 A 
ATOM     11  C   UNL     1       8.307  -2.579  -2.003  1.00  0.00     0.165 A 
ATOM     12  O   UNL     1       8.561  -3.631  -0.058  1.00  0.00    -0.454 OA
ATOM     13  O   UNL     1       8.675  -3.895  -2.237  1.00  0.00    -0.454 OA
ATOM     14  C   UNL     1       8.934  -4.573  -1.031  1.00  0.00     0.468 C 
ENDBRANCH   5   6
ENDBRANCH   1   5
TORSDOF 3
ENDMDL
MODEL 3
REMARK VINA RESULT:      -7.1      2.057      2.579
REMARK SMILES CC(=O)CCc1ccc2c(c1)OCO2
REMARK SMILES IDX 4 1 2 2 1 3 3 4 5 5 6 6 7 7 11 8 8 9 10 10 9 11 12 12 14 13
REMARK SMILES IDX 13 14
REMARK H PARENT
REMARK Flexibility Score: inf
ROOT
ATOM      1  C   UNL     1       5.525  -0.013   1.957  1.00  0.00     0.080 C 
ENDROOT
BRANCH   1   2
ATOM      2  C   UNL     1       4.669   1.168   1.659  1.00  0.00     0.130 C 
ATOM      3  C   UNL     1       4.995   2.110   0.555  1.00  0.00     0.087 C 
ATOM      4  O   UNL     1       3.668   1.399   2.317  1.00  0.00    -0.300 OA
ENDBRANCH   1   2
BRANCH   1   5
ATOM      5  C   UNL     1       6.967   0.237   1.561  1.00  0.00     0.043 C 
BRANCH   5   6
ATOM      6  C   UNL     1       7.409  -0.681   0.497  1.00  0.00    -0.044 A 
ATOM      7  C   UNL     1       7.399  -0.301  -0.850  1.00  0.00     0.008 A 
ATOM      8  C   UNL     1       7.845  -1.945   0.824  1.00  0.00     0.054 A 
ATOM      9  C   UNL     1       7.827  -1.205  -1.805  1.00  0.00     0.051 A 
ATOM     10  C   UNL     1       8.277  -2.855  -0.145  1.00  0.00     0.166 A 
ATOM     11  C   UNL     1       8.267  -2.482  -1.471  1.00  0.00     0.165 A 
ATOM     12  O   UNL     1       8.749  -4.149  -0.076  1.00  0.00    -0.454 OA
ATOM     13  O   UNL     1       8.739  -3.565  -2.196  1.00  0.00    -0.454 OA
ATOM     14  C   UNL     1       9.141  -4.611  -1.343  1.00  0.00     0.468 C 
ENDBRANCH   5   6
ENDBRANCH   1   5
TORSDOF 3
ENDMDL
MODEL 4
REMARK VINA RESULT:      -7.1      1.261      1.478
REMARK SMILES CC(=O)CCc1ccc2c(c1)OCO2
REMARK SMILES IDX 4 1 2 2 1 3 3 4 5 5 6 6 7 7 11 8 8 9 10 10 9 11 12 12 14 13
REMARK SMILES IDX 13 14
REMARK H PARENT
REMARK Flexibility Score: inf
ROOT
ATOM      1  C   UNL     1       6.405   1.197   0.933  1.00  0.00     0.080 C 
ENDROOT
BRANCH   1   2
ATOM      2  C   UNL     1       5.667   0.376   1.934  1.00  0.00     0.130 C 
ATOM      3  C   UNL     1       6.261  -0.852   2.526  1.00  0.00     0.087 C 
ATOM      4  O   UNL     1       4.546   0.692   2.299  1.00  0.00    -0.300 OA
ENDBRANCH   1   2
BRANCH   1   5
ATOM      5  C   UNL     1       5.903   0.931  -0.473  1.00  0.00     0.043 C 
BRANCH   5   6
ATOM      6  C   UNL     1       6.844   0.096  -1.240  1.00  0.00    -0.044 A 
ATOM      7  C   UNL     1       7.533   0.597  -2.350  1.00  0.00     0.008 A 
ATOM      8  C   UNL     1       7.060  -1.210  -0.863  1.00  0.00     0.054 A 
ATOM      9  C   UNL     1       8.404  -0.233  -3.031  1.00  0.00     0.051 A 
ATOM     10  C   UNL     1       7.942  -2.046  -1.554  1.00  0.00     0.166 A 
ATOM     11  C   UNL     1       8.619  -1.554  -2.648  1.00  0.00     0.165 A 
ATOM     12  O   UNL     1       8.322  -3.360  -1.381  1.00  0.00    -0.454 OA
ATOM     13  O   UNL     1       9.411  -2.586  -3.127  1.00  0.00    -0.454 OA
ATOM     14  C   UNL     1       9.322  -3.721  -2.300  1.00  0.00     0.468 C 
ENDBRANCH   5   6
ENDBRANCH   1   5
TORSDOF 3
ENDMDL
MODEL 5
REMARK VINA RESULT:      -7.1      1.968      2.498
REMARK SMILES CC(=O)CCc1ccc2c(c1)OCO2
REMARK SMILES IDX 4 1 2 2 1 3 3 4 5 5 6 6 7 7 11 8 8 9 10 10 9 11 12 12 14 13
REMARK SMILES IDX 13 14
REMARK H PARENT
REMARK Flexibility Score: inf
ROOT
ATOM      1  C   UNL     1       6.856   0.928   1.361  1.00  0.00     0.080 C 
ENDROOT
BRANCH   1   2
ATOM      2  C   UNL     1       5.391   1.189   1.433  1.00  0.00     0.130 C 
ATOM      3  C   UNL     1       4.723   2.149   0.514  1.00  0.00     0.087 C 
ATOM      4  O   UNL     1       4.693   0.618   2.255  1.00  0.00    -0.300 OA
ENDBRANCH   1   2
BRANCH   1   5
ATOM      5  C   UNL     1       7.381   1.121  -0.048  1.00  0.00     0.043 C 
BRANCH   5   6
ATOM      6  C   UNL     1       7.701  -0.166  -0.693  1.00  0.00    -0.044 A 
ATOM      7  C   UNL     1       7.734  -0.299  -2.086  1.00  0.00     0.008 A 
ATOM      8  C   UNL     1       7.978  -1.267   0.084  1.00  0.00     0.054 A 
ATOM      9  C   UNL     1       8.041  -1.531  -2.634  1.00  0.00     0.051 A 
ATOM     10  C   UNL     1       8.290  -2.510  -0.476  1.00  0.00     0.166 A 
ATOM     11  C   UNL     1       8.321  -2.643  -1.846  1.00  0.00     0.165 A 
ATOM     12  O   UNL     1       8.597  -3.737   0.073  1.00  0.00    -0.454 OA
ATOM     13  O   UNL     1       8.652  -3.962  -2.113  1.00  0.00    -0.454 OA
ATOM     14  C   UNL     1       8.925  -4.668  -0.926  1.00  0.00     0.468 C 
ENDBRANCH   5   6
ENDBRANCH   1   5
TORSDOF 3
ENDMDL
