@<TRIPOS>MOLECULE
/home/cewinharhar/GITHUB/reincatalyze/data/processed/docking_pred/2023-May-24-1506_sub9_nm5_bs15_s42_ex16_mel10_mts10000_k50_ec02_g099_lra3e-4_lrc3e-3/e098785ba58320b640a14c9c91abed0998b2ce53_ligand_9.pdbqt
 14 15 0 0 0
SMALL
GASTEIGER

@<TRIPOS>ATOM
      1  C          5.5400    1.9350    1.2610 C.3     1  UNL1        0.0800
      2  C          5.1240    0.7120    2.0030 C.2     1  UNL1        0.1300
      3  C          6.0440   -0.4420    2.1860 C.3     1  UNL1        0.0870
      4  O          4.0070    0.6230    2.4870 O.2     1  UNL1       -0.3000
      5  C          5.4130    1.7390   -0.2370 C.3     1  UNL1        0.0430
      6  C          6.5770    1.0290   -0.7960 C.2     1  UNL1       -0.0440
      7  C          7.8870    1.4490   -0.5360 C.2     1  UNL1        0.0080
      8  C          6.3840   -0.0770   -1.5920 C.2     1  UNL1        0.0540
      9  C          8.9400    0.7430   -1.0870 C.2     1  UNL1        0.0510
     10  C          7.4530   -0.7880   -2.1460 C.2     1  UNL1        0.1660
     11  C          8.7410   -0.3740   -1.8920 C.2     1  UNL1        0.1650
     12  O          7.5210   -1.9010   -2.9570 O.2     1  UNL1       -0.4540
     13  O          9.5830   -1.2510   -2.5580 O.2     1  UNL1       -0.4540
     14  C          8.8540   -2.2880   -3.1720 C.3     1  UNL1        0.4680
@<TRIPOS>BOND
     1    14    12    1
     2    14    13    1
     3    12    10    1
     4    13    11    1
     5    10    11    2
     6    10     8    1
     7    11     9    1
     8     8     6    2
     9     9     7    2
    10     6     7    1
    11     6     5    1
    12     5     1    1
    13     1     2    1
    14     2     3    1
    15     2     4    2
