@<TRIPOS>MOLECULE
/home/cewinharhar/GITHUB/reincatalyze/data/processed/docking_pred/2023-May-24-1506_sub9_nm5_bs15_s42_ex16_mel10_mts10000_k50_ec02_g099_lra3e-4_lrc3e-3/e1ac879641feb84a16575019a922afe40680d27c_ligand_9.pdbqt
 14 15 0 0 0
SMALL
GASTEIGER

@<TRIPOS>ATOM
      1  C          9.6900    1.3410    2.6440 C.3     1  UNL1        0.0800
      2  C         11.1370    0.9890    2.6860 C.2     1  UNL1        0.1300
      3  C         12.0960    1.7280    3.5490 C.3     1  UNL1        0.0870
      4  O         11.5800    0.0760    2.0070 O.2     1  UNL1       -0.3000
      5  C          9.3280    2.0250    1.3410 C.3     1  UNL1        0.0430
      6  C          8.5700    1.1320    0.4460 C.2     1  UNL1       -0.0440
      7  C          7.1870    0.9650    0.5770 C.2     1  UNL1        0.0080
      8  C          9.2290    0.4420   -0.5460 C.2     1  UNL1        0.0540
      9  C          6.5290    0.1130   -0.2920 C.2     1  UNL1        0.0510
     10  C          8.5590   -0.4180   -1.4220 C.2     1  UNL1        0.1660
     11  C          7.1970   -0.5830   -1.2930 C.2     1  UNL1        0.1650
     12  O          8.9800   -1.2040   -2.4730 O.2     1  UNL1       -0.4540
     13  O          6.8080   -1.4770   -2.2790 O.2     1  UNL1       -0.4540
     14  C          7.8920   -1.8250   -3.1070 C.3     1  UNL1        0.4680
@<TRIPOS>BOND
     1    14    12    1
     2    14    13    1
     3    12    10    1
     4    13    11    1
     5    10    11    2
     6    10     8    1
     7    11     9    1
     8     8     6    2
     9     9     7    2
    10     6     7    1
    11     6     5    1
    12     5     1    1
    13     4     2    2
    14     1     2    1
    15     2     3    1
