@<TRIPOS>MOLECULE
/home/cewinharhar/GITHUB/reincatalyze/data/processed/docking_pred/2023-May-24-1506_sub9_nm5_bs15_s42_ex16_mel10_mts10000_k50_ec02_g099_lra3e-4_lrc3e-3/e1ac879641feb84a16575019a922afe40680d27c_ligand_9.pdbqt
 14 15 0 0 0
SMALL
GASTEIGER

@<TRIPOS>ATOM
      1  C          5.5180    1.8900    1.3220 C.3     1  UNL1        0.0800
      2  C          5.0350    0.6650    2.0190 C.2     1  UNL1        0.1300
      3  C          5.8840   -0.5500    2.1400 C.3     1  UNL1        0.0870
      4  O          3.9200    0.6240    2.5130 O.2     1  UNL1       -0.3000
      5  C          5.4050    1.7480   -0.1830 C.3     1  UNL1        0.0430
      6  C          6.5670    1.0450   -0.7540 C.2     1  UNL1       -0.0440
      7  C          7.8770    1.4570   -0.4870 C.2     1  UNL1        0.0080
      8  C          6.3700   -0.0470   -1.5700 C.2     1  UNL1        0.0540
      9  C          8.9290    0.7570   -1.0510 C.2     1  UNL1        0.0510
     10  C          7.4360   -0.7510   -2.1370 C.2     1  UNL1        0.1660
     11  C          8.7260   -0.3450   -1.8760 C.2     1  UNL1        0.1650
     12  O          7.5010   -1.8490   -2.9680 O.2     1  UNL1       -0.4540
     13  O          9.5650   -1.2130   -2.5580 O.2     1  UNL1       -0.4540
     14  C          8.8330   -2.2360   -3.1900 C.3     1  UNL1        0.4680
@<TRIPOS>BOND
     1    14    12    1
     2    14    13    1
     3    12    10    1
     4    13    11    1
     5    10    11    2
     6    10     8    1
     7    11     9    1
     8     8     6    2
     9     9     7    2
    10     6     7    1
    11     6     5    1
    12     5     1    1
    13     1     2    1
    14     2     3    1
    15     2     4    2
