MODEL 1
REMARK VINA RESULT:      -7.6      0.000      0.000
REMARK SMILES CC(=O)CCc1ccc2c(c1)OCO2
REMARK SMILES IDX 4 1 2 2 1 3 3 4 5 5 6 6 7 7 11 8 8 9 10 10 9 11 12 12 14 13
REMARK SMILES IDX 13 14
REMARK H PARENT
REMARK Flexibility Score: inf
ROOT
ATOM      1  C   UNL     1       5.542   1.917   1.265  1.00  0.00     0.080 C 
ENDROOT
BRANCH   1   2
ATOM      2  C   UNL     1       5.101   0.704   2.007  1.00  0.00     0.130 C 
ATOM      3  C   UNL     1       5.997  -0.470   2.188  1.00  0.00     0.087 C 
ATOM      4  O   UNL     1       3.983   0.637   2.492  1.00  0.00    -0.300 OA
ENDBRANCH   1   2
BRANCH   1   5
ATOM      5  C   UNL     1       5.411   1.725  -0.232  1.00  0.00     0.043 C 
BRANCH   5   6
ATOM      6  C   UNL     1       6.577   1.022  -0.797  1.00  0.00    -0.044 A 
ATOM      7  C   UNL     1       7.885   1.451  -0.545  1.00  0.00     0.008 A 
ATOM      8  C   UNL     1       6.387  -0.087  -1.590  1.00  0.00     0.054 A 
ATOM      9  C   UNL     1       8.940   0.751  -1.101  1.00  0.00     0.051 A 
ATOM     10  C   UNL     1       7.457  -0.792  -2.149  1.00  0.00     0.166 A 
ATOM     11  C   UNL     1       8.744  -0.369  -1.903  1.00  0.00     0.165 A 
ATOM     12  O   UNL     1       7.528  -1.905  -2.959  1.00  0.00    -0.454 OA
ATOM     13  O   UNL     1       9.588  -1.241  -2.573  1.00  0.00    -0.454 OA
ATOM     14  C   UNL     1       8.863  -2.283  -3.181  1.00  0.00     0.468 C 
ENDBRANCH   5   6
ENDBRANCH   1   5
TORSDOF 3
ENDMDL
MODEL 2
REMARK VINA RESULT:      -7.4      1.972      2.384
REMARK SMILES CC(=O)CCc1ccc2c(c1)OCO2
REMARK SMILES IDX 4 1 2 2 1 3 3 4 5 5 6 6 7 7 11 8 8 9 10 10 9 11 12 12 14 13
REMARK SMILES IDX 13 14
REMARK H PARENT
REMARK Flexibility Score: inf
ROOT
ATOM      1  C   UNL     1       5.726   1.429  -0.203  1.00  0.00     0.080 C 
ENDROOT
BRANCH   1   2
ATOM      2  C   UNL     1       5.037   1.257   1.106  1.00  0.00     0.130 C 
ATOM      3  C   UNL     1       5.282   0.070   1.968  1.00  0.00     0.087 C 
ATOM      4  O   UNL     1       4.245   2.093   1.511  1.00  0.00    -0.300 OA
ENDBRANCH   1   2
BRANCH   1   5
ATOM      5  C   UNL     1       7.211   1.150  -0.084  1.00  0.00     0.043 C 
BRANCH   5   6
ATOM      6  C   UNL     1       7.575  -0.143  -0.692  1.00  0.00    -0.044 A 
ATOM      7  C   UNL     1       7.575  -0.326  -2.079  1.00  0.00     0.008 A 
ATOM      8  C   UNL     1       7.928  -1.201   0.115  1.00  0.00     0.054 A 
ATOM      9  C   UNL     1       7.926  -1.561  -2.593  1.00  0.00     0.051 A 
ATOM     10  C   UNL     1       8.283  -2.447  -0.409  1.00  0.00     0.166 A 
ATOM     11  C   UNL     1       8.282  -2.629  -1.775  1.00  0.00     0.165 A 
ATOM     12  O   UNL     1       8.665  -3.637   0.173  1.00  0.00    -0.454 OA
ATOM     13  O   UNL     1       8.668  -3.940  -2.005  1.00  0.00    -0.454 OA
ATOM     14  C   UNL     1       9.009  -4.588  -0.802  1.00  0.00     0.468 C 
ENDBRANCH   5   6
ENDBRANCH   1   5
TORSDOF 3
ENDMDL
MODEL 3
REMARK VINA RESULT:      -7.2      2.093      2.623
REMARK SMILES CC(=O)CCc1ccc2c(c1)OCO2
REMARK SMILES IDX 4 1 2 2 1 3 3 4 5 5 6 6 7 7 11 8 8 9 10 10 9 11 12 12 14 13
REMARK SMILES IDX 13 14
REMARK H PARENT
REMARK Flexibility Score: inf
ROOT
ATOM      1  C   UNL     1       5.620   0.003   1.970  1.00  0.00     0.080 C 
ENDROOT
BRANCH   1   2
ATOM      2  C   UNL     1       4.695   1.126   1.652  1.00  0.00     0.130 C 
ATOM      3  C   UNL     1       4.950   2.050   0.515  1.00  0.00     0.087 C 
ATOM      4  O   UNL     1       3.693   1.322   2.322  1.00  0.00    -0.300 OA
ENDBRANCH   1   2
BRANCH   1   5
ATOM      5  C   UNL     1       7.016   0.275   1.447  1.00  0.00     0.043 C 
BRANCH   5   6
ATOM      6  C   UNL     1       7.411  -0.698   0.413  1.00  0.00    -0.044 A 
ATOM      7  C   UNL     1       7.294  -0.406  -0.951  1.00  0.00     0.008 A 
ATOM      8  C   UNL     1       7.912  -1.925   0.786  1.00  0.00     0.054 A 
ATOM      9  C   UNL     1       7.681  -1.358  -1.877  1.00  0.00     0.051 A 
ATOM     10  C   UNL     1       8.303  -2.883  -0.154  1.00  0.00     0.166 A 
ATOM     11  C   UNL     1       8.186  -2.598  -1.496  1.00  0.00     0.165 A 
ATOM     12  O   UNL     1       8.821  -4.156  -0.039  1.00  0.00    -0.454 OA
ATOM     13  O   UNL     1       8.641  -3.712  -2.184  1.00  0.00    -0.454 OA
ATOM     14  C   UNL     1       9.137  -4.688  -1.299  1.00  0.00     0.468 C 
ENDBRANCH   5   6
ENDBRANCH   1   5
TORSDOF 3
ENDMDL
MODEL 4
REMARK VINA RESULT:      -7.1      1.259      1.470
REMARK SMILES CC(=O)CCc1ccc2c(c1)OCO2
REMARK SMILES IDX 4 1 2 2 1 3 3 4 5 5 6 6 7 7 11 8 8 9 10 10 9 11 12 12 14 13
REMARK SMILES IDX 13 14
REMARK H PARENT
REMARK Flexibility Score: inf
ROOT
ATOM      1  C   UNL     1       6.392   1.192   0.949  1.00  0.00     0.080 C 
ENDROOT
BRANCH   1   2
ATOM      2  C   UNL     1       5.655   0.376   1.953  1.00  0.00     0.130 C 
ATOM      3  C   UNL     1       6.247  -0.852   2.548  1.00  0.00     0.087 C 
ATOM      4  O   UNL     1       4.535   0.694   2.319  1.00  0.00    -0.300 OA
ENDBRANCH   1   2
BRANCH   1   5
ATOM      5  C   UNL     1       5.883   0.929  -0.455  1.00  0.00     0.043 C 
BRANCH   5   6
ATOM      6  C   UNL     1       6.822   0.099  -1.230  1.00  0.00    -0.044 A 
ATOM      7  C   UNL     1       7.494   0.603  -2.350  1.00  0.00     0.008 A 
ATOM      8  C   UNL     1       7.054  -1.204  -0.851  1.00  0.00     0.054 A 
ATOM      9  C   UNL     1       8.365  -0.222  -3.038  1.00  0.00     0.051 A 
ATOM     10  C   UNL     1       7.936  -2.034  -1.550  1.00  0.00     0.166 A 
ATOM     11  C   UNL     1       8.596  -1.539  -2.652  1.00  0.00     0.165 A 
ATOM     12  O   UNL     1       8.330  -3.344  -1.377  1.00  0.00    -0.454 OA
ATOM     13  O   UNL     1       9.391  -2.565  -3.138  1.00  0.00    -0.454 OA
ATOM     14  C   UNL     1       9.322  -3.699  -2.306  1.00  0.00     0.468 C 
ENDBRANCH   5   6
ENDBRANCH   1   5
TORSDOF 3
ENDMDL
MODEL 5
REMARK VINA RESULT:      -6.8      1.197      5.196
REMARK SMILES CC(=O)CCc1ccc2c(c1)OCO2
REMARK SMILES IDX 4 1 2 2 1 3 3 4 5 5 6 6 7 7 11 8 8 9 10 10 9 11 12 12 14 13
REMARK SMILES IDX 13 14
REMARK H PARENT
REMARK Flexibility Score: inf
ROOT
ATOM      1  C   UNL     1       8.269   0.250  -2.579  1.00  0.00     0.080 C 
ENDROOT
BRANCH   1   2
ATOM      2  C   UNL     1       7.972  -1.205  -2.696  1.00  0.00     0.130 C 
ATOM      3  C   UNL     1       9.040  -2.199  -2.985  1.00  0.00     0.087 C 
ATOM      4  O   UNL     1       6.835  -1.626  -2.557  1.00  0.00    -0.300 OA
ENDBRANCH   1   2
BRANCH   1   5
ATOM      5  C   UNL     1       8.765   0.600  -1.190  1.00  0.00     0.043 C 
BRANCH   5   6
ATOM      6  C   UNL     1       7.710   0.436  -0.175  1.00  0.00    -0.044 A 
ATOM      7  C   UNL     1       7.761  -0.589   0.777  1.00  0.00     0.008 A 
ATOM      8  C   UNL     1       6.645   1.307  -0.151  1.00  0.00     0.054 A 
ATOM      9  C   UNL     1       6.742  -0.693   1.706  1.00  0.00     0.051 A 
ATOM     10  C   UNL     1       5.617   1.198   0.791  1.00  0.00     0.166 A 
ATOM     11  C   UNL     1       5.666   0.189   1.727  1.00  0.00     0.165 A 
ATOM     12  O   UNL     1       4.469   1.926   1.018  1.00  0.00    -0.454 OA
ATOM     13  O   UNL     1       4.536   0.321   2.519  1.00  0.00    -0.454 OA
ATOM     14  C   UNL     1       3.796   1.464   2.161  1.00  0.00     0.468 C 
ENDBRANCH   5   6
ENDBRANCH   1   5
TORSDOF 3
ENDMDL
