@<TRIPOS>MOLECULE
/home/cewinharhar/GITHUB/reincatalyze/data/processed/docking_pred/2023-May-24-1506_sub9_nm5_bs15_s42_ex16_mel10_mts10000_k50_ec02_g099_lra3e-4_lrc3e-3/e3e0f9713a2c6d1770d60d03407d62bfa70f046f_ligand_9.pdbqt
 14 15 0 0 0
SMALL
GASTEIGER

@<TRIPOS>ATOM
      1  C          5.7260    1.4290   -0.2030 C.3     1  UNL1        0.0800
      2  C          5.0370    1.2570    1.1060 C.2     1  UNL1        0.1300
      3  C          5.2820    0.0700    1.9680 C.3     1  UNL1        0.0870
      4  O          4.2450    2.0930    1.5110 O.2     1  UNL1       -0.3000
      5  C          7.2110    1.1500   -0.0840 C.3     1  UNL1        0.0430
      6  C          7.5750   -0.1430   -0.6920 C.2     1  UNL1       -0.0440
      7  C          7.5750   -0.3260   -2.0790 C.2     1  UNL1        0.0080
      8  C          7.9280   -1.2010    0.1150 C.2     1  UNL1        0.0540
      9  C          7.9260   -1.5610   -2.5930 C.2     1  UNL1        0.0510
     10  C          8.2830   -2.4470   -0.4090 C.2     1  UNL1        0.1660
     11  C          8.2820   -2.6290   -1.7750 C.2     1  UNL1        0.1650
     12  O          8.6650   -3.6370    0.1730 O.2     1  UNL1       -0.4540
     13  O          8.6680   -3.9400   -2.0050 O.2     1  UNL1       -0.4540
     14  C          9.0090   -4.5880   -0.8020 C.3     1  UNL1        0.4680
@<TRIPOS>BOND
     1     9     7    1
     2     9    11    2
     3     7     6    2
     4    13    11    1
     5    13    14    1
     6    11    10    1
     7    14    12    1
     8     6     5    1
     9     6     8    1
    10    10     8    2
    11    10    12    1
    12     1     5    1
    13     1     2    1
    14     2     4    2
    15     2     3    1
