@<TRIPOS>MOLECULE
/home/cewinharhar/GITHUB/reincatalyze/data/processed/docking_pred/2023-May-24-1506_sub9_nm5_bs15_s42_ex16_mel10_mts10000_k50_ec02_g099_lra3e-4_lrc3e-3/e3e22a08cc3fa656d2264310e8071e645bf38a06_ligand_9.pdbqt
 14 15 0 0 0
SMALL
GASTEIGER

@<TRIPOS>ATOM
      1  C          6.3720    1.1760    0.9380 C.3     1  UNL1        0.0800
      2  C          5.6570    0.3500    1.9500 C.2     1  UNL1        0.1300
      3  C          6.2590   -0.8880    2.5140 C.3     1  UNL1        0.0870
      4  O          4.5480    0.6670    2.3480 O.2     1  UNL1       -0.3000
      5  C          5.8600    0.8980   -0.4610 C.3     1  UNL1        0.0430
      6  C          6.8100    0.0830   -1.2390 C.2     1  UNL1       -0.0440
      7  C          7.4850    0.6030   -2.3490 C.2     1  UNL1        0.0080
      8  C          7.0470   -1.2230   -0.8730 C.2     1  UNL1        0.0540
      9  C          8.3660   -0.2090   -3.0400 C.2     1  UNL1        0.0510
     10  C          7.9390   -2.0400   -1.5750 C.2     1  UNL1        0.1660
     11  C          8.6030   -1.5280   -2.6670 C.2     1  UNL1        0.1650
     12  O          8.3400   -3.3490   -1.4130 O.2     1  UNL1       -0.4540
     13  O          9.4080   -2.5440   -3.1590 O.2     1  UNL1       -0.4540
     14  C          9.3410   -3.6870   -2.3390 C.3     1  UNL1        0.4680
@<TRIPOS>BOND
     1    13    11    1
     2    13    14    1
     3     9    11    2
     4     9     7    1
     5    11    10    1
     6     7     6    2
     7    14    12    1
     8    10    12    1
     9    10     8    2
    10     6     8    1
    11     6     5    1
    12     5     1    1
    13     1     2    1
    14     2     4    2
    15     2     3    1
