MODEL 1
REMARK VINA RESULT:      -7.6      0.000      0.000
REMARK SMILES CC(=O)CCc1ccc2c(c1)OCO2
REMARK SMILES IDX 4 1 2 2 1 3 3 4 5 5 6 6 7 7 11 8 8 9 10 10 9 11 12 12 14 13
REMARK SMILES IDX 13 14
REMARK H PARENT
REMARK Flexibility Score: inf
ROOT
ATOM      1  C   UNL     1       5.532   1.921   1.250  1.00  0.00     0.080 C 
ENDROOT
BRANCH   1   2
ATOM      2  C   UNL     1       5.098   0.715   2.009  1.00  0.00     0.130 C 
ATOM      3  C   UNL     1       5.996  -0.457   2.192  1.00  0.00     0.087 C 
ATOM      4  O   UNL     1       3.985   0.653   2.505  1.00  0.00    -0.300 OA
ENDBRANCH   1   2
BRANCH   1   5
ATOM      5  C   UNL     1       5.396   1.709  -0.245  1.00  0.00     0.043 C 
BRANCH   5   6
ATOM      6  C   UNL     1       6.568   1.014  -0.806  1.00  0.00    -0.044 A 
ATOM      7  C   UNL     1       7.872   1.459  -0.561  1.00  0.00     0.008 A 
ATOM      8  C   UNL     1       6.387  -0.103  -1.590  1.00  0.00     0.054 A 
ATOM      9  C   UNL     1       8.933   0.766  -1.114  1.00  0.00     0.051 A 
ATOM     10  C   UNL     1       7.464  -0.801  -2.147  1.00  0.00     0.166 A 
ATOM     11  C   UNL     1       8.747  -0.362  -1.907  1.00  0.00     0.165 A 
ATOM     12  O   UNL     1       7.545  -1.920  -2.948  1.00  0.00    -0.454 OA
ATOM     13  O   UNL     1       9.598  -1.231  -2.572  1.00  0.00    -0.454 OA
ATOM     14  C   UNL     1       8.882  -2.286  -3.169  1.00  0.00     0.468 C 
ENDBRANCH   5   6
ENDBRANCH   1   5
TORSDOF 3
ENDMDL
MODEL 2
REMARK VINA RESULT:      -7.4      1.874      2.361
REMARK SMILES CC(=O)CCc1ccc2c(c1)OCO2
REMARK SMILES IDX 4 1 2 2 1 3 3 4 5 5 6 6 7 7 11 8 8 9 10 10 9 11 12 12 14 13
REMARK SMILES IDX 13 14
REMARK H PARENT
REMARK Flexibility Score: inf
ROOT
ATOM      1  C   UNL     1       5.758   1.406  -0.336  1.00  0.00     0.080 C 
ENDROOT
BRANCH   1   2
ATOM      2  C   UNL     1       5.093   1.311   0.993  1.00  0.00     0.130 C 
ATOM      3  C   UNL     1       5.387   0.198   1.935  1.00  0.00     0.087 C 
ATOM      4  O   UNL     1       4.282   2.149   1.350  1.00  0.00    -0.300 OA
ENDBRANCH   1   2
BRANCH   1   5
ATOM      5  C   UNL     1       7.241   1.111  -0.233  1.00  0.00     0.043 C 
BRANCH   5   6
ATOM      6  C   UNL     1       7.589  -0.170  -0.873  1.00  0.00    -0.044 A 
ATOM      7  C   UNL     1       7.597  -0.315  -2.265  1.00  0.00     0.008 A 
ATOM      8  C   UNL     1       7.920  -1.255  -0.093  1.00  0.00     0.054 A 
ATOM      9  C   UNL     1       7.933  -1.541  -2.810  1.00  0.00     0.051 A 
ATOM     10  C   UNL     1       8.259  -2.492  -0.649  1.00  0.00     0.166 A 
ATOM     11  C   UNL     1       8.265  -2.636  -2.019  1.00  0.00     0.165 A 
ATOM     12  O   UNL     1       8.619  -3.703  -0.097  1.00  0.00    -0.454 OA
ATOM     13  O   UNL     1       8.634  -3.946  -2.282  1.00  0.00    -0.454 OA
ATOM     14  C   UNL     1       8.955  -4.632  -1.095  1.00  0.00     0.468 C 
ENDBRANCH   5   6
ENDBRANCH   1   5
TORSDOF 3
ENDMDL
MODEL 3
REMARK VINA RESULT:      -7.2      2.064      2.624
REMARK SMILES CC(=O)CCc1ccc2c(c1)OCO2
REMARK SMILES IDX 4 1 2 2 1 3 3 4 5 5 6 6 7 7 11 8 8 9 10 10 9 11 12 12 14 13
REMARK SMILES IDX 13 14
REMARK H PARENT
REMARK Flexibility Score: inf
ROOT
ATOM      1  C   UNL     1       5.461  -0.006   2.012  1.00  0.00     0.080 C 
ENDROOT
BRANCH   1   2
ATOM      2  C   UNL     1       4.579   1.164   1.744  1.00  0.00     0.130 C 
ATOM      3  C   UNL     1       4.887   2.143   0.667  1.00  0.00     0.087 C 
ATOM      4  O   UNL     1       3.572   1.355   2.406  1.00  0.00    -0.300 OA
ENDBRANCH   1   2
BRANCH   1   5
ATOM      5  C   UNL     1       6.880   0.257   1.550  1.00  0.00     0.043 C 
BRANCH   5   6
ATOM      6  C   UNL     1       7.300  -0.694   0.505  1.00  0.00    -0.044 A 
ATOM      7  C   UNL     1       7.180  -0.389  -0.855  1.00  0.00     0.008 A 
ATOM      8  C   UNL     1       7.825  -1.915   0.865  1.00  0.00     0.054 A 
ATOM      9  C   UNL     1       7.592  -1.321  -1.791  1.00  0.00     0.051 A 
ATOM     10  C   UNL     1       8.240  -2.853  -0.085  1.00  0.00     0.166 A 
ATOM     11  C   UNL     1       8.122  -2.553  -1.424  1.00  0.00     0.165 A 
ATOM     12  O   UNL     1       8.785  -4.115   0.017  1.00  0.00    -0.454 OA
ATOM     13  O   UNL     1       8.603  -3.649  -2.124  1.00  0.00    -0.454 OA
ATOM     14  C   UNL     1       9.117  -4.625  -1.249  1.00  0.00     0.468 C 
ENDBRANCH   5   6
ENDBRANCH   1   5
TORSDOF 3
ENDMDL
MODEL 4
REMARK VINA RESULT:      -7.1      1.251      1.460
REMARK SMILES CC(=O)CCc1ccc2c(c1)OCO2
REMARK SMILES IDX 4 1 2 2 1 3 3 4 5 5 6 6 7 7 11 8 8 9 10 10 9 11 12 12 14 13
REMARK SMILES IDX 13 14
REMARK H PARENT
REMARK Flexibility Score: inf
ROOT
ATOM      1  C   UNL     1       6.372   1.176   0.938  1.00  0.00     0.080 C 
ENDROOT
BRANCH   1   2
ATOM      2  C   UNL     1       5.657   0.350   1.950  1.00  0.00     0.130 C 
ATOM      3  C   UNL     1       6.259  -0.888   2.514  1.00  0.00     0.087 C 
ATOM      4  O   UNL     1       4.548   0.667   2.348  1.00  0.00    -0.300 OA
ENDBRANCH   1   2
BRANCH   1   5
ATOM      5  C   UNL     1       5.860   0.898  -0.461  1.00  0.00     0.043 C 
BRANCH   5   6
ATOM      6  C   UNL     1       6.810   0.083  -1.239  1.00  0.00    -0.044 A 
ATOM      7  C   UNL     1       7.485   0.603  -2.349  1.00  0.00     0.008 A 
ATOM      8  C   UNL     1       7.047  -1.223  -0.873  1.00  0.00     0.054 A 
ATOM      9  C   UNL     1       8.366  -0.209  -3.040  1.00  0.00     0.051 A 
ATOM     10  C   UNL     1       7.939  -2.040  -1.575  1.00  0.00     0.166 A 
ATOM     11  C   UNL     1       8.603  -1.528  -2.667  1.00  0.00     0.165 A 
ATOM     12  O   UNL     1       8.340  -3.349  -1.413  1.00  0.00    -0.454 OA
ATOM     13  O   UNL     1       9.408  -2.544  -3.159  1.00  0.00    -0.454 OA
ATOM     14  C   UNL     1       9.341  -3.687  -2.339  1.00  0.00     0.468 C 
ENDBRANCH   5   6
ENDBRANCH   1   5
TORSDOF 3
ENDMDL
MODEL 5
REMARK VINA RESULT:      -6.8      1.193      5.172
REMARK SMILES CC(=O)CCc1ccc2c(c1)OCO2
REMARK SMILES IDX 4 1 2 2 1 3 3 4 5 5 6 6 7 7 11 8 8 9 10 10 9 11 12 12 14 13
REMARK SMILES IDX 13 14
REMARK H PARENT
REMARK Flexibility Score: inf
ROOT
ATOM      1  C   UNL     1       8.319   0.171  -2.720  1.00  0.00     0.080 C 
ENDROOT
BRANCH   1   2
ATOM      2  C   UNL     1       8.055  -1.293  -2.795  1.00  0.00     0.130 C 
ATOM      3  C   UNL     1       9.151  -2.274  -3.016  1.00  0.00     0.087 C 
ATOM      4  O   UNL     1       6.922  -1.733  -2.679  1.00  0.00    -0.300 OA
ENDBRANCH   1   2
BRANCH   1   5
ATOM      5  C   UNL     1       8.859   0.563  -1.359  1.00  0.00     0.043 C 
BRANCH   5   6
ATOM      6  C   UNL     1       7.839   0.420  -0.304  1.00  0.00    -0.044 A 
ATOM      7  C   UNL     1       7.965  -0.534   0.712  1.00  0.00     0.008 A 
ATOM      8  C   UNL     1       6.735   1.241  -0.307  1.00  0.00     0.054 A 
ATOM      9  C   UNL     1       6.977  -0.622   1.676  1.00  0.00     0.051 A 
ATOM     10  C   UNL     1       5.739   1.149   0.670  1.00  0.00     0.166 A 
ATOM     11  C   UNL     1       5.861   0.209   1.669  1.00  0.00     0.165 A 
ATOM     12  O   UNL     1       4.564   1.838   0.881  1.00  0.00    -0.454 OA
ATOM     13  O   UNL     1       4.747   0.343   2.483  1.00  0.00    -0.454 OA
ATOM     14  C   UNL     1       3.944   1.424   2.072  1.00  0.00     0.468 C 
ENDBRANCH   5   6
ENDBRANCH   1   5
TORSDOF 3
ENDMDL
