@<TRIPOS>MOLECULE
/home/cewinharhar/GITHUB/reincatalyze/data/processed/docking_pred/2023-May-24-1506_sub9_nm5_bs15_s42_ex16_mel10_mts10000_k50_ec02_g099_lra3e-4_lrc3e-3/e3e22a08cc3fa656d2264310e8071e645bf38a06_ligand_9.pdbqt
 14 15 0 0 0
SMALL
GASTEIGER

@<TRIPOS>ATOM
      1  C          5.7580    1.4060   -0.3360 C.3     1  UNL1        0.0800
      2  C          5.0930    1.3110    0.9930 C.2     1  UNL1        0.1300
      3  C          5.3870    0.1980    1.9350 C.3     1  UNL1        0.0870
      4  O          4.2820    2.1490    1.3500 O.2     1  UNL1       -0.3000
      5  C          7.2410    1.1110   -0.2330 C.3     1  UNL1        0.0430
      6  C          7.5890   -0.1700   -0.8730 C.2     1  UNL1       -0.0440
      7  C          7.5970   -0.3150   -2.2650 C.2     1  UNL1        0.0080
      8  C          7.9200   -1.2550   -0.0930 C.2     1  UNL1        0.0540
      9  C          7.9330   -1.5410   -2.8100 C.2     1  UNL1        0.0510
     10  C          8.2590   -2.4920   -0.6490 C.2     1  UNL1        0.1660
     11  C          8.2650   -2.6360   -2.0190 C.2     1  UNL1        0.1650
     12  O          8.6190   -3.7030   -0.0970 O.2     1  UNL1       -0.4540
     13  O          8.6340   -3.9460   -2.2820 O.2     1  UNL1       -0.4540
     14  C          8.9550   -4.6320   -1.0950 C.3     1  UNL1        0.4680
@<TRIPOS>BOND
     1     9     7    1
     2     9    11    2
     3    13    11    1
     4    13    14    1
     5     7     6    2
     6    11    10    1
     7    14    12    1
     8     6     5    1
     9     6     8    1
    10    10    12    1
    11    10     8    2
    12     1     5    1
    13     1     2    1
    14     2     4    2
    15     2     3    1
