@<TRIPOS>MOLECULE
/home/cewinharhar/GITHUB/reincatalyze/data/processed/docking_pred/2023-May-24-1506_sub9_nm5_bs15_s42_ex16_mel10_mts10000_k50_ec02_g099_lra3e-4_lrc3e-3/e3e22a08cc3fa656d2264310e8071e645bf38a06_ligand_9.pdbqt
 14 15 0 0 0
SMALL
GASTEIGER

@<TRIPOS>ATOM
      1  C          8.3190    0.1710   -2.7200 C.3     1  UNL1        0.0800
      2  C          8.0550   -1.2930   -2.7950 C.2     1  UNL1        0.1300
      3  C          9.1510   -2.2740   -3.0160 C.3     1  UNL1        0.0870
      4  O          6.9220   -1.7330   -2.6790 O.2     1  UNL1       -0.3000
      5  C          8.8590    0.5630   -1.3590 C.3     1  UNL1        0.0430
      6  C          7.8390    0.4200   -0.3040 C.2     1  UNL1       -0.0440
      7  C          7.9650   -0.5340    0.7120 C.2     1  UNL1        0.0080
      8  C          6.7350    1.2410   -0.3070 C.2     1  UNL1        0.0540
      9  C          6.9770   -0.6220    1.6760 C.2     1  UNL1        0.0510
     10  C          5.7390    1.1490    0.6700 C.2     1  UNL1        0.1660
     11  C          5.8610    0.2090    1.6690 C.2     1  UNL1        0.1650
     12  O          4.5640    1.8380    0.8810 O.2     1  UNL1       -0.4540
     13  O          4.7470    0.3430    2.4830 O.2     1  UNL1       -0.4540
     14  C          3.9440    1.4240    2.0720 C.3     1  UNL1        0.4680
@<TRIPOS>BOND
     1     3     2    1
     2     2     1    1
     3     2     4    2
     4     1     5    1
     5     5     6    1
     6     8     6    2
     7     8    10    1
     8     6     7    1
     9    10    12    1
    10    10    11    2
    11     7     9    2
    12    12    14    1
    13    11     9    1
    14    11    13    1
    15    14    13    1
