@<TRIPOS>MOLECULE
/home/cewinharhar/GITHUB/reincatalyze/data/processed/docking_pred/2023-May-24-1506_sub9_nm5_bs15_s42_ex16_mel10_mts10000_k50_ec02_g099_lra3e-4_lrc3e-3/e3fbdfe9b196bdc40f83d7817e536621cd4b8c1b_ligand_9.pdbqt
 14 15 0 0 0
SMALL
GASTEIGER

@<TRIPOS>ATOM
      1  C          8.2690    0.2500   -2.5790 C.3     1  UNL1        0.0800
      2  C          7.9720   -1.2050   -2.6960 C.2     1  UNL1        0.1300
      3  C          9.0400   -2.1990   -2.9850 C.3     1  UNL1        0.0870
      4  O          6.8350   -1.6260   -2.5570 O.2     1  UNL1       -0.3000
      5  C          8.7650    0.6000   -1.1900 C.3     1  UNL1        0.0430
      6  C          7.7100    0.4360   -0.1750 C.2     1  UNL1       -0.0440
      7  C          7.7610   -0.5890    0.7770 C.2     1  UNL1        0.0080
      8  C          6.6450    1.3070   -0.1510 C.2     1  UNL1        0.0540
      9  C          6.7420   -0.6930    1.7060 C.2     1  UNL1        0.0510
     10  C          5.6170    1.1980    0.7910 C.2     1  UNL1        0.1660
     11  C          5.6660    0.1890    1.7270 C.2     1  UNL1        0.1650
     12  O          4.4690    1.9260    1.0180 O.2     1  UNL1       -0.4540
     13  O          4.5360    0.3210    2.5190 O.2     1  UNL1       -0.4540
     14  C          3.7960    1.4640    2.1610 C.3     1  UNL1        0.4680
@<TRIPOS>BOND
     1     3     2    1
     2     2     1    1
     3     2     4    2
     4     1     5    1
     5     5     6    1
     6     6     8    2
     7     6     7    1
     8     8    10    1
     9     7     9    2
    10    10    12    1
    11    10    11    2
    12    12    14    1
    13     9    11    1
    14    11    13    1
    15    14    13    1
