@<TRIPOS>MOLECULE
/home/cewinharhar/GITHUB/reincatalyze/data/processed/docking_pred/2023-May-24-1506_sub9_nm5_bs15_s42_ex16_mel10_mts10000_k50_ec02_g099_lra3e-4_lrc3e-3/e5153a6a2872aa0f73be7da8df97a591d10f8a10_ligand_9.pdbqt
 14 15 0 0 0
SMALL
GASTEIGER

@<TRIPOS>ATOM
      1  C          8.2750    0.2000   -2.6780 C.3     1  UNL1        0.0800
      2  C          8.0330   -1.2660   -2.7710 C.2     1  UNL1        0.1300
      3  C          9.1420   -2.2260   -3.0200 C.3     1  UNL1        0.0870
      4  O          6.9100   -1.7260   -2.6450 O.2     1  UNL1       -0.3000
      5  C          8.8010    0.5860   -1.3090 C.3     1  UNL1        0.0430
      6  C          7.7710    0.4330   -0.2660 C.2     1  UNL1       -0.0440
      7  C          7.8770   -0.5460    0.7300 C.2     1  UNL1        0.0080
      8  C          6.6770    1.2680   -0.2580 C.2     1  UNL1        0.0540
      9  C          6.8810   -0.6420    1.6840 C.2     1  UNL1        0.0510
     10  C          5.6730    1.1660    0.7090 C.2     1  UNL1        0.1660
     11  C          5.7760    0.2030    1.6880 C.2     1  UNL1        0.1650
     12  O          4.5050    1.8660    0.9280 O.2     1  UNL1       -0.4540
     13  O          4.6580    0.3330    2.4970 O.2     1  UNL1       -0.4540
     14  C          3.8720    1.4330    2.1050 C.3     1  UNL1        0.4680
@<TRIPOS>BOND
     1     3     2    1
     2     2     1    1
     3     2     4    2
     4     1     5    1
     5     5     6    1
     6     6     8    2
     7     6     7    1
     8     8    10    1
     9    10    12    1
    10    10    11    2
    11     7     9    2
    12    12    14    1
    13     9    11    1
    14    11    13    1
    15    14    13    1
