MODEL 1
REMARK VINA RESULT:      -7.6      0.000      0.000
REMARK SMILES CC(=O)CCc1ccc2c(c1)OCO2
REMARK SMILES IDX 4 1 2 2 1 3 3 4 5 5 6 6 7 7 11 8 8 9 10 10 9 11 12 12 14 13
REMARK SMILES IDX 13 14
REMARK H PARENT
REMARK Flexibility Score: inf
ROOT
ATOM      1  C   UNL     1       5.502   1.926   1.256  1.00  0.00     0.080 C 
ENDROOT
BRANCH   1   2
ATOM      2  C   UNL     1       5.065   0.710   1.998  1.00  0.00     0.130 C 
ATOM      3  C   UNL     1       5.960  -0.466   2.164  1.00  0.00     0.087 C 
ATOM      4  O   UNL     1       3.952   0.645   2.494  1.00  0.00    -0.300 OA
ENDBRANCH   1   2
BRANCH   1   5
ATOM      5  C   UNL     1       5.380   1.730  -0.242  1.00  0.00     0.043 C 
BRANCH   5   6
ATOM      6  C   UNL     1       6.550   1.027  -0.798  1.00  0.00    -0.044 A 
ATOM      7  C   UNL     1       7.856   1.456  -0.534  1.00  0.00     0.008 A 
ATOM      8  C   UNL     1       6.366  -0.079  -1.596  1.00  0.00     0.054 A 
ATOM      9  C   UNL     1       8.915   0.756  -1.083  1.00  0.00     0.051 A 
ATOM     10  C   UNL     1       7.440  -0.783  -2.147  1.00  0.00     0.166 A 
ATOM     11  C   UNL     1       8.726  -0.362  -1.889  1.00  0.00     0.165 A 
ATOM     12  O   UNL     1       7.518  -1.895  -2.959  1.00  0.00    -0.454 OA
ATOM     13  O   UNL     1       9.574  -1.233  -2.554  1.00  0.00    -0.454 OA
ATOM     14  C   UNL     1       8.854  -2.273  -3.170  1.00  0.00     0.468 C 
ENDBRANCH   5   6
ENDBRANCH   1   5
TORSDOF 3
ENDMDL
MODEL 2
REMARK VINA RESULT:      -7.3      1.857      2.305
REMARK SMILES CC(=O)CCc1ccc2c(c1)OCO2
REMARK SMILES IDX 4 1 2 2 1 3 3 4 5 5 6 6 7 7 11 8 8 9 10 10 9 11 12 12 14 13
REMARK SMILES IDX 13 14
REMARK H PARENT
REMARK Flexibility Score: inf
ROOT
ATOM      1  C   UNL     1       5.745   1.501  -0.257  1.00  0.00     0.080 C 
ENDROOT
BRANCH   1   2
ATOM      2  C   UNL     1       5.097   1.305   1.069  1.00  0.00     0.130 C 
ATOM      3  C   UNL     1       5.454   0.162   1.952  1.00  0.00     0.087 C 
ATOM      4  O   UNL     1       4.247   2.083   1.473  1.00  0.00    -0.300 OA
ENDBRANCH   1   2
BRANCH   1   5
ATOM      5  C   UNL     1       7.234   1.224  -0.189  1.00  0.00     0.043 C 
BRANCH   5   6
ATOM      6  C   UNL     1       7.581  -0.059  -0.827  1.00  0.00    -0.044 A 
ATOM      7  C   UNL     1       7.571  -0.212  -2.218  1.00  0.00     0.008 A 
ATOM      8  C   UNL     1       7.927  -1.138  -0.045  1.00  0.00     0.054 A 
ATOM      9  C   UNL     1       7.906  -1.440  -2.760  1.00  0.00     0.051 A 
ATOM     10  C   UNL     1       8.266  -2.376  -0.598  1.00  0.00     0.166 A 
ATOM     11  C   UNL     1       8.255  -2.529  -1.967  1.00  0.00     0.165 A 
ATOM     12  O   UNL     1       8.638  -3.582  -0.044  1.00  0.00    -0.454 OA
ATOM     13  O   UNL     1       8.627  -3.838  -2.227  1.00  0.00    -0.454 OA
ATOM     14  C   UNL     1       8.967  -4.516  -1.041  1.00  0.00     0.468 C 
ENDBRANCH   5   6
ENDBRANCH   1   5
TORSDOF 3
ENDMDL
MODEL 3
REMARK VINA RESULT:      -7.1      2.068      2.630
REMARK SMILES CC(=O)CCc1ccc2c(c1)OCO2
REMARK SMILES IDX 4 1 2 2 1 3 3 4 5 5 6 6 7 7 11 8 8 9 10 10 9 11 12 12 14 13
REMARK SMILES IDX 13 14
REMARK H PARENT
REMARK Flexibility Score: inf
ROOT
ATOM      1  C   UNL     1       5.450  -0.028   2.005  1.00  0.00     0.080 C 
ENDROOT
BRANCH   1   2
ATOM      2  C   UNL     1       4.580   1.156   1.762  1.00  0.00     0.130 C 
ATOM      3  C   UNL     1       4.887   2.145   0.695  1.00  0.00     0.087 C 
ATOM      4  O   UNL     1       3.582   1.350   2.438  1.00  0.00    -0.300 OA
ENDBRANCH   1   2
BRANCH   1   5
ATOM      5  C   UNL     1       6.873   0.233   1.553  1.00  0.00     0.043 C 
BRANCH   5   6
ATOM      6  C   UNL     1       7.294  -0.711   0.502  1.00  0.00    -0.044 A 
ATOM      7  C   UNL     1       7.163  -0.402  -0.856  1.00  0.00     0.008 A 
ATOM      8  C   UNL     1       7.833  -1.928   0.855  1.00  0.00     0.054 A 
ATOM      9  C   UNL     1       7.576  -1.327  -1.798  1.00  0.00     0.051 A 
ATOM     10  C   UNL     1       8.250  -2.859  -0.101  1.00  0.00     0.166 A 
ATOM     11  C   UNL     1       8.119  -2.557  -1.438  1.00  0.00     0.165 A 
ATOM     12  O   UNL     1       8.807  -4.117  -0.007  1.00  0.00    -0.454 OA
ATOM     13  O   UNL     1       8.605  -3.646  -2.145  1.00  0.00    -0.454 OA
ATOM     14  C   UNL     1       9.135  -4.619  -1.277  1.00  0.00     0.468 C 
ENDBRANCH   5   6
ENDBRANCH   1   5
TORSDOF 3
ENDMDL
MODEL 4
REMARK VINA RESULT:      -7.0      1.245      1.435
REMARK SMILES CC(=O)CCc1ccc2c(c1)OCO2
REMARK SMILES IDX 4 1 2 2 1 3 3 4 5 5 6 6 7 7 11 8 8 9 10 10 9 11 12 12 14 13
REMARK SMILES IDX 13 14
REMARK H PARENT
REMARK Flexibility Score: inf
ROOT
ATOM      1  C   UNL     1       6.363   1.233   0.959  1.00  0.00     0.080 C 
ENDROOT
BRANCH   1   2
ATOM      2  C   UNL     1       5.659   0.363   1.941  1.00  0.00     0.130 C 
ATOM      3  C   UNL     1       6.300  -0.853   2.507  1.00  0.00     0.087 C 
ATOM      4  O   UNL     1       4.526   0.627   2.312  1.00  0.00    -0.300 OA
ENDBRANCH   1   2
BRANCH   1   5
ATOM      5  C   UNL     1       5.861   0.991  -0.451  1.00  0.00     0.043 C 
BRANCH   5   6
ATOM      6  C   UNL     1       6.798   0.163  -1.230  1.00  0.00    -0.044 A 
ATOM      7  C   UNL     1       7.485   0.676  -2.336  1.00  0.00     0.008 A 
ATOM      8  C   UNL     1       7.013  -1.148  -0.869  1.00  0.00     0.054 A 
ATOM      9  C   UNL     1       8.353  -0.148  -3.029  1.00  0.00     0.051 A 
ATOM     10  C   UNL     1       7.893  -1.977  -1.572  1.00  0.00     0.166 A 
ATOM     11  C   UNL     1       8.568  -1.472  -2.662  1.00  0.00     0.165 A 
ATOM     12  O   UNL     1       8.272  -3.293  -1.416  1.00  0.00    -0.454 OA
ATOM     13  O   UNL     1       9.356  -2.500  -3.155  1.00  0.00    -0.454 OA
ATOM     14  C   UNL     1       9.268  -3.645  -2.341  1.00  0.00     0.468 C 
ENDBRANCH   5   6
ENDBRANCH   1   5
TORSDOF 3
ENDMDL
MODEL 5
REMARK VINA RESULT:      -6.9      1.975      2.536
REMARK SMILES CC(=O)CCc1ccc2c(c1)OCO2
REMARK SMILES IDX 4 1 2 2 1 3 3 4 5 5 6 6 7 7 11 8 8 9 10 10 9 11 12 12 14 13
REMARK SMILES IDX 13 14
REMARK H PARENT
REMARK Flexibility Score: inf
ROOT
ATOM      1  C   UNL     1       6.847   0.800   1.298  1.00  0.00     0.080 C 
ENDROOT
BRANCH   1   2
ATOM      2  C   UNL     1       5.401   1.072   1.527  1.00  0.00     0.130 C 
ATOM      3  C   UNL     1       4.682   2.148   0.793  1.00  0.00     0.087 C 
ATOM      4  O   UNL     1       4.760   0.415   2.331  1.00  0.00    -0.300 OA
ENDBRANCH   1   2
BRANCH   1   5
ATOM      5  C   UNL     1       7.216   0.981  -0.161  1.00  0.00     0.043 C 
BRANCH   5   6
ATOM      6  C   UNL     1       7.578  -0.299  -0.796  1.00  0.00    -0.044 A 
ATOM      7  C   UNL     1       7.600  -0.448  -2.187  1.00  0.00     0.008 A 
ATOM      8  C   UNL     1       7.907  -1.381  -0.010  1.00  0.00     0.054 A 
ATOM      9  C   UNL     1       7.948  -1.673  -2.726  1.00  0.00     0.051 A 
ATOM     10  C   UNL     1       8.259  -2.617  -0.560  1.00  0.00     0.166 A 
ATOM     11  C   UNL     1       8.280  -2.764  -1.929  1.00  0.00     0.165 A 
ATOM     12  O   UNL     1       8.621  -3.825  -0.002  1.00  0.00    -0.454 OA
ATOM     13  O   UNL     1       8.658  -4.073  -2.186  1.00  0.00    -0.454 OA
ATOM     14  C   UNL     1       8.972  -4.754  -0.995  1.00  0.00     0.468 C 
ENDBRANCH   5   6
ENDBRANCH   1   5
TORSDOF 3
ENDMDL
