@<TRIPOS>MOLECULE
/home/cewinharhar/GITHUB/reincatalyze/data/processed/docking_pred/2023-May-24-1506_sub9_nm5_bs15_s42_ex16_mel10_mts10000_k50_ec02_g099_lra3e-4_lrc3e-3/e69dee760b6a4f483691253cffcee702e9155e2b_ligand_9.pdbqt
 14 15 0 0 0
SMALL
GASTEIGER

@<TRIPOS>ATOM
      1  C          6.8470    0.8000    1.2980 C.3     1  UNL1        0.0800
      2  C          5.4010    1.0720    1.5270 C.2     1  UNL1        0.1300
      3  C          4.6820    2.1480    0.7930 C.3     1  UNL1        0.0870
      4  O          4.7600    0.4150    2.3310 O.2     1  UNL1       -0.3000
      5  C          7.2160    0.9810   -0.1610 C.3     1  UNL1        0.0430
      6  C          7.5780   -0.2990   -0.7960 C.2     1  UNL1       -0.0440
      7  C          7.6000   -0.4480   -2.1870 C.2     1  UNL1        0.0080
      8  C          7.9070   -1.3810   -0.0100 C.2     1  UNL1        0.0540
      9  C          7.9480   -1.6730   -2.7260 C.2     1  UNL1        0.0510
     10  C          8.2590   -2.6170   -0.5600 C.2     1  UNL1        0.1660
     11  C          8.2800   -2.7640   -1.9290 C.2     1  UNL1        0.1650
     12  O          8.6210   -3.8250   -0.0020 O.2     1  UNL1       -0.4540
     13  O          8.6580   -4.0730   -2.1860 O.2     1  UNL1       -0.4540
     14  C          8.9720   -4.7540   -0.9950 C.3     1  UNL1        0.4680
@<TRIPOS>BOND
     1     9     7    1
     2     9    11    2
     3     7     6    2
     4    13    11    1
     5    13    14    1
     6    11    10    1
     7    14    12    1
     8     6     5    1
     9     6     8    1
    10    10     8    2
    11    10    12    1
    12     5     1    1
    13     3     2    1
    14     1     2    1
    15     2     4    2
