@<TRIPOS>MOLECULE
/home/cewinharhar/GITHUB/reincatalyze/data/processed/docking_pred/2023-May-24-1506_sub9_nm5_bs15_s42_ex16_mel10_mts10000_k50_ec02_g099_lra3e-4_lrc3e-3/e8fc6854485d68a8d0bf78bf523603f1a9cbeca9_ligand_9.pdbqt
 14 15 0 0 0
SMALL
GASTEIGER

@<TRIPOS>ATOM
      1  C          5.6880    1.2900   -0.2800 C.3     1  UNL1        0.0800
      2  C          5.0990    1.2570    1.0880 C.2     1  UNL1        0.1300
      3  C          5.4150    0.1650    2.0470 C.3     1  UNL1        0.0870
      4  O          4.3350    2.1310    1.4630 O.2     1  UNL1       -0.3000
      5  C          7.1910    1.1040   -0.2380 C.3     1  UNL1        0.0430
      6  C          7.6020   -0.1670   -0.8610 C.2     1  UNL1       -0.0440
      7  C          7.7560   -0.2870   -2.2470 C.2     1  UNL1        0.0080
      8  C          7.8460   -1.2670   -0.0710 C.2     1  UNL1        0.0540
      9  C          8.1450   -1.5040   -2.7760 C.2     1  UNL1        0.0510
     10  C          8.2390   -2.4950   -0.6110 C.2     1  UNL1        0.1660
     11  C          8.3900   -2.6150   -1.9750 C.2     1  UNL1        0.1650
     12  O          8.5360   -3.7180   -0.0470 O.2     1  UNL1       -0.4540
     13  O          8.7800   -3.9220   -2.2220 O.2     1  UNL1       -0.4540
     14  C          8.9730   -4.6300   -1.0210 C.3     1  UNL1        0.4680
@<TRIPOS>BOND
     1     9     7    1
     2     9    11    2
     3     7     6    2
     4    13    11    1
     5    13    14    1
     6    11    10    1
     7    14    12    1
     8     6     5    1
     9     6     8    1
    10    10     8    2
    11    10    12    1
    12     1     5    1
    13     1     2    1
    14     2     4    2
    15     2     3    1
