MODEL 1
REMARK VINA RESULT:      -7.6      0.000      0.000
REMARK SMILES CC(=O)CCc1ccc2c(c1)OCO2
REMARK SMILES IDX 4 1 2 2 1 3 3 4 5 5 6 6 7 7 11 8 8 9 10 10 9 11 12 12 14 13
REMARK SMILES IDX 13 14
REMARK H PARENT
REMARK Flexibility Score: inf
ROOT
ATOM      1  C   UNL     1       5.520   1.941   1.262  1.00  0.00     0.080 C 
ENDROOT
BRANCH   1   2
ATOM      2  C   UNL     1       5.096   0.724   2.008  1.00  0.00     0.130 C 
ATOM      3  C   UNL     1       6.007  -0.437   2.191  1.00  0.00     0.087 C 
ATOM      4  O   UNL     1       3.979   0.644   2.494  1.00  0.00    -0.300 OA
ENDBRANCH   1   2
BRANCH   1   5
ATOM      5  C   UNL     1       5.391   1.741  -0.236  1.00  0.00     0.043 C 
BRANCH   5   6
ATOM      6  C   UNL     1       6.560   1.041  -0.796  1.00  0.00    -0.044 A 
ATOM      7  C   UNL     1       7.866   1.478  -0.546  1.00  0.00     0.008 A 
ATOM      8  C   UNL     1       6.376  -0.073  -1.584  1.00  0.00     0.054 A 
ATOM      9  C   UNL     1       8.925   0.780  -1.098  1.00  0.00     0.051 A 
ATOM     10  C   UNL     1       7.449  -0.775  -2.139  1.00  0.00     0.166 A 
ATOM     11  C   UNL     1       8.734  -0.345  -1.894  1.00  0.00     0.165 A 
ATOM     12  O   UNL     1       7.526  -1.893  -2.943  1.00  0.00    -0.454 OA
ATOM     13  O   UNL     1       9.582  -1.217  -2.559  1.00  0.00    -0.454 OA
ATOM     14  C   UNL     1       8.862  -2.266  -3.162  1.00  0.00     0.468 C 
ENDBRANCH   5   6
ENDBRANCH   1   5
TORSDOF 3
ENDMDL
MODEL 2
REMARK VINA RESULT:      -7.4      1.901      2.346
REMARK SMILES CC(=O)CCc1ccc2c(c1)OCO2
REMARK SMILES IDX 4 1 2 2 1 3 3 4 5 5 6 6 7 7 11 8 8 9 10 10 9 11 12 12 14 13
REMARK SMILES IDX 13 14
REMARK H PARENT
REMARK Flexibility Score: inf
ROOT
ATOM      1  C   UNL     1       5.688   1.290  -0.280  1.00  0.00     0.080 C 
ENDROOT
BRANCH   1   2
ATOM      2  C   UNL     1       5.099   1.257   1.088  1.00  0.00     0.130 C 
ATOM      3  C   UNL     1       5.415   0.165   2.047  1.00  0.00     0.087 C 
ATOM      4  O   UNL     1       4.335   2.131   1.463  1.00  0.00    -0.300 OA
ENDBRANCH   1   2
BRANCH   1   5
ATOM      5  C   UNL     1       7.191   1.104  -0.238  1.00  0.00     0.043 C 
BRANCH   5   6
ATOM      6  C   UNL     1       7.602  -0.167  -0.861  1.00  0.00    -0.044 A 
ATOM      7  C   UNL     1       7.756  -0.287  -2.247  1.00  0.00     0.008 A 
ATOM      8  C   UNL     1       7.846  -1.267  -0.071  1.00  0.00     0.054 A 
ATOM      9  C   UNL     1       8.145  -1.504  -2.776  1.00  0.00     0.051 A 
ATOM     10  C   UNL     1       8.239  -2.495  -0.611  1.00  0.00     0.166 A 
ATOM     11  C   UNL     1       8.390  -2.615  -1.975  1.00  0.00     0.165 A 
ATOM     12  O   UNL     1       8.536  -3.718  -0.047  1.00  0.00    -0.454 OA
ATOM     13  O   UNL     1       8.780  -3.922  -2.222  1.00  0.00    -0.454 OA
ATOM     14  C   UNL     1       8.973  -4.630  -1.021  1.00  0.00     0.468 C 
ENDBRANCH   5   6
ENDBRANCH   1   5
TORSDOF 3
ENDMDL
MODEL 3
REMARK VINA RESULT:      -7.2      2.052      2.634
REMARK SMILES CC(=O)CCc1ccc2c(c1)OCO2
REMARK SMILES IDX 4 1 2 2 1 3 3 4 5 5 6 6 7 7 11 8 8 9 10 10 9 11 12 12 14 13
REMARK SMILES IDX 13 14
REMARK H PARENT
REMARK Flexibility Score: inf
ROOT
ATOM      1  C   UNL     1       5.412  -0.066   2.009  1.00  0.00     0.080 C 
ENDROOT
BRANCH   1   2
ATOM      2  C   UNL     1       4.568   1.137   1.770  1.00  0.00     0.130 C 
ATOM      3  C   UNL     1       4.909   2.135   0.721  1.00  0.00     0.087 C 
ATOM      4  O   UNL     1       3.564   1.341   2.434  1.00  0.00    -0.300 OA
ENDBRANCH   1   2
BRANCH   1   5
ATOM      5  C   UNL     1       6.850   0.179   1.595  1.00  0.00     0.043 C 
BRANCH   5   6
ATOM      6  C   UNL     1       7.276  -0.744   0.528  1.00  0.00    -0.044 A 
ATOM      7  C   UNL     1       7.148  -0.409  -0.825  1.00  0.00     0.008 A 
ATOM      8  C   UNL     1       7.817  -1.965   0.859  1.00  0.00     0.054 A 
ATOM      9  C   UNL     1       7.567  -1.316  -1.782  1.00  0.00     0.051 A 
ATOM     10  C   UNL     1       8.239  -2.878  -0.113  1.00  0.00     0.166 A 
ATOM     11  C   UNL     1       8.113  -2.550  -1.444  1.00  0.00     0.165 A 
ATOM     12  O   UNL     1       8.799  -4.135  -0.040  1.00  0.00    -0.454 OA
ATOM     13  O   UNL     1       8.604  -3.624  -2.170  1.00  0.00    -0.454 OA
ATOM     14  C   UNL     1       9.133  -4.613  -1.319  1.00  0.00     0.468 C 
ENDBRANCH   5   6
ENDBRANCH   1   5
TORSDOF 3
ENDMDL
MODEL 4
REMARK VINA RESULT:      -7.1      1.254      1.463
REMARK SMILES CC(=O)CCc1ccc2c(c1)OCO2
REMARK SMILES IDX 4 1 2 2 1 3 3 4 5 5 6 6 7 7 11 8 8 9 10 10 9 11 12 12 14 13
REMARK SMILES IDX 13 14
REMARK H PARENT
REMARK Flexibility Score: inf
ROOT
ATOM      1  C   UNL     1       6.310   1.222   0.875  1.00  0.00     0.080 C 
ENDROOT
BRANCH   1   2
ATOM      2  C   UNL     1       5.640   0.386   1.909  1.00  0.00     0.130 C 
ATOM      3  C   UNL     1       6.288  -0.829   2.471  1.00  0.00     0.087 C 
ATOM      4  O   UNL     1       4.531   0.677   2.328  1.00  0.00    -0.300 OA
ENDBRANCH   1   2
BRANCH   1   5
ATOM      5  C   UNL     1       5.803   0.890  -0.515  1.00  0.00     0.043 C 
BRANCH   5   6
ATOM      6  C   UNL     1       6.776   0.082  -1.272  1.00  0.00    -0.044 A 
ATOM      7  C   UNL     1       7.479   0.612  -2.360  1.00  0.00     0.008 A 
ATOM      8  C   UNL     1       7.007  -1.225  -0.909  1.00  0.00     0.054 A 
ATOM      9  C   UNL     1       8.380  -0.193  -3.033  1.00  0.00     0.051 A 
ATOM     10  C   UNL     1       7.919  -2.035  -1.592  1.00  0.00     0.166 A 
ATOM     11  C   UNL     1       8.611  -1.515  -2.663  1.00  0.00     0.165 A 
ATOM     12  O   UNL     1       8.319  -3.344  -1.429  1.00  0.00    -0.454 OA
ATOM     13  O   UNL     1       9.431  -2.526  -3.139  1.00  0.00    -0.454 OA
ATOM     14  C   UNL     1       9.345  -3.674  -2.330  1.00  0.00     0.468 C 
ENDBRANCH   5   6
ENDBRANCH   1   5
TORSDOF 3
ENDMDL
MODEL 5
REMARK VINA RESULT:      -6.9      1.943      2.644
REMARK SMILES CC(=O)CCc1ccc2c(c1)OCO2
REMARK SMILES IDX 4 1 2 2 1 3 3 4 5 5 6 6 7 7 11 8 8 9 10 10 9 11 12 12 14 13
REMARK SMILES IDX 13 14
REMARK H PARENT
REMARK Flexibility Score: inf
ROOT
ATOM      1  C   UNL     1       6.769   1.336   0.896  1.00  0.00     0.080 C 
ENDROOT
BRANCH   1   2
ATOM      2  C   UNL     1       5.389   1.849   0.670  1.00  0.00     0.130 C 
ATOM      3  C   UNL     1       4.881   2.148  -0.695  1.00  0.00     0.087 C 
ATOM      4  O   UNL     1       4.630   2.040   1.607  1.00  0.00    -0.300 OA
ENDBRANCH   1   2
BRANCH   1   5
ATOM      5  C   UNL     1       7.583   1.365  -0.382  1.00  0.00     0.043 C 
BRANCH   5   6
ATOM      6  C   UNL     1       7.821   0.010  -0.910  1.00  0.00    -0.044 A 
ATOM      7  C   UNL     1       7.774  -0.261  -2.282  1.00  0.00     0.008 A 
ATOM      8  C   UNL     1       8.099  -1.021  -0.041  1.00  0.00     0.054 A 
ATOM      9  C   UNL     1       8.006  -1.553  -2.719  1.00  0.00     0.051 A 
ATOM     10  C   UNL     1       8.334  -2.325  -0.488  1.00  0.00     0.166 A 
ATOM     11  C   UNL     1       8.287  -2.593  -1.838  1.00  0.00     0.165 A 
ATOM     12  O   UNL     1       8.625  -3.504   0.164  1.00  0.00    -0.454 OA
ATOM     13  O   UNL     1       8.554  -3.944  -1.988  1.00  0.00    -0.454 OA
ATOM     14  C   UNL     1       8.864  -4.541  -0.752  1.00  0.00     0.468 C 
ENDBRANCH   5   6
ENDBRANCH   1   5
TORSDOF 3
ENDMDL
