@<TRIPOS>MOLECULE
/home/cewinharhar/GITHUB/reincatalyze/data/processed/docking_pred/2023-May-24-1506_sub9_nm5_bs15_s42_ex16_mel10_mts10000_k50_ec02_g099_lra3e-4_lrc3e-3/e8fc6854485d68a8d0bf78bf523603f1a9cbeca9_ligand_9.pdbqt
 14 15 0 0 0
SMALL
GASTEIGER

@<TRIPOS>ATOM
      1  C          6.7690    1.3360    0.8960 C.3     1  UNL1        0.0800
      2  C          5.3890    1.8490    0.6700 C.2     1  UNL1        0.1300
      3  C          4.8810    2.1480   -0.6950 C.3     1  UNL1        0.0870
      4  O          4.6300    2.0400    1.6070 O.2     1  UNL1       -0.3000
      5  C          7.5830    1.3650   -0.3820 C.3     1  UNL1        0.0430
      6  C          7.8210    0.0100   -0.9100 C.2     1  UNL1       -0.0440
      7  C          7.7740   -0.2610   -2.2820 C.2     1  UNL1        0.0080
      8  C          8.0990   -1.0210   -0.0410 C.2     1  UNL1        0.0540
      9  C          8.0060   -1.5530   -2.7190 C.2     1  UNL1        0.0510
     10  C          8.3340   -2.3250   -0.4880 C.2     1  UNL1        0.1660
     11  C          8.2870   -2.5930   -1.8380 C.2     1  UNL1        0.1650
     12  O          8.6250   -3.5040    0.1640 O.2     1  UNL1       -0.4540
     13  O          8.5540   -3.9440   -1.9880 O.2     1  UNL1       -0.4540
     14  C          8.8640   -4.5410   -0.7520 C.3     1  UNL1        0.4680
@<TRIPOS>BOND
     1     9     7    1
     2     9    11    2
     3     7     6    2
     4    13    11    1
     5    13    14    1
     6    11    10    1
     7     6     5    1
     8     6     8    1
     9    14    12    1
    10     3     2    1
    11    10     8    2
    12    10    12    1
    13     5     1    1
    14     2     1    1
    15     2     4    2
