@<TRIPOS>MOLECULE
/home/cewinharhar/GITHUB/reincatalyze/data/processed/docking_pred/2023-May-24-1506_sub9_nm5_bs15_s42_ex16_mel10_mts10000_k50_ec02_g099_lra3e-4_lrc3e-3/e9ca5ba4bc0452251e134010a3e53239cf47eed8_ligand_9.pdbqt
 14 15 0 0 0
SMALL
GASTEIGER

@<TRIPOS>ATOM
      1  C          6.8470    1.5290    1.2530 C.3     1  UNL1        0.0800
      2  C          5.4570    1.8330    0.8110 C.2     1  UNL1        0.1300
      3  C          5.1400    2.1500   -0.6070 C.3     1  UNL1        0.0870
      4  O          4.5320    1.8300    1.6070 O.2     1  UNL1       -0.3000
      5  C          6.9780    0.0880    1.7060 C.3     1  UNL1        0.0430
      6  C          7.4370   -0.7890    0.6140 C.2     1  UNL1       -0.0440
      7  C          7.5040   -0.3380   -0.7090 C.2     1  UNL1        0.0080
      8  C          7.8130   -2.0830    0.8920 C.2     1  UNL1        0.0540
      9  C          7.9440   -1.2060   -1.6920 C.2     1  UNL1        0.0510
     10  C          8.2580   -2.9570   -0.1050 C.2     1  UNL1        0.1660
     11  C          8.3230   -2.5150   -1.4080 C.2     1  UNL1        0.1650
     12  O          8.6800   -4.2690   -0.0850 O.2     1  UNL1       -0.4540
     13  O          8.7900   -3.5750   -2.1680 O.2     1  UNL1       -0.4540
     14  C          9.1150   -4.6780   -1.3570 C.3     1  UNL1        0.4680
@<TRIPOS>BOND
     1    13    11    1
     2    13    14    1
     3     9    11    2
     4     9     7    1
     5    11    10    1
     6    14    12    1
     7     7     6    2
     8     3     2    1
     9    10    12    1
    10    10     8    2
    11     6     8    1
    12     6     5    1
    13     2     1    1
    14     2     4    2
    15     1     5    1
