@<TRIPOS>MOLECULE
/home/cewinharhar/GITHUB/reincatalyze/data/processed/docking_pred/2023-May-24-1506_sub9_nm5_bs15_s42_ex16_mel10_mts10000_k50_ec02_g099_lra3e-4_lrc3e-3/e9ca5ba4bc0452251e134010a3e53239cf47eed8_ligand_9.pdbqt
 14 15 0 0 0
SMALL
GASTEIGER

@<TRIPOS>ATOM
      1  C          5.5600    1.9890    1.2100 C.3     1  UNL1        0.0800
      2  C          5.2220    0.7830    2.0170 C.2     1  UNL1        0.1300
      3  C          6.1950   -0.3240    2.2110 C.3     1  UNL1        0.0870
      4  O          4.1270    0.6690    2.5440 O.2     1  UNL1       -0.3000
      5  C          5.3960    1.7220   -0.2730 C.3     1  UNL1        0.0430
      6  C          6.5620    1.0150   -0.8330 C.2     1  UNL1       -0.0440
      7  C          7.8700    1.4520   -0.5920 C.2     1  UNL1        0.0080
      8  C          6.3720   -0.1040   -1.6110 C.2     1  UNL1        0.0540
      9  C          8.9250    0.7480   -1.1430 C.2     1  UNL1        0.0510
     10  C          7.4420   -0.8130   -2.1650 C.2     1  UNL1        0.1660
     11  C          8.7290   -0.3830   -1.9290 C.2     1  UNL1        0.1650
     12  O          7.5130   -1.9360   -2.9610 O.2     1  UNL1       -0.4540
     13  O          9.5720   -1.2610   -2.5910 O.2     1  UNL1       -0.4540
     14  C          8.8480   -2.3130   -3.1830 C.3     1  UNL1        0.4680
@<TRIPOS>BOND
     1    14    12    1
     2    14    13    1
     3    12    10    1
     4    13    11    1
     5    10    11    2
     6    10     8    1
     7    11     9    1
     8     8     6    2
     9     9     7    2
    10     6     7    1
    11     6     5    1
    12     5     1    1
    13     1     2    1
    14     2     3    1
    15     2     4    2
