MODEL 1
REMARK VINA RESULT:      -7.6      0.000      0.000
REMARK SMILES CC(=O)CCc1ccc2c(c1)OCO2
REMARK SMILES IDX 4 1 2 2 1 3 3 4 5 5 6 6 7 7 11 8 8 9 10 10 9 11 12 12 14 13
REMARK SMILES IDX 13 14
REMARK H PARENT
REMARK Flexibility Score: inf
ROOT
ATOM      1  C   UNL     1       5.560   1.989   1.210  1.00  0.00     0.080 C 
ENDROOT
BRANCH   1   2
ATOM      2  C   UNL     1       5.222   0.783   2.017  1.00  0.00     0.130 C 
ATOM      3  C   UNL     1       6.195  -0.324   2.211  1.00  0.00     0.087 C 
ATOM      4  O   UNL     1       4.127   0.669   2.544  1.00  0.00    -0.300 OA
ENDBRANCH   1   2
BRANCH   1   5
ATOM      5  C   UNL     1       5.396   1.722  -0.273  1.00  0.00     0.043 C 
BRANCH   5   6
ATOM      6  C   UNL     1       6.562   1.015  -0.833  1.00  0.00    -0.044 A 
ATOM      7  C   UNL     1       7.870   1.452  -0.592  1.00  0.00     0.008 A 
ATOM      8  C   UNL     1       6.372  -0.104  -1.611  1.00  0.00     0.054 A 
ATOM      9  C   UNL     1       8.925   0.748  -1.143  1.00  0.00     0.051 A 
ATOM     10  C   UNL     1       7.442  -0.813  -2.165  1.00  0.00     0.166 A 
ATOM     11  C   UNL     1       8.729  -0.383  -1.929  1.00  0.00     0.165 A 
ATOM     12  O   UNL     1       7.513  -1.936  -2.961  1.00  0.00    -0.454 OA
ATOM     13  O   UNL     1       9.572  -1.261  -2.591  1.00  0.00    -0.454 OA
ATOM     14  C   UNL     1       8.848  -2.313  -3.183  1.00  0.00     0.468 C 
ENDBRANCH   5   6
ENDBRANCH   1   5
TORSDOF 3
ENDMDL
MODEL 2
REMARK VINA RESULT:      -7.3      1.930      2.440
REMARK SMILES CC(=O)CCc1ccc2c(c1)OCO2
REMARK SMILES IDX 4 1 2 2 1 3 3 4 5 5 6 6 7 7 11 8 8 9 10 10 9 11 12 12 14 13
REMARK SMILES IDX 13 14
REMARK H PARENT
REMARK Flexibility Score: inf
ROOT
ATOM      1  C   UNL     1       5.790   1.148  -0.430  1.00  0.00     0.080 C 
ENDROOT
BRANCH   1   2
ATOM      2  C   UNL     1       5.329   1.242   0.983  1.00  0.00     0.130 C 
ATOM      3  C   UNL     1       5.737   0.242   2.006  1.00  0.00     0.087 C 
ATOM      4  O   UNL     1       4.598   2.150   1.345  1.00  0.00    -0.300 OA
ENDBRANCH   1   2
BRANCH   1   5
ATOM      5  C   UNL     1       7.299   1.027  -0.511  1.00  0.00     0.043 C 
BRANCH   5   6
ATOM      6  C   UNL     1       7.714  -0.276  -1.060  1.00  0.00    -0.044 A 
ATOM      7  C   UNL     1       7.925  -0.461  -2.431  1.00  0.00     0.008 A 
ATOM      8  C   UNL     1       7.906  -1.343  -0.212  1.00  0.00     0.054 A 
ATOM      9  C   UNL     1       8.315  -1.706  -2.888  1.00  0.00     0.051 A 
ATOM     10  C   UNL     1       8.301  -2.600  -0.679  1.00  0.00     0.166 A 
ATOM     11  C   UNL     1       8.507  -2.783  -2.028  1.00  0.00     0.165 A 
ATOM     12  O   UNL     1       8.553  -3.800  -0.049  1.00  0.00    -0.454 OA
ATOM     13  O   UNL     1       8.886  -4.105  -2.200  1.00  0.00    -0.454 OA
ATOM     14  C   UNL     1       9.016  -4.762  -0.962  1.00  0.00     0.468 C 
ENDBRANCH   5   6
ENDBRANCH   1   5
TORSDOF 3
ENDMDL
MODEL 3
REMARK VINA RESULT:      -7.1      1.960      2.686
REMARK SMILES CC(=O)CCc1ccc2c(c1)OCO2
REMARK SMILES IDX 4 1 2 2 1 3 3 4 5 5 6 6 7 7 11 8 8 9 10 10 9 11 12 12 14 13
REMARK SMILES IDX 13 14
REMARK H PARENT
REMARK Flexibility Score: inf
ROOT
ATOM      1  C   UNL     1       6.712   0.960   0.918  1.00  0.00     0.080 C 
ENDROOT
BRANCH   1   2
ATOM      2  C   UNL     1       5.409   1.650   0.709  1.00  0.00     0.130 C 
ATOM      3  C   UNL     1       4.994   2.146  -0.631  1.00  0.00     0.087 C 
ATOM      4  O   UNL     1       4.638   1.828   1.638  1.00  0.00    -0.300 OA
ENDBRANCH   1   2
BRANCH   1   5
ATOM      5  C   UNL     1       7.592   1.061  -0.312  1.00  0.00     0.043 C 
BRANCH   5   6
ATOM      6  C   UNL     1       7.849  -0.262  -0.909  1.00  0.00    -0.044 A 
ATOM      7  C   UNL     1       7.848  -0.453  -2.296  1.00  0.00     0.008 A 
ATOM      8  C   UNL     1       8.101  -1.341  -0.093  1.00  0.00     0.054 A 
ATOM      9  C   UNL     1       8.097  -1.717  -2.799  1.00  0.00     0.051 A 
ATOM     10  C   UNL     1       8.353  -2.617  -0.607  1.00  0.00     0.166 A 
ATOM     11  C   UNL     1       8.351  -2.807  -1.971  1.00  0.00     0.165 A 
ATOM     12  O   UNL     1       8.626  -3.832  -0.014  1.00  0.00    -0.454 OA
ATOM     13  O   UNL     1       8.625  -4.147  -2.189  1.00  0.00    -0.454 OA
ATOM     14  C   UNL     1       8.896  -4.815  -0.980  1.00  0.00     0.468 C 
ENDBRANCH   5   6
ENDBRANCH   1   5
TORSDOF 3
ENDMDL
MODEL 4
REMARK VINA RESULT:      -7.1      1.236      1.422
REMARK SMILES CC(=O)CCc1ccc2c(c1)OCO2
REMARK SMILES IDX 4 1 2 2 1 3 3 4 5 5 6 6 7 7 11 8 8 9 10 10 9 11 12 12 14 13
REMARK SMILES IDX 13 14
REMARK H PARENT
REMARK Flexibility Score: inf
ROOT
ATOM      1  C   UNL     1       6.329   1.293   0.802  1.00  0.00     0.080 C 
ENDROOT
BRANCH   1   2
ATOM      2  C   UNL     1       5.718   0.485   1.894  1.00  0.00     0.130 C 
ATOM      3  C   UNL     1       6.389  -0.725   2.440  1.00  0.00     0.087 C 
ATOM      4  O   UNL     1       4.640   0.796   2.375  1.00  0.00    -0.300 OA
ENDBRANCH   1   2
BRANCH   1   5
ATOM      5  C   UNL     1       5.798   0.875  -0.555  1.00  0.00     0.043 C 
BRANCH   5   6
ATOM      6  C   UNL     1       6.784   0.078  -1.306  1.00  0.00    -0.044 A 
ATOM      7  C   UNL     1       7.511   0.624  -2.370  1.00  0.00     0.008 A 
ATOM      8  C   UNL     1       7.005  -1.236  -0.960  1.00  0.00     0.054 A 
ATOM      9  C   UNL     1       8.424  -0.172  -3.037  1.00  0.00     0.051 A 
ATOM     10  C   UNL     1       7.929  -2.036  -1.638  1.00  0.00     0.166 A 
ATOM     11  C   UNL     1       8.644  -1.500  -2.685  1.00  0.00     0.165 A 
ATOM     12  O   UNL     1       8.324  -3.349  -1.488  1.00  0.00    -0.454 OA
ATOM     13  O   UNL     1       9.472  -2.504  -3.162  1.00  0.00    -0.454 OA
ATOM     14  C   UNL     1       9.367  -3.666  -2.374  1.00  0.00     0.468 C 
ENDBRANCH   5   6
ENDBRANCH   1   5
TORSDOF 3
ENDMDL
MODEL 5
REMARK VINA RESULT:      -6.7      2.111      2.708
REMARK SMILES CC(=O)CCc1ccc2c(c1)OCO2
REMARK SMILES IDX 4 1 2 2 1 3 3 4 5 5 6 6 7 7 11 8 8 9 10 10 9 11 12 12 14 13
REMARK SMILES IDX 13 14
REMARK H PARENT
REMARK Flexibility Score: inf
ROOT
ATOM      1  C   UNL     1       6.847   1.529   1.253  1.00  0.00     0.080 C 
ENDROOT
BRANCH   1   2
ATOM      2  C   UNL     1       5.457   1.833   0.811  1.00  0.00     0.130 C 
ATOM      3  C   UNL     1       5.140   2.150  -0.607  1.00  0.00     0.087 C 
ATOM      4  O   UNL     1       4.532   1.830   1.607  1.00  0.00    -0.300 OA
ENDBRANCH   1   2
BRANCH   1   5
ATOM      5  C   UNL     1       6.978   0.088   1.706  1.00  0.00     0.043 C 
BRANCH   5   6
ATOM      6  C   UNL     1       7.437  -0.789   0.614  1.00  0.00    -0.044 A 
ATOM      7  C   UNL     1       7.504  -0.338  -0.709  1.00  0.00     0.008 A 
ATOM      8  C   UNL     1       7.813  -2.083   0.892  1.00  0.00     0.054 A 
ATOM      9  C   UNL     1       7.944  -1.206  -1.692  1.00  0.00     0.051 A 
ATOM     10  C   UNL     1       8.258  -2.957  -0.105  1.00  0.00     0.166 A 
ATOM     11  C   UNL     1       8.323  -2.515  -1.408  1.00  0.00     0.165 A 
ATOM     12  O   UNL     1       8.680  -4.269  -0.085  1.00  0.00    -0.454 OA
ATOM     13  O   UNL     1       8.790  -3.575  -2.168  1.00  0.00    -0.454 OA
ATOM     14  C   UNL     1       9.115  -4.678  -1.357  1.00  0.00     0.468 C 
ENDBRANCH   5   6
ENDBRANCH   1   5
TORSDOF 3
ENDMDL
