@<TRIPOS>MOLECULE
/home/cewinharhar/GITHUB/reincatalyze/data/processed/docking_pred/2023-May-24-1506_sub9_nm5_bs15_s42_ex16_mel10_mts10000_k50_ec02_g099_lra3e-4_lrc3e-3/e9ca5ba4bc0452251e134010a3e53239cf47eed8_ligand_9.pdbqt
 14 15 0 0 0
SMALL
GASTEIGER

@<TRIPOS>ATOM
      1  C          5.7900    1.1480   -0.4300 C.3     1  UNL1        0.0800
      2  C          5.3290    1.2420    0.9830 C.2     1  UNL1        0.1300
      3  C          5.7370    0.2420    2.0060 C.3     1  UNL1        0.0870
      4  O          4.5980    2.1500    1.3450 O.2     1  UNL1       -0.3000
      5  C          7.2990    1.0270   -0.5110 C.3     1  UNL1        0.0430
      6  C          7.7140   -0.2760   -1.0600 C.2     1  UNL1       -0.0440
      7  C          7.9250   -0.4610   -2.4310 C.2     1  UNL1        0.0080
      8  C          7.9060   -1.3430   -0.2120 C.2     1  UNL1        0.0540
      9  C          8.3150   -1.7060   -2.8880 C.2     1  UNL1        0.0510
     10  C          8.3010   -2.6000   -0.6790 C.2     1  UNL1        0.1660
     11  C          8.5070   -2.7830   -2.0280 C.2     1  UNL1        0.1650
     12  O          8.5530   -3.8000   -0.0490 O.2     1  UNL1       -0.4540
     13  O          8.8860   -4.1050   -2.2000 O.2     1  UNL1       -0.4540
     14  C          9.0160   -4.7620   -0.9620 C.3     1  UNL1        0.4680
@<TRIPOS>BOND
     1     9     7    1
     2     9    11    2
     3     7     6    2
     4    13    11    1
     5    13    14    1
     6    11    10    1
     7     6     5    1
     8     6     8    1
     9    14    12    1
    10    10     8    2
    11    10    12    1
    12     5     1    1
    13     1     2    1
    14     2     4    2
    15     2     3    1
