@<TRIPOS>MOLECULE
/home/cewinharhar/GITHUB/reincatalyze/data/processed/docking_pred/2023-May-24-1506_sub9_nm5_bs15_s42_ex16_mel10_mts10000_k50_ec02_g099_lra3e-4_lrc3e-3/e9ca5ba4bc0452251e134010a3e53239cf47eed8_ligand_9.pdbqt
 14 15 0 0 0
SMALL
GASTEIGER

@<TRIPOS>ATOM
      1  C          6.7120    0.9600    0.9180 C.3     1  UNL1        0.0800
      2  C          5.4090    1.6500    0.7090 C.2     1  UNL1        0.1300
      3  C          4.9940    2.1460   -0.6310 C.3     1  UNL1        0.0870
      4  O          4.6380    1.8280    1.6380 O.2     1  UNL1       -0.3000
      5  C          7.5920    1.0610   -0.3120 C.3     1  UNL1        0.0430
      6  C          7.8490   -0.2620   -0.9090 C.2     1  UNL1       -0.0440
      7  C          7.8480   -0.4530   -2.2960 C.2     1  UNL1        0.0080
      8  C          8.1010   -1.3410   -0.0930 C.2     1  UNL1        0.0540
      9  C          8.0970   -1.7170   -2.7990 C.2     1  UNL1        0.0510
     10  C          8.3530   -2.6170   -0.6070 C.2     1  UNL1        0.1660
     11  C          8.3510   -2.8070   -1.9710 C.2     1  UNL1        0.1650
     12  O          8.6260   -3.8320   -0.0140 O.2     1  UNL1       -0.4540
     13  O          8.6250   -4.1470   -2.1890 O.2     1  UNL1       -0.4540
     14  C          8.8960   -4.8150   -0.9800 C.3     1  UNL1        0.4680
@<TRIPOS>BOND
     1     9     7    1
     2     9    11    2
     3     7     6    2
     4    13    11    1
     5    13    14    1
     6    11    10    1
     7    14    12    1
     8     6     5    1
     9     6     8    1
    10     3     2    1
    11    10     8    2
    12    10    12    1
    13     5     1    1
    14     2     1    1
    15     2     4    2
