@<TRIPOS>MOLECULE
/home/cewinharhar/GITHUB/reincatalyze/data/processed/docking_pred/2023-May-24-1506_sub9_nm5_bs15_s42_ex16_mel10_mts10000_k50_ec02_g099_lra3e-4_lrc3e-3/eb53456adf8787420c4e8f25112cf644d6bf88f9_ligand_9.pdbqt
 14 15 0 0 0
SMALL
GASTEIGER

@<TRIPOS>ATOM
      1  C          5.3270   -0.0920    1.9470 C.3     1  UNL1        0.0800
      2  C          4.4660    1.1110    1.7730 C.2     1  UNL1        0.1300
      3  C          4.7720    2.1490    0.7530 C.3     1  UNL1        0.0870
      4  O          3.4780    1.2790    2.4690 O.2     1  UNL1       -0.3000
      5  C          6.7980    0.2730    1.9030 C.3     1  UNL1        0.0430
      6  C          7.4070   -0.0660    0.6050 C.2     1  UNL1       -0.0440
      7  C          7.9250    0.9210   -0.2420 C.2     1  UNL1        0.0080
      8  C          7.4760   -1.3810    0.2060 C.2     1  UNL1        0.0540
      9  C          8.4860    0.5440   -1.4480 C.2     1  UNL1        0.0510
     10  C          8.0450   -1.7580   -1.0140 C.2     1  UNL1        0.1660
     11  C          8.5530   -0.7870   -1.8480 C.2     1  UNL1        0.1650
     12  O          8.2290   -2.9790   -1.6280 O.2     1  UNL1       -0.4540
     13  O          9.0450   -1.4390   -2.9680 O.2     1  UNL1       -0.4540
     14  C          8.9420   -2.8360   -2.8300 C.3     1  UNL1        0.4680
@<TRIPOS>BOND
     1    13    14    1
     2    13    11    1
     3    14    12    1
     4    11     9    2
     5    11    10    1
     6    12    10    1
     7     9     7    1
     8    10     8    2
     9     7     6    2
    10     8     6    1
    11     6     5    1
    12     3     2    1
    13     2     1    1
    14     2     4    2
    15     5     1    1
