@<TRIPOS>MOLECULE
/home/cewinharhar/GITHUB/reincatalyze/data/processed/docking_pred/2023-May-24-1506_sub9_nm5_bs15_s42_ex16_mel10_mts10000_k50_ec02_g099_lra3e-4_lrc3e-3/eb53456adf8787420c4e8f25112cf644d6bf88f9_ligand_9.pdbqt
 14 15 0 0 0
SMALL
GASTEIGER

@<TRIPOS>ATOM
      1  C          5.5120    1.9220    1.2620 C.3     1  UNL1        0.0800
      2  C          5.0790    0.7040    2.0020 C.2     1  UNL1        0.1300
      3  C          5.9800   -0.4680    2.1720 C.3     1  UNL1        0.0870
      4  O          3.9650    0.6320    2.4940 O.2     1  UNL1       -0.3000
      5  C          5.3890    1.7280   -0.2360 C.3     1  UNL1        0.0430
      6  C          6.5580    1.0250   -0.7940 C.2     1  UNL1       -0.0440
      7  C          7.8650    1.4550   -0.5350 C.2     1  UNL1        0.0080
      8  C          6.3720   -0.0830   -1.5880 C.2     1  UNL1        0.0540
      9  C          8.9230    0.7540   -1.0850 C.2     1  UNL1        0.0510
     10  C          7.4450   -0.7880   -2.1420 C.2     1  UNL1        0.1660
     11  C          8.7310   -0.3660   -1.8880 C.2     1  UNL1        0.1650
     12  O          7.5210   -1.9020   -2.9510 O.2     1  UNL1       -0.4540
     13  O          9.5780   -1.2380   -2.5530 O.2     1  UNL1       -0.4540
     14  C          8.8560   -2.2800   -3.1650 C.3     1  UNL1        0.4680
@<TRIPOS>BOND
     1    14    12    1
     2    14    13    1
     3    12    10    1
     4    13    11    1
     5    10    11    2
     6    10     8    1
     7    11     9    1
     8     8     6    2
     9     9     7    2
    10     6     7    1
    11     6     5    1
    12     5     1    1
    13     1     2    1
    14     2     3    1
    15     2     4    2
