MODEL 1
REMARK VINA RESULT:      -7.7      0.000      0.000
REMARK SMILES CC(=O)CCc1ccc2c(c1)OCO2
REMARK SMILES IDX 4 1 2 2 1 3 3 4 5 5 6 6 7 7 11 8 8 9 10 10 9 11 12 12 14 13
REMARK SMILES IDX 13 14
REMARK H PARENT
REMARK Flexibility Score: inf
ROOT
ATOM      1  C   UNL     1       5.512   1.922   1.262  1.00  0.00     0.080 C 
ENDROOT
BRANCH   1   2
ATOM      2  C   UNL     1       5.079   0.704   2.002  1.00  0.00     0.130 C 
ATOM      3  C   UNL     1       5.980  -0.468   2.172  1.00  0.00     0.087 C 
ATOM      4  O   UNL     1       3.965   0.632   2.494  1.00  0.00    -0.300 OA
ENDBRANCH   1   2
BRANCH   1   5
ATOM      5  C   UNL     1       5.389   1.728  -0.236  1.00  0.00     0.043 C 
BRANCH   5   6
ATOM      6  C   UNL     1       6.558   1.025  -0.794  1.00  0.00    -0.044 A 
ATOM      7  C   UNL     1       7.865   1.455  -0.535  1.00  0.00     0.008 A 
ATOM      8  C   UNL     1       6.372  -0.083  -1.588  1.00  0.00     0.054 A 
ATOM      9  C   UNL     1       8.923   0.754  -1.085  1.00  0.00     0.051 A 
ATOM     10  C   UNL     1       7.445  -0.788  -2.142  1.00  0.00     0.166 A 
ATOM     11  C   UNL     1       8.731  -0.366  -1.888  1.00  0.00     0.165 A 
ATOM     12  O   UNL     1       7.521  -1.902  -2.951  1.00  0.00    -0.454 OA
ATOM     13  O   UNL     1       9.578  -1.238  -2.553  1.00  0.00    -0.454 OA
ATOM     14  C   UNL     1       8.856  -2.280  -3.165  1.00  0.00     0.468 C 
ENDBRANCH   5   6
ENDBRANCH   1   5
TORSDOF 3
ENDMDL
MODEL 2
REMARK VINA RESULT:      -7.2      2.083      2.611
REMARK SMILES CC(=O)CCc1ccc2c(c1)OCO2
REMARK SMILES IDX 4 1 2 2 1 3 3 4 5 5 6 6 7 7 11 8 8 9 10 10 9 11 12 12 14 13
REMARK SMILES IDX 13 14
REMARK H PARENT
REMARK Flexibility Score: inf
ROOT
ATOM      1  C   UNL     1       5.566   0.030   1.942  1.00  0.00     0.080 C 
ENDROOT
BRANCH   1   2
ATOM      2  C   UNL     1       4.661   1.173   1.635  1.00  0.00     0.130 C 
ATOM      3  C   UNL     1       4.938   2.109   0.513  1.00  0.00     0.087 C 
ATOM      4  O   UNL     1       3.659   1.375   2.302  1.00  0.00    -0.300 OA
ENDBRANCH   1   2
BRANCH   1   5
ATOM      5  C   UNL     1       6.973   0.294   1.444  1.00  0.00     0.043 C 
BRANCH   5   6
ATOM      6  C   UNL     1       7.379  -0.677   0.412  1.00  0.00    -0.044 A 
ATOM      7  C   UNL     1       7.285  -0.378  -0.952  1.00  0.00     0.008 A 
ATOM      8  C   UNL     1       7.866  -1.908   0.788  1.00  0.00     0.054 A 
ATOM      9  C   UNL     1       7.682  -1.328  -1.875  1.00  0.00     0.051 A 
ATOM     10  C   UNL     1       8.266  -2.865  -0.150  1.00  0.00     0.166 A 
ATOM     11  C   UNL     1       8.173  -2.573  -1.492  1.00  0.00     0.165 A 
ATOM     12  O   UNL     1       8.774  -4.141  -0.032  1.00  0.00    -0.454 OA
ATOM     13  O   UNL     1       8.632  -3.687  -2.178  1.00  0.00    -0.454 OA
ATOM     14  C   UNL     1       9.108  -4.670  -1.290  1.00  0.00     0.468 C 
ENDBRANCH   5   6
ENDBRANCH   1   5
TORSDOF 3
ENDMDL
MODEL 3
REMARK VINA RESULT:      -7.1      1.271      1.492
REMARK SMILES CC(=O)CCc1ccc2c(c1)OCO2
REMARK SMILES IDX 4 1 2 2 1 3 3 4 5 5 6 6 7 7 11 8 8 9 10 10 9 11 12 12 14 13
REMARK SMILES IDX 13 14
REMARK H PARENT
REMARK Flexibility Score: inf
ROOT
ATOM      1  C   UNL     1       6.395   1.173   0.957  1.00  0.00     0.080 C 
ENDROOT
BRANCH   1   2
ATOM      2  C   UNL     1       5.649   0.358   1.956  1.00  0.00     0.130 C 
ATOM      3  C   UNL     1       6.235  -0.871   2.555  1.00  0.00     0.087 C 
ATOM      4  O   UNL     1       4.527   0.677   2.314  1.00  0.00    -0.300 OA
ENDBRANCH   1   2
BRANCH   1   5
ATOM      5  C   UNL     1       5.889   0.918  -0.449  1.00  0.00     0.043 C 
BRANCH   5   6
ATOM      6  C   UNL     1       6.826   0.084  -1.224  1.00  0.00    -0.044 A 
ATOM      7  C   UNL     1       7.490   0.582  -2.350  1.00  0.00     0.008 A 
ATOM      8  C   UNL     1       7.062  -1.216  -0.837  1.00  0.00     0.054 A 
ATOM      9  C   UNL     1       8.358  -0.247  -3.038  1.00  0.00     0.051 A 
ATOM     10  C   UNL     1       7.941  -2.049  -1.535  1.00  0.00     0.166 A 
ATOM     11  C   UNL     1       8.594  -1.561  -2.645  1.00  0.00     0.165 A 
ATOM     12  O   UNL     1       8.338  -3.357  -1.355  1.00  0.00    -0.454 OA
ATOM     13  O   UNL     1       9.388  -2.589  -3.127  1.00  0.00    -0.454 OA
ATOM     14  C   UNL     1       9.326  -3.717  -2.287  1.00  0.00     0.468 C 
ENDBRANCH   5   6
ENDBRANCH   1   5
TORSDOF 3
ENDMDL
MODEL 4
REMARK VINA RESULT:      -7.0      1.966      2.492
REMARK SMILES CC(=O)CCc1ccc2c(c1)OCO2
REMARK SMILES IDX 4 1 2 2 1 3 3 4 5 5 6 6 7 7 11 8 8 9 10 10 9 11 12 12 14 13
REMARK SMILES IDX 13 14
REMARK H PARENT
REMARK Flexibility Score: inf
ROOT
ATOM      1  C   UNL     1       5.889   1.252  -0.237  1.00  0.00     0.080 C 
ENDROOT
BRANCH   1   2
ATOM      2  C   UNL     1       5.795   1.221   1.249  1.00  0.00     0.130 C 
ATOM      3  C   UNL     1       5.195   0.065   1.969  1.00  0.00     0.087 C 
ATOM      4  O   UNL     1       6.209   2.150   1.924  1.00  0.00    -0.300 OA
ENDBRANCH   1   2
BRANCH   1   5
ATOM      5  C   UNL     1       7.332   1.192  -0.698  1.00  0.00     0.043 C 
BRANCH   5   6
ATOM      6  C   UNL     1       7.697  -0.153  -1.178  1.00  0.00    -0.044 A 
ATOM      7  C   UNL     1       7.832  -0.432  -2.543  1.00  0.00     0.008 A 
ATOM      8  C   UNL     1       7.914  -1.165  -0.271  1.00  0.00     0.054 A 
ATOM      9  C   UNL     1       8.177  -1.713  -2.934  1.00  0.00     0.051 A 
ATOM     10  C   UNL     1       8.263  -2.458  -0.672  1.00  0.00     0.166 A 
ATOM     11  C   UNL     1       8.396  -2.734  -2.015  1.00  0.00     0.165 A 
ATOM     12  O   UNL     1       8.527  -3.619   0.024  1.00  0.00    -0.454 OA
ATOM     13  O   UNL     1       8.743  -4.072  -2.117  1.00  0.00    -0.454 OA
ATOM     14  C   UNL     1       8.926  -4.648  -0.845  1.00  0.00     0.468 C 
ENDBRANCH   5   6
ENDBRANCH   1   5
TORSDOF 3
ENDMDL
MODEL 5
REMARK VINA RESULT:      -6.8      1.241      1.746
REMARK SMILES CC(=O)CCc1ccc2c(c1)OCO2
REMARK SMILES IDX 4 1 2 2 1 3 3 4 5 5 6 6 7 7 11 8 8 9 10 10 9 11 12 12 14 13
REMARK SMILES IDX 13 14
REMARK H PARENT
REMARK Flexibility Score: inf
ROOT
ATOM      1  C   UNL     1       5.327  -0.092   1.947  1.00  0.00     0.080 C 
ENDROOT
BRANCH   1   2
ATOM      2  C   UNL     1       4.466   1.111   1.773  1.00  0.00     0.130 C 
ATOM      3  C   UNL     1       4.772   2.149   0.753  1.00  0.00     0.087 C 
ATOM      4  O   UNL     1       3.478   1.279   2.469  1.00  0.00    -0.300 OA
ENDBRANCH   1   2
BRANCH   1   5
ATOM      5  C   UNL     1       6.798   0.273   1.903  1.00  0.00     0.043 C 
BRANCH   5   6
ATOM      6  C   UNL     1       7.407  -0.066   0.605  1.00  0.00    -0.044 A 
ATOM      7  C   UNL     1       7.925   0.921  -0.242  1.00  0.00     0.008 A 
ATOM      8  C   UNL     1       7.476  -1.381   0.206  1.00  0.00     0.054 A 
ATOM      9  C   UNL     1       8.486   0.544  -1.448  1.00  0.00     0.051 A 
ATOM     10  C   UNL     1       8.045  -1.758  -1.014  1.00  0.00     0.166 A 
ATOM     11  C   UNL     1       8.553  -0.787  -1.848  1.00  0.00     0.165 A 
ATOM     12  O   UNL     1       8.229  -2.979  -1.628  1.00  0.00    -0.454 OA
ATOM     13  O   UNL     1       9.045  -1.439  -2.968  1.00  0.00    -0.454 OA
ATOM     14  C   UNL     1       8.942  -2.836  -2.830  1.00  0.00     0.468 C 
ENDBRANCH   5   6
ENDBRANCH   1   5
TORSDOF 3
ENDMDL
