@<TRIPOS>MOLECULE
/home/cewinharhar/GITHUB/reincatalyze/data/processed/docking_pred/2023-May-24-1506_sub9_nm5_bs15_s42_ex16_mel10_mts10000_k50_ec02_g099_lra3e-4_lrc3e-3/eb53456adf8787420c4e8f25112cf644d6bf88f9_ligand_9.pdbqt
 14 15 0 0 0
SMALL
GASTEIGER

@<TRIPOS>ATOM
      1  C          5.8890    1.2520   -0.2370 C.3     1  UNL1        0.0800
      2  C          5.7950    1.2210    1.2490 C.2     1  UNL1        0.1300
      3  C          5.1950    0.0650    1.9690 C.3     1  UNL1        0.0870
      4  O          6.2090    2.1500    1.9240 O.2     1  UNL1       -0.3000
      5  C          7.3320    1.1920   -0.6980 C.3     1  UNL1        0.0430
      6  C          7.6970   -0.1530   -1.1780 C.2     1  UNL1       -0.0440
      7  C          7.8320   -0.4320   -2.5430 C.2     1  UNL1        0.0080
      8  C          7.9140   -1.1650   -0.2710 C.2     1  UNL1        0.0540
      9  C          8.1770   -1.7130   -2.9340 C.2     1  UNL1        0.0510
     10  C          8.2630   -2.4580   -0.6720 C.2     1  UNL1        0.1660
     11  C          8.3960   -2.7340   -2.0150 C.2     1  UNL1        0.1650
     12  O          8.5270   -3.6190    0.0240 O.2     1  UNL1       -0.4540
     13  O          8.7430   -4.0720   -2.1170 O.2     1  UNL1       -0.4540
     14  C          8.9260   -4.6480   -0.8450 C.3     1  UNL1        0.4680
@<TRIPOS>BOND
     1     9     7    1
     2     9    11    2
     3     7     6    2
     4    13    11    1
     5    13    14    1
     6    11    10    1
     7     6     5    1
     8     6     8    1
     9    14    12    1
    10     5     1    1
    11    10     8    2
    12    10    12    1
    13     1     2    1
    14     2     4    2
    15     2     3    1
