@<TRIPOS>MOLECULE
/home/cewinharhar/GITHUB/reincatalyze/data/processed/docking_pred/2023-May-24-1506_sub9_nm5_bs15_s42_ex16_mel10_mts10000_k50_ec02_g099_lra3e-4_lrc3e-3/eb53456adf8787420c4e8f25112cf644d6bf88f9_ligand_9.pdbqt
 14 15 0 0 0
SMALL
GASTEIGER

@<TRIPOS>ATOM
      1  C          6.3950    1.1730    0.9570 C.3     1  UNL1        0.0800
      2  C          5.6490    0.3580    1.9560 C.2     1  UNL1        0.1300
      3  C          6.2350   -0.8710    2.5550 C.3     1  UNL1        0.0870
      4  O          4.5270    0.6770    2.3140 O.2     1  UNL1       -0.3000
      5  C          5.8890    0.9180   -0.4490 C.3     1  UNL1        0.0430
      6  C          6.8260    0.0840   -1.2240 C.2     1  UNL1       -0.0440
      7  C          7.4900    0.5820   -2.3500 C.2     1  UNL1        0.0080
      8  C          7.0620   -1.2160   -0.8370 C.2     1  UNL1        0.0540
      9  C          8.3580   -0.2470   -3.0380 C.2     1  UNL1        0.0510
     10  C          7.9410   -2.0490   -1.5350 C.2     1  UNL1        0.1660
     11  C          8.5940   -1.5610   -2.6450 C.2     1  UNL1        0.1650
     12  O          8.3380   -3.3570   -1.3550 O.2     1  UNL1       -0.4540
     13  O          9.3880   -2.5890   -3.1270 O.2     1  UNL1       -0.4540
     14  C          9.3260   -3.7170   -2.2870 C.3     1  UNL1        0.4680
@<TRIPOS>BOND
     1    13    11    1
     2    13    14    1
     3     9    11    2
     4     9     7    1
     5    11    10    1
     6     7     6    2
     7    14    12    1
     8    10    12    1
     9    10     8    2
    10     6     8    1
    11     6     5    1
    12     5     1    1
    13     1     2    1
    14     2     4    2
    15     2     3    1
