@<TRIPOS>MOLECULE
/home/cewinharhar/GITHUB/reincatalyze/data/processed/docking_pred/2023-May-24-1506_sub9_nm5_bs15_s42_ex16_mel10_mts10000_k50_ec02_g099_lra3e-4_lrc3e-3/ebaba25497d2d3047300f44322ccacaaeed3cb61_ligand_9.pdbqt
 14 15 0 0 0
SMALL
GASTEIGER

@<TRIPOS>ATOM
      1  C          6.9060    0.9130    1.1950 C.3     1  UNL1        0.0800
      2  C          5.4620    1.2320    1.3790 C.2     1  UNL1        0.1300
      3  C          4.7420    2.1490    0.4560 C.3     1  UNL1        0.0870
      4  O          4.8250    0.7460    2.3000 O.2     1  UNL1       -0.3000
      5  C          7.3230    1.0640   -0.2540 C.3     1  UNL1        0.0430
      6  C          7.6460   -0.2360   -0.8680 C.2     1  UNL1       -0.0440
      7  C          7.6580   -0.4080   -2.2570 C.2     1  UNL1        0.0080
      8  C          7.9470   -1.3140   -0.0660 C.2     1  UNL1        0.0540
      9  C          7.9690   -1.6520   -2.7770 C.2     1  UNL1        0.0510
     10  C          8.2610   -2.5690   -0.5960 C.2     1  UNL1        0.1660
     11  C          8.2720   -2.7390   -1.9630 C.2     1  UNL1        0.1650
     12  O          8.5900   -3.7770   -0.0200 O.2     1  UNL1       -0.4540
     13  O          8.6120   -4.0620   -2.1990 O.2     1  UNL1       -0.4540
     14  C          8.9110   -4.7320   -0.9980 C.3     1  UNL1        0.4680
@<TRIPOS>BOND
     1     9     7    1
     2     9    11    2
     3     7     6    2
     4    13    11    1
     5    13    14    1
     6    11    10    1
     7    14    12    1
     8     6     5    1
     9     6     8    1
    10    10     8    2
    11    10    12    1
    12     5     1    1
    13     3     2    1
    14     1     2    1
    15     2     4    2
