@<TRIPOS>MOLECULE
/home/cewinharhar/GITHUB/reincatalyze/data/processed/docking_pred/2023-May-24-1506_sub9_nm5_bs15_s42_ex16_mel10_mts10000_k50_ec02_g099_lra3e-4_lrc3e-3/ebaba25497d2d3047300f44322ccacaaeed3cb61_ligand_9.pdbqt
 14 15 0 0 0
SMALL
GASTEIGER

@<TRIPOS>ATOM
      1  C          5.7290    1.4520   -0.2810 C.3     1  UNL1        0.0800
      2  C          5.1600    1.3070    1.0880 C.2     1  UNL1        0.1300
      3  C          5.4830    0.1370    1.9480 C.3     1  UNL1        0.0870
      4  O          4.4060    2.1500    1.5450 O.2     1  UNL1       -0.3000
      5  C          7.2290    1.2360   -0.2800 C.3     1  UNL1        0.0430
      6  C          7.5970   -0.0500   -0.8980 C.2     1  UNL1       -0.0440
      7  C          7.6600   -0.2040   -2.2880 C.2     1  UNL1        0.0080
      8  C          7.8890   -1.1320   -0.0990 C.2     1  UNL1        0.0540
      9  C          8.0120   -1.4350   -2.8120 C.2     1  UNL1        0.0510
     10  C          8.2450   -2.3750   -0.6340 C.2     1  UNL1        0.1660
     11  C          8.3060   -2.5270   -2.0010 C.2     1  UNL1        0.1650
     12  O          8.5750   -3.5840   -0.0610 O.2     1  UNL1       -0.4540
     13  O          8.6780   -3.8400   -2.2420 O.2     1  UNL1       -0.4540
     14  C          8.9470   -4.5210   -1.0390 C.3     1  UNL1        0.4680
@<TRIPOS>BOND
     1     9     7    1
     2     9    11    2
     3     7     6    2
     4    13    11    1
     5    13    14    1
     6    11    10    1
     7    14    12    1
     8     6     5    1
     9     6     8    1
    10    10     8    2
    11    10    12    1
    12     1     5    1
    13     1     2    1
    14     2     4    2
    15     2     3    1
