@<TRIPOS>MOLECULE
/home/cewinharhar/GITHUB/reincatalyze/data/processed/docking_pred/2023-May-24-1506_sub9_nm5_bs15_s42_ex16_mel10_mts10000_k50_ec02_g099_lra3e-4_lrc3e-3/ebaba25497d2d3047300f44322ccacaaeed3cb61_ligand_9.pdbqt
 14 15 0 0 0
SMALL
GASTEIGER

@<TRIPOS>ATOM
      1  C          5.5520    0.0020    1.9450 C.3     1  UNL1        0.0800
      2  C          4.6570    1.1520    1.6380 C.2     1  UNL1        0.1300
      3  C          4.9560    2.0990    0.5300 C.3     1  UNL1        0.0870
      4  O          3.6470    1.3530    2.2920 O.2     1  UNL1       -0.3000
      5  C          6.9640    0.2570    1.4590 C.3     1  UNL1        0.0430
      6  C          7.3690   -0.7120    0.4240 C.2     1  UNL1       -0.0440
      7  C          7.2460   -0.4220   -0.9400 C.2     1  UNL1        0.0080
      8  C          7.8840   -1.9320    0.7970 C.2     1  UNL1        0.0540
      9  C          7.6430   -1.3700   -1.8650 C.2     1  UNL1        0.0510
     10  C          8.2850   -2.8870   -0.1430 C.2     1  UNL1        0.1660
     11  C          8.1630   -2.6030   -1.4850 C.2     1  UNL1        0.1650
     12  O          8.8180   -4.1530   -0.0280 O.2     1  UNL1       -0.4540
     13  O          8.6300   -3.7120   -2.1730 O.2     1  UNL1       -0.4540
     14  C          9.1390   -4.6820   -1.2890 C.3     1  UNL1        0.4680
@<TRIPOS>BOND
     1    13    11    1
     2    13    14    1
     3     9    11    2
     4     9     7    1
     5    11    10    1
     6    14    12    1
     7     7     6    2
     8    10    12    1
     9    10     8    2
    10     6     8    1
    11     6     5    1
    12     3     2    1
    13     5     1    1
    14     2     1    1
    15     2     4    2
