MODEL 1
REMARK VINA RESULT:      -7.7      0.000      0.000
REMARK SMILES CC(=O)CCc1ccc2c(c1)OCO2
REMARK SMILES IDX 4 1 2 2 1 3 3 4 5 5 6 6 7 7 11 8 8 9 10 10 9 11 12 12 14 13
REMARK SMILES IDX 13 14
REMARK H PARENT
REMARK Flexibility Score: inf
ROOT
ATOM      1  C   UNL     1       5.500   1.945   1.247  1.00  0.00     0.080 C 
ENDROOT
BRANCH   1   2
ATOM      2  C   UNL     1       5.080   0.729   1.997  1.00  0.00     0.130 C 
ATOM      3  C   UNL     1       5.991  -0.435   2.169  1.00  0.00     0.087 C 
ATOM      4  O   UNL     1       3.969   0.652   2.496  1.00  0.00    -0.300 OA
ENDBRANCH   1   2
BRANCH   1   5
ATOM      5  C   UNL     1       5.378   1.738  -0.250  1.00  0.00     0.043 C 
BRANCH   5   6
ATOM      6  C   UNL     1       6.550   1.036  -0.802  1.00  0.00    -0.044 A 
ATOM      7  C   UNL     1       7.855   1.466  -0.534  1.00  0.00     0.008 A 
ATOM      8  C   UNL     1       6.370  -0.071  -1.599  1.00  0.00     0.054 A 
ATOM      9  C   UNL     1       8.917   0.768  -1.079  1.00  0.00     0.051 A 
ATOM     10  C   UNL     1       7.447  -0.774  -2.147  1.00  0.00     0.166 A 
ATOM     11  C   UNL     1       8.731  -0.351  -1.885  1.00  0.00     0.165 A 
ATOM     12  O   UNL     1       7.528  -1.886  -2.958  1.00  0.00    -0.454 OA
ATOM     13  O   UNL     1       9.583  -1.222  -2.546  1.00  0.00    -0.454 OA
ATOM     14  C   UNL     1       8.865  -2.264  -3.164  1.00  0.00     0.468 C 
ENDBRANCH   5   6
ENDBRANCH   1   5
TORSDOF 3
ENDMDL
MODEL 2
REMARK VINA RESULT:      -7.4      1.853      2.302
REMARK SMILES CC(=O)CCc1ccc2c(c1)OCO2
REMARK SMILES IDX 4 1 2 2 1 3 3 4 5 5 6 6 7 7 11 8 8 9 10 10 9 11 12 12 14 13
REMARK SMILES IDX 13 14
REMARK H PARENT
REMARK Flexibility Score: inf
ROOT
ATOM      1  C   UNL     1       5.729   1.452  -0.281  1.00  0.00     0.080 C 
ENDROOT
BRANCH   1   2
ATOM      2  C   UNL     1       5.160   1.307   1.088  1.00  0.00     0.130 C 
ATOM      3  C   UNL     1       5.483   0.137   1.948  1.00  0.00     0.087 C 
ATOM      4  O   UNL     1       4.406   2.150   1.545  1.00  0.00    -0.300 OA
ENDBRANCH   1   2
BRANCH   1   5
ATOM      5  C   UNL     1       7.229   1.236  -0.280  1.00  0.00     0.043 C 
BRANCH   5   6
ATOM      6  C   UNL     1       7.597  -0.050  -0.898  1.00  0.00    -0.044 A 
ATOM      7  C   UNL     1       7.660  -0.204  -2.288  1.00  0.00     0.008 A 
ATOM      8  C   UNL     1       7.889  -1.132  -0.099  1.00  0.00     0.054 A 
ATOM      9  C   UNL     1       8.012  -1.435  -2.812  1.00  0.00     0.051 A 
ATOM     10  C   UNL     1       8.245  -2.375  -0.634  1.00  0.00     0.166 A 
ATOM     11  C   UNL     1       8.306  -2.527  -2.001  1.00  0.00     0.165 A 
ATOM     12  O   UNL     1       8.575  -3.584  -0.061  1.00  0.00    -0.454 OA
ATOM     13  O   UNL     1       8.678  -3.840  -2.242  1.00  0.00    -0.454 OA
ATOM     14  C   UNL     1       8.947  -4.521  -1.039  1.00  0.00     0.468 C 
ENDBRANCH   5   6
ENDBRANCH   1   5
TORSDOF 3
ENDMDL
MODEL 3
REMARK VINA RESULT:      -7.2      2.095      2.641
REMARK SMILES CC(=O)CCc1ccc2c(c1)OCO2
REMARK SMILES IDX 4 1 2 2 1 3 3 4 5 5 6 6 7 7 11 8 8 9 10 10 9 11 12 12 14 13
REMARK SMILES IDX 13 14
REMARK H PARENT
REMARK Flexibility Score: inf
ROOT
ATOM      1  C   UNL     1       5.552   0.002   1.945  1.00  0.00     0.080 C 
ENDROOT
BRANCH   1   2
ATOM      2  C   UNL     1       4.657   1.152   1.638  1.00  0.00     0.130 C 
ATOM      3  C   UNL     1       4.956   2.099   0.530  1.00  0.00     0.087 C 
ATOM      4  O   UNL     1       3.647   1.353   2.292  1.00  0.00    -0.300 OA
ENDBRANCH   1   2
BRANCH   1   5
ATOM      5  C   UNL     1       6.964   0.257   1.459  1.00  0.00     0.043 C 
BRANCH   5   6
ATOM      6  C   UNL     1       7.369  -0.712   0.424  1.00  0.00    -0.044 A 
ATOM      7  C   UNL     1       7.246  -0.422  -0.940  1.00  0.00     0.008 A 
ATOM      8  C   UNL     1       7.884  -1.932   0.797  1.00  0.00     0.054 A 
ATOM      9  C   UNL     1       7.643  -1.370  -1.865  1.00  0.00     0.051 A 
ATOM     10  C   UNL     1       8.285  -2.887  -0.143  1.00  0.00     0.166 A 
ATOM     11  C   UNL     1       8.163  -2.603  -1.485  1.00  0.00     0.165 A 
ATOM     12  O   UNL     1       8.818  -4.153  -0.028  1.00  0.00    -0.454 OA
ATOM     13  O   UNL     1       8.630  -3.712  -2.173  1.00  0.00    -0.454 OA
ATOM     14  C   UNL     1       9.139  -4.682  -1.289  1.00  0.00     0.468 C 
ENDBRANCH   5   6
ENDBRANCH   1   5
TORSDOF 3
ENDMDL
MODEL 4
REMARK VINA RESULT:      -7.1      1.271      1.494
REMARK SMILES CC(=O)CCc1ccc2c(c1)OCO2
REMARK SMILES IDX 4 1 2 2 1 3 3 4 5 5 6 6 7 7 11 8 8 9 10 10 9 11 12 12 14 13
REMARK SMILES IDX 13 14
REMARK H PARENT
REMARK Flexibility Score: inf
ROOT
ATOM      1  C   UNL     1       6.405   1.197   0.933  1.00  0.00     0.080 C 
ENDROOT
BRANCH   1   2
ATOM      2  C   UNL     1       5.667   0.376   1.934  1.00  0.00     0.130 C 
ATOM      3  C   UNL     1       6.261  -0.852   2.526  1.00  0.00     0.087 C 
ATOM      4  O   UNL     1       4.546   0.692   2.299  1.00  0.00    -0.300 OA
ENDBRANCH   1   2
BRANCH   1   5
ATOM      5  C   UNL     1       5.903   0.931  -0.473  1.00  0.00     0.043 C 
BRANCH   5   6
ATOM      6  C   UNL     1       6.844   0.096  -1.240  1.00  0.00    -0.044 A 
ATOM      7  C   UNL     1       7.533   0.597  -2.350  1.00  0.00     0.008 A 
ATOM      8  C   UNL     1       7.060  -1.210  -0.863  1.00  0.00     0.054 A 
ATOM      9  C   UNL     1       8.404  -0.233  -3.031  1.00  0.00     0.051 A 
ATOM     10  C   UNL     1       7.942  -2.046  -1.554  1.00  0.00     0.166 A 
ATOM     11  C   UNL     1       8.619  -1.554  -2.648  1.00  0.00     0.165 A 
ATOM     12  O   UNL     1       8.322  -3.360  -1.381  1.00  0.00    -0.454 OA
ATOM     13  O   UNL     1       9.411  -2.586  -3.127  1.00  0.00    -0.454 OA
ATOM     14  C   UNL     1       9.322  -3.721  -2.300  1.00  0.00     0.468 C 
ENDBRANCH   5   6
ENDBRANCH   1   5
TORSDOF 3
ENDMDL
MODEL 5
REMARK VINA RESULT:      -7.1      1.949      2.547
REMARK SMILES CC(=O)CCc1ccc2c(c1)OCO2
REMARK SMILES IDX 4 1 2 2 1 3 3 4 5 5 6 6 7 7 11 8 8 9 10 10 9 11 12 12 14 13
REMARK SMILES IDX 13 14
REMARK H PARENT
REMARK Flexibility Score: inf
ROOT
ATOM      1  C   UNL     1       6.906   0.913   1.195  1.00  0.00     0.080 C 
ENDROOT
BRANCH   1   2
ATOM      2  C   UNL     1       5.462   1.232   1.379  1.00  0.00     0.130 C 
ATOM      3  C   UNL     1       4.742   2.149   0.456  1.00  0.00     0.087 C 
ATOM      4  O   UNL     1       4.825   0.746   2.300  1.00  0.00    -0.300 OA
ENDBRANCH   1   2
BRANCH   1   5
ATOM      5  C   UNL     1       7.323   1.064  -0.254  1.00  0.00     0.043 C 
BRANCH   5   6
ATOM      6  C   UNL     1       7.646  -0.236  -0.868  1.00  0.00    -0.044 A 
ATOM      7  C   UNL     1       7.658  -0.408  -2.257  1.00  0.00     0.008 A 
ATOM      8  C   UNL     1       7.947  -1.314  -0.066  1.00  0.00     0.054 A 
ATOM      9  C   UNL     1       7.969  -1.652  -2.777  1.00  0.00     0.051 A 
ATOM     10  C   UNL     1       8.261  -2.569  -0.596  1.00  0.00     0.166 A 
ATOM     11  C   UNL     1       8.272  -2.739  -1.963  1.00  0.00     0.165 A 
ATOM     12  O   UNL     1       8.590  -3.777  -0.020  1.00  0.00    -0.454 OA
ATOM     13  O   UNL     1       8.612  -4.062  -2.199  1.00  0.00    -0.454 OA
ATOM     14  C   UNL     1       8.911  -4.732  -0.998  1.00  0.00     0.468 C 
ENDBRANCH   5   6
ENDBRANCH   1   5
TORSDOF 3
ENDMDL
