@<TRIPOS>MOLECULE
/home/cewinharhar/GITHUB/reincatalyze/data/processed/docking_pred/2023-May-24-1506_sub9_nm5_bs15_s42_ex16_mel10_mts10000_k50_ec02_g099_lra3e-4_lrc3e-3/ecb861058d3bf52383b8a9fd127e3d7801644b5d_ligand_9.pdbqt
 14 15 0 0 0
SMALL
GASTEIGER

@<TRIPOS>ATOM
      1  C          6.3990    1.1940    0.9480 C.3     1  UNL1        0.0800
      2  C          5.6650    0.3580    1.9380 C.2     1  UNL1        0.1300
      3  C          6.2620   -0.8780    2.5110 C.3     1  UNL1        0.0870
      4  O          4.5440    0.6650    2.3080 O.2     1  UNL1       -0.3000
      5  C          5.8940    0.9520   -0.4600 C.3     1  UNL1        0.0430
      6  C          6.8280    0.1200   -1.2400 C.2     1  UNL1       -0.0440
      7  C          7.5070    0.6280   -2.3540 C.2     1  UNL1        0.0080
      8  C          7.0490   -1.1870   -0.8720 C.2     1  UNL1        0.0540
      9  C          8.3720   -0.1990   -3.0480 C.2     1  UNL1        0.0510
     10  C          7.9250   -2.0190   -1.5750 C.2     1  UNL1        0.1660
     11  C          8.5920   -1.5210   -2.6730 C.2     1  UNL1        0.1650
     12  O          8.3080   -3.3330   -1.4120 O.2     1  UNL1       -0.4540
     13  O          9.3790   -2.5500   -3.1650 O.2     1  UNL1       -0.4540
     14  C          9.2990   -3.6890   -2.3420 C.3     1  UNL1        0.4680
@<TRIPOS>BOND
     1    13    11    1
     2    13    14    1
     3     9    11    2
     4     9     7    1
     5    11    10    1
     6     7     6    2
     7    14    12    1
     8    10    12    1
     9    10     8    2
    10     6     8    1
    11     6     5    1
    12     5     1    1
    13     1     2    1
    14     2     4    2
    15     2     3    1
