MODEL 1
REMARK VINA RESULT:      -7.6      0.000      0.000
REMARK SMILES CC(=O)CCc1ccc2c(c1)OCO2
REMARK SMILES IDX 4 1 2 2 1 3 3 4 5 5 6 6 7 7 11 8 8 9 10 10 9 11 12 12 14 13
REMARK SMILES IDX 13 14
REMARK H PARENT
REMARK Flexibility Score: inf
ROOT
ATOM      1  C   UNL     1       5.536   1.931   1.254  1.00  0.00     0.080 C 
ENDROOT
BRANCH   1   2
ATOM      2  C   UNL     1       5.106   0.720   2.007  1.00  0.00     0.130 C 
ATOM      3  C   UNL     1       6.013  -0.445   2.197  1.00  0.00     0.087 C 
ATOM      4  O   UNL     1       3.989   0.648   2.494  1.00  0.00    -0.300 OA
ENDBRANCH   1   2
BRANCH   1   5
ATOM      5  C   UNL     1       5.404   1.724  -0.242  1.00  0.00     0.043 C 
BRANCH   5   6
ATOM      6  C   UNL     1       6.572   1.023  -0.802  1.00  0.00    -0.044 A 
ATOM      7  C   UNL     1       7.879   1.457  -0.549  1.00  0.00     0.008 A 
ATOM      8  C   UNL     1       6.387  -0.088  -1.594  1.00  0.00     0.054 A 
ATOM      9  C   UNL     1       8.937   0.758  -1.101  1.00  0.00     0.051 A 
ATOM     10  C   UNL     1       7.460  -0.791  -2.150  1.00  0.00     0.166 A 
ATOM     11  C   UNL     1       8.745  -0.364  -1.901  1.00  0.00     0.165 A 
ATOM     12  O   UNL     1       7.536  -1.905  -2.957  1.00  0.00    -0.454 OA
ATOM     13  O   UNL     1       9.593  -1.235  -2.568  1.00  0.00    -0.454 OA
ATOM     14  C   UNL     1       8.871  -2.280  -3.175  1.00  0.00     0.468 C 
ENDBRANCH   5   6
ENDBRANCH   1   5
TORSDOF 3
ENDMDL
MODEL 2
REMARK VINA RESULT:      -7.5      1.936      2.394
REMARK SMILES CC(=O)CCc1ccc2c(c1)OCO2
REMARK SMILES IDX 4 1 2 2 1 3 3 4 5 5 6 6 7 7 11 8 8 9 10 10 9 11 12 12 14 13
REMARK SMILES IDX 13 14
REMARK H PARENT
REMARK Flexibility Score: inf
ROOT
ATOM      1  C   UNL     1       5.741   1.367  -0.304  1.00  0.00     0.080 C 
ENDROOT
BRANCH   1   2
ATOM      2  C   UNL     1       5.095   1.287   1.036  1.00  0.00     0.130 C 
ATOM      3  C   UNL     1       5.386   0.173   1.978  1.00  0.00     0.087 C 
ATOM      4  O   UNL     1       4.301   2.139   1.401  1.00  0.00    -0.300 OA
ENDBRANCH   1   2
BRANCH   1   5
ATOM      5  C   UNL     1       7.231   1.103  -0.212  1.00  0.00     0.043 C 
BRANCH   5   6
ATOM      6  C   UNL     1       7.597  -0.187  -0.823  1.00  0.00    -0.044 A 
ATOM      7  C   UNL     1       7.635  -0.356  -2.212  1.00  0.00     0.008 A 
ATOM      8  C   UNL     1       7.912  -1.258  -0.018  1.00  0.00     0.054 A 
ATOM      9  C   UNL     1       7.986  -1.590  -2.729  1.00  0.00     0.051 A 
ATOM     10  C   UNL     1       8.266  -2.504  -0.546  1.00  0.00     0.166 A 
ATOM     11  C   UNL     1       8.303  -2.671  -1.912  1.00  0.00     0.165 A 
ATOM     12  O   UNL     1       8.616  -3.705   0.034  1.00  0.00    -0.454 OA
ATOM     13  O   UNL     1       8.680  -3.984  -2.145  1.00  0.00    -0.454 OA
ATOM     14  C   UNL     1       8.976  -4.650  -0.940  1.00  0.00     0.468 C 
ENDBRANCH   5   6
ENDBRANCH   1   5
TORSDOF 3
ENDMDL
MODEL 3
REMARK VINA RESULT:      -7.2      2.091      2.647
REMARK SMILES CC(=O)CCc1ccc2c(c1)OCO2
REMARK SMILES IDX 4 1 2 2 1 3 3 4 5 5 6 6 7 7 11 8 8 9 10 10 9 11 12 12 14 13
REMARK SMILES IDX 13 14
REMARK H PARENT
REMARK Flexibility Score: inf
ROOT
ATOM      1  C   UNL     1       5.507  -0.024   1.943  1.00  0.00     0.080 C 
ENDROOT
BRANCH   1   2
ATOM      2  C   UNL     1       4.648   1.155   1.646  1.00  0.00     0.130 C 
ATOM      3  C   UNL     1       4.985   2.114   0.560  1.00  0.00     0.087 C 
ATOM      4  O   UNL     1       3.634   1.370   2.291  1.00  0.00    -0.300 OA
ENDBRANCH   1   2
BRANCH   1   5
ATOM      5  C   UNL     1       6.937   0.210   1.498  1.00  0.00     0.043 C 
BRANCH   5   6
ATOM      6  C   UNL     1       7.348  -0.745   0.454  1.00  0.00    -0.044 A 
ATOM      7  C   UNL     1       7.218  -0.445  -0.907  1.00  0.00     0.008 A 
ATOM      8  C   UNL     1       7.876  -1.964   0.814  1.00  0.00     0.054 A 
ATOM      9  C   UNL     1       7.621  -1.381  -1.842  1.00  0.00     0.051 A 
ATOM     10  C   UNL     1       8.283  -2.907  -0.135  1.00  0.00     0.166 A 
ATOM     11  C   UNL     1       8.154  -2.612  -1.474  1.00  0.00     0.165 A 
ATOM     12  O   UNL     1       8.828  -4.169  -0.032  1.00  0.00    -0.454 OA
ATOM     13  O   UNL     1       8.629  -3.711  -2.173  1.00  0.00    -0.454 OA
ATOM     14  C   UNL     1       9.150  -4.683  -1.299  1.00  0.00     0.468 C 
ENDBRANCH   5   6
ENDBRANCH   1   5
TORSDOF 3
ENDMDL
MODEL 4
REMARK VINA RESULT:      -7.1      1.237      1.436
REMARK SMILES CC(=O)CCc1ccc2c(c1)OCO2
REMARK SMILES IDX 4 1 2 2 1 3 3 4 5 5 6 6 7 7 11 8 8 9 10 10 9 11 12 12 14 13
REMARK SMILES IDX 13 14
REMARK H PARENT
REMARK Flexibility Score: inf
ROOT
ATOM      1  C   UNL     1       6.343   1.245   0.868  1.00  0.00     0.080 C 
ENDROOT
BRANCH   1   2
ATOM      2  C   UNL     1       5.649   0.431   1.904  1.00  0.00     0.130 C 
ATOM      3  C   UNL     1       6.264  -0.797   2.474  1.00  0.00     0.087 C 
ATOM      4  O   UNL     1       4.547   0.752   2.319  1.00  0.00    -0.300 OA
ENDBRANCH   1   2
BRANCH   1   5
ATOM      5  C   UNL     1       5.837   0.914  -0.522  1.00  0.00     0.043 C 
BRANCH   5   6
ATOM      6  C   UNL     1       6.808   0.103  -1.278  1.00  0.00    -0.044 A 
ATOM      7  C   UNL     1       7.535   0.639  -2.347  1.00  0.00     0.008 A 
ATOM      8  C   UNL     1       7.013  -1.213  -0.932  1.00  0.00     0.054 A 
ATOM      9  C   UNL     1       8.433  -0.170  -3.020  1.00  0.00     0.051 A 
ATOM     10  C   UNL     1       7.922  -2.026  -1.615  1.00  0.00     0.166 A 
ATOM     11  C   UNL     1       8.638  -1.501  -2.668  1.00  0.00     0.165 A 
ATOM     12  O   UNL     1       8.300  -3.344  -1.467  1.00  0.00    -0.454 OA
ATOM     13  O   UNL     1       9.449  -2.517  -3.148  1.00  0.00    -0.454 OA
ATOM     14  C   UNL     1       9.333  -3.676  -2.358  1.00  0.00     0.468 C 
ENDBRANCH   5   6
ENDBRANCH   1   5
TORSDOF 3
ENDMDL
MODEL 5
REMARK VINA RESULT:      -7.0      1.944      2.535
REMARK SMILES CC(=O)CCc1ccc2c(c1)OCO2
REMARK SMILES IDX 4 1 2 2 1 3 3 4 5 5 6 6 7 7 11 8 8 9 10 10 9 11 12 12 14 13
REMARK SMILES IDX 13 14
REMARK H PARENT
REMARK Flexibility Score: inf
ROOT
ATOM      1  C   UNL     1       6.790   0.669   1.090  1.00  0.00     0.080 C 
ENDROOT
BRANCH   1   2
ATOM      2  C   UNL     1       5.404   1.075   1.455  1.00  0.00     0.130 C 
ATOM      3  C   UNL     1       4.685   2.150   0.720  1.00  0.00     0.087 C 
ATOM      4  O   UNL     1       4.814   0.533   2.376  1.00  0.00    -0.300 OA
ENDBRANCH   1   2
BRANCH   1   5
ATOM      5  C   UNL     1       7.031   0.813  -0.399  1.00  0.00     0.043 C 
BRANCH   5   6
ATOM      6  C   UNL     1       7.562  -0.429  -0.989  1.00  0.00    -0.044 A 
ATOM      7  C   UNL     1       7.868  -0.521  -2.352  1.00  0.00     0.008 A 
ATOM      8  C   UNL     1       7.768  -1.530  -0.189  1.00  0.00     0.054 A 
ATOM      9  C   UNL     1       8.365  -1.712  -2.849  1.00  0.00     0.051 A 
ATOM     10  C   UNL     1       8.271  -2.732  -0.697  1.00  0.00     0.166 A 
ATOM     11  C   UNL     1       8.571  -2.824  -2.037  1.00  0.00     0.165 A 
ATOM     12  O   UNL     1       8.559  -3.949  -0.117  1.00  0.00    -0.454 OA
ATOM     13  O   UNL     1       9.044  -4.109  -2.255  1.00  0.00    -0.454 OA
ATOM     14  C   UNL     1       9.138  -4.827  -1.048  1.00  0.00     0.468 C 
ENDBRANCH   5   6
ENDBRANCH   1   5
TORSDOF 3
ENDMDL
