@<TRIPOS>MOLECULE
/home/cewinharhar/GITHUB/reincatalyze/data/processed/docking_pred/2023-May-24-1506_sub9_nm5_bs15_s42_ex16_mel10_mts10000_k50_ec02_g099_lra3e-4_lrc3e-3/f15420a79f585431148ea344134f913ab78e73cd_ligand_9.pdbqt
 14 15 0 0 0
SMALL
GASTEIGER

@<TRIPOS>ATOM
      1  C          6.7900    0.6690    1.0900 C.3     1  UNL1        0.0800
      2  C          5.4040    1.0750    1.4550 C.2     1  UNL1        0.1300
      3  C          4.6850    2.1500    0.7200 C.3     1  UNL1        0.0870
      4  O          4.8140    0.5330    2.3760 O.2     1  UNL1       -0.3000
      5  C          7.0310    0.8130   -0.3990 C.3     1  UNL1        0.0430
      6  C          7.5620   -0.4290   -0.9890 C.2     1  UNL1       -0.0440
      7  C          7.8680   -0.5210   -2.3520 C.2     1  UNL1        0.0080
      8  C          7.7680   -1.5300   -0.1890 C.2     1  UNL1        0.0540
      9  C          8.3650   -1.7120   -2.8490 C.2     1  UNL1        0.0510
     10  C          8.2710   -2.7320   -0.6970 C.2     1  UNL1        0.1660
     11  C          8.5710   -2.8240   -2.0370 C.2     1  UNL1        0.1650
     12  O          8.5590   -3.9490   -0.1170 O.2     1  UNL1       -0.4540
     13  O          9.0440   -4.1090   -2.2550 O.2     1  UNL1       -0.4540
     14  C          9.1380   -4.8270   -1.0480 C.3     1  UNL1        0.4680
@<TRIPOS>BOND
     1     9     7    1
     2     9    11    2
     3     7     6    2
     4    13    11    1
     5    13    14    1
     6    11    10    1
     7    14    12    1
     8     6     5    1
     9     6     8    1
    10    10     8    2
    11    10    12    1
    12     5     1    1
    13     3     2    1
    14     1     2    1
    15     2     4    2
