@<TRIPOS>MOLECULE
/home/cewinharhar/GITHUB/reincatalyze/data/processed/docking_pred/2023-May-24-1506_sub9_nm5_bs15_s42_ex16_mel10_mts10000_k50_ec02_g099_lra3e-4_lrc3e-3/f15420a79f585431148ea344134f913ab78e73cd_ligand_9.pdbqt
 14 15 0 0 0
SMALL
GASTEIGER

@<TRIPOS>ATOM
      1  C          5.7410    1.3670   -0.3040 C.3     1  UNL1        0.0800
      2  C          5.0950    1.2870    1.0360 C.2     1  UNL1        0.1300
      3  C          5.3860    0.1730    1.9780 C.3     1  UNL1        0.0870
      4  O          4.3010    2.1390    1.4010 O.2     1  UNL1       -0.3000
      5  C          7.2310    1.1030   -0.2120 C.3     1  UNL1        0.0430
      6  C          7.5970   -0.1870   -0.8230 C.2     1  UNL1       -0.0440
      7  C          7.6350   -0.3560   -2.2120 C.2     1  UNL1        0.0080
      8  C          7.9120   -1.2580   -0.0180 C.2     1  UNL1        0.0540
      9  C          7.9860   -1.5900   -2.7290 C.2     1  UNL1        0.0510
     10  C          8.2660   -2.5040   -0.5460 C.2     1  UNL1        0.1660
     11  C          8.3030   -2.6710   -1.9120 C.2     1  UNL1        0.1650
     12  O          8.6160   -3.7050    0.0340 O.2     1  UNL1       -0.4540
     13  O          8.6800   -3.9840   -2.1450 O.2     1  UNL1       -0.4540
     14  C          8.9760   -4.6500   -0.9400 C.3     1  UNL1        0.4680
@<TRIPOS>BOND
     1     9     7    1
     2     9    11    2
     3     7     6    2
     4    13    11    1
     5    13    14    1
     6    11    10    1
     7    14    12    1
     8     6     5    1
     9     6     8    1
    10    10     8    2
    11    10    12    1
    12     1     5    1
    13     1     2    1
    14     2     4    2
    15     2     3    1
