@<TRIPOS>MOLECULE
/home/cewinharhar/GITHUB/reincatalyze/data/processed/docking_pred/2023-May-24-1506_sub9_nm5_bs15_s42_ex16_mel10_mts10000_k50_ec02_g099_lra3e-4_lrc3e-3/f1acaff2cf7a86b9bbc999bfeecc6491fc2a0881_ligand_9.pdbqt
 14 15 0 0 0
SMALL
GASTEIGER

@<TRIPOS>ATOM
      1  C          6.3540    1.2350    0.8890 C.3     1  UNL1        0.0800
      2  C          5.6620    0.4110    1.9190 C.2     1  UNL1        0.1300
      3  C          6.2880   -0.8090    2.4930 C.3     1  UNL1        0.0870
      4  O          4.5520    0.7170    2.3240 O.2     1  UNL1       -0.3000
      5  C          5.8390    0.9240   -0.5020 C.3     1  UNL1        0.0430
      6  C          6.7970    0.1090   -1.2700 C.2     1  UNL1       -0.0440
      7  C          7.4960    0.6340   -2.3630 C.2     1  UNL1        0.0080
      8  C          7.0200   -1.2010   -0.9100 C.2     1  UNL1        0.0540
      9  C          8.3830   -0.1780   -3.0450 C.2     1  UNL1        0.0510
     10  C          7.9190   -2.0180   -1.6030 C.2     1  UNL1        0.1660
     11  C          8.6060   -1.5020   -2.6800 C.2     1  UNL1        0.1650
     12  O          8.3090   -3.3310   -1.4450 O.2     1  UNL1       -0.4540
     13  O          9.4120   -2.5190   -3.1650 O.2     1  UNL1       -0.4540
     14  C          9.3230   -3.6680   -2.3560 C.3     1  UNL1        0.4680
@<TRIPOS>BOND
     1    13    11    1
     2    13    14    1
     3     9    11    2
     4     9     7    1
     5    11    10    1
     6     7     6    2
     7    14    12    1
     8    10    12    1
     9    10     8    2
    10     6     8    1
    11     6     5    1
    12     5     1    1
    13     1     2    1
    14     2     4    2
    15     2     3    1
