@<TRIPOS>MOLECULE
/home/cewinharhar/GITHUB/reincatalyze/data/processed/docking_pred/2023-May-24-1506_sub9_nm5_bs15_s42_ex16_mel10_mts10000_k50_ec02_g099_lra3e-4_lrc3e-3/f1acaff2cf7a86b9bbc999bfeecc6491fc2a0881_ligand_9.pdbqt
 14 15 0 0 0
SMALL
GASTEIGER

@<TRIPOS>ATOM
      1  C          6.8610    0.7310    1.1290 C.3     1  UNL1        0.0800
      2  C          5.4530    1.1280    1.4090 C.2     1  UNL1        0.1300
      3  C          4.7520    2.1500    0.5860 C.3     1  UNL1        0.0870
      4  O          4.8310    0.6230    2.3290 O.2     1  UNL1       -0.3000
      5  C          7.1910    0.8740   -0.3430 C.3     1  UNL1        0.0430
      6  C          7.6210   -0.4060   -0.9340 C.2     1  UNL1       -0.0440
      7  C          7.7610   -0.5650   -2.3180 C.2     1  UNL1        0.0080
      8  C          7.8970   -1.4770   -0.1150 C.2     1  UNL1        0.0540
      9  C          8.1680   -1.7890   -2.8150 C.2     1  UNL1        0.0510
     10  C          8.3090   -2.7130   -0.6220 C.2     1  UNL1        0.1660
     11  C          8.4450   -2.8700   -1.9840 C.2     1  UNL1        0.1650
     12  O          8.6380   -3.9110   -0.0250 O.2     1  UNL1       -0.4540
     13  O          8.8600   -4.1750   -2.1970 O.2     1  UNL1       -0.4540
     14  C          9.0820   -4.8440   -0.9780 C.3     1  UNL1        0.4680
@<TRIPOS>BOND
     1     9     7    1
     2     9    11    2
     3     7     6    2
     4    13    11    1
     5    13    14    1
     6    11    10    1
     7    14    12    1
     8     6     5    1
     9     6     8    1
    10    10     8    2
    11    10    12    1
    12     5     1    1
    13     3     2    1
    14     1     2    1
    15     2     4    2
