MODEL 1
REMARK VINA RESULT:      -7.7      0.000      0.000
REMARK SMILES CC(=O)CCc1ccc2c(c1)OCO2
REMARK SMILES IDX 4 1 2 2 1 3 3 4 5 5 6 6 7 7 11 8 8 9 10 10 9 11 12 12 14 13
REMARK SMILES IDX 13 14
REMARK H PARENT
REMARK Flexibility Score: inf
ROOT
ATOM      1  C   UNL     1       5.542   1.913   1.275  1.00  0.00     0.080 C 
ENDROOT
BRANCH   1   2
ATOM      2  C   UNL     1       5.117   0.692   2.015  1.00  0.00     0.130 C 
ATOM      3  C   UNL     1       6.025  -0.474   2.183  1.00  0.00     0.087 C 
ATOM      4  O   UNL     1       4.004   0.613   2.508  1.00  0.00    -0.300 OA
ENDBRANCH   1   2
BRANCH   1   5
ATOM      5  C   UNL     1       5.410   1.723  -0.223  1.00  0.00     0.043 C 
BRANCH   5   6
ATOM      6  C   UNL     1       6.577   1.021  -0.789  1.00  0.00    -0.044 A 
ATOM      7  C   UNL     1       7.884   1.450  -0.534  1.00  0.00     0.008 A 
ATOM      8  C   UNL     1       6.387  -0.084  -1.586  1.00  0.00     0.054 A 
ATOM      9  C   UNL     1       8.940   0.751  -1.091  1.00  0.00     0.051 A 
ATOM     10  C   UNL     1       7.457  -0.787  -2.147  1.00  0.00     0.166 A 
ATOM     11  C   UNL     1       8.744  -0.366  -1.898  1.00  0.00     0.165 A 
ATOM     12  O   UNL     1       7.529  -1.898  -2.961  1.00  0.00    -0.454 OA
ATOM     13  O   UNL     1       9.588  -1.236  -2.570  1.00  0.00    -0.454 OA
ATOM     14  C   UNL     1       8.863  -2.276  -3.182  1.00  0.00     0.468 C 
ENDBRANCH   5   6
ENDBRANCH   1   5
TORSDOF 3
ENDMDL
MODEL 2
REMARK VINA RESULT:      -7.3      1.924      2.327
REMARK SMILES CC(=O)CCc1ccc2c(c1)OCO2
REMARK SMILES IDX 4 1 2 2 1 3 3 4 5 5 6 6 7 7 11 8 8 9 10 10 9 11 12 12 14 13
REMARK SMILES IDX 13 14
REMARK H PARENT
REMARK Flexibility Score: inf
ROOT
ATOM      1  C   UNL     1       5.552   1.400  -0.127  1.00  0.00     0.080 C 
ENDROOT
BRANCH   1   2
ATOM      2  C   UNL     1       5.000   1.203   1.242  1.00  0.00     0.130 C 
ATOM      3  C   UNL     1       5.442   0.076   2.107  1.00  0.00     0.087 C 
ATOM      4  O   UNL     1       4.164   1.966   1.697  1.00  0.00    -0.300 OA
ENDBRANCH   1   2
BRANCH   1   5
ATOM      5  C   UNL     1       7.056   1.214  -0.147  1.00  0.00     0.043 C 
BRANCH   5   6
ATOM      6  C   UNL     1       7.439  -0.082  -0.734  1.00  0.00    -0.044 A 
ATOM      7  C   UNL     1       7.417  -0.295  -2.118  1.00  0.00     0.008 A 
ATOM      8  C   UNL     1       7.830  -1.115   0.087  1.00  0.00     0.054 A 
ATOM      9  C   UNL     1       7.787  -1.533  -2.612  1.00  0.00     0.051 A 
ATOM     10  C   UNL     1       8.205  -2.364  -0.418  1.00  0.00     0.166 A 
ATOM     11  C   UNL     1       8.182  -2.574  -1.778  1.00  0.00     0.165 A 
ATOM     12  O   UNL     1       8.625  -3.532   0.182  1.00  0.00    -0.454 OA
ATOM     13  O   UNL     1       8.595  -3.881  -1.989  1.00  0.00    -0.454 OA
ATOM     14  C   UNL     1       8.972  -4.495  -0.780  1.00  0.00     0.468 C 
ENDBRANCH   5   6
ENDBRANCH   1   5
TORSDOF 3
ENDMDL
MODEL 3
REMARK VINA RESULT:      -7.2      2.086      2.622
REMARK SMILES CC(=O)CCc1ccc2c(c1)OCO2
REMARK SMILES IDX 4 1 2 2 1 3 3 4 5 5 6 6 7 7 11 8 8 9 10 10 9 11 12 12 14 13
REMARK SMILES IDX 13 14
REMARK H PARENT
REMARK Flexibility Score: inf
ROOT
ATOM      1  C   UNL     1       5.526   0.022   1.948  1.00  0.00     0.080 C 
ENDROOT
BRANCH   1   2
ATOM      2  C   UNL     1       4.636   1.177   1.640  1.00  0.00     0.130 C 
ATOM      3  C   UNL     1       4.934   2.116   0.525  1.00  0.00     0.087 C 
ATOM      4  O   UNL     1       3.631   1.387   2.299  1.00  0.00    -0.300 OA
ENDBRANCH   1   2
BRANCH   1   5
ATOM      5  C   UNL     1       6.943   0.278   1.476  1.00  0.00     0.043 C 
BRANCH   5   6
ATOM      6  C   UNL     1       7.357  -0.686   0.441  1.00  0.00    -0.044 A 
ATOM      7  C   UNL     1       7.259  -0.386  -0.922  1.00  0.00     0.008 A 
ATOM      8  C   UNL     1       7.856  -1.914   0.813  1.00  0.00     0.054 A 
ATOM      9  C   UNL     1       7.664  -1.330  -1.848  1.00  0.00     0.051 A 
ATOM     10  C   UNL     1       8.264  -2.865  -0.127  1.00  0.00     0.166 A 
ATOM     11  C   UNL     1       8.167  -2.570  -1.468  1.00  0.00     0.165 A 
ATOM     12  O   UNL     1       8.785  -4.136  -0.012  1.00  0.00    -0.454 OA
ATOM     13  O   UNL     1       8.636  -3.678  -2.157  1.00  0.00    -0.454 OA
ATOM     14  C   UNL     1       9.122  -4.658  -1.271  1.00  0.00     0.468 C 
ENDBRANCH   5   6
ENDBRANCH   1   5
TORSDOF 3
ENDMDL
MODEL 4
REMARK VINA RESULT:      -7.1      1.244      1.447
REMARK SMILES CC(=O)CCc1ccc2c(c1)OCO2
REMARK SMILES IDX 4 1 2 2 1 3 3 4 5 5 6 6 7 7 11 8 8 9 10 10 9 11 12 12 14 13
REMARK SMILES IDX 13 14
REMARK H PARENT
REMARK Flexibility Score: inf
ROOT
ATOM      1  C   UNL     1       6.354   1.235   0.889  1.00  0.00     0.080 C 
ENDROOT
BRANCH   1   2
ATOM      2  C   UNL     1       5.662   0.411   1.919  1.00  0.00     0.130 C 
ATOM      3  C   UNL     1       6.288  -0.809   2.493  1.00  0.00     0.087 C 
ATOM      4  O   UNL     1       4.552   0.717   2.324  1.00  0.00    -0.300 OA
ENDBRANCH   1   2
BRANCH   1   5
ATOM      5  C   UNL     1       5.839   0.924  -0.502  1.00  0.00     0.043 C 
BRANCH   5   6
ATOM      6  C   UNL     1       6.797   0.109  -1.270  1.00  0.00    -0.044 A 
ATOM      7  C   UNL     1       7.496   0.634  -2.363  1.00  0.00     0.008 A 
ATOM      8  C   UNL     1       7.020  -1.201  -0.910  1.00  0.00     0.054 A 
ATOM      9  C   UNL     1       8.383  -0.178  -3.045  1.00  0.00     0.051 A 
ATOM     10  C   UNL     1       7.919  -2.018  -1.603  1.00  0.00     0.166 A 
ATOM     11  C   UNL     1       8.606  -1.502  -2.680  1.00  0.00     0.165 A 
ATOM     12  O   UNL     1       8.309  -3.331  -1.445  1.00  0.00    -0.454 OA
ATOM     13  O   UNL     1       9.412  -2.519  -3.165  1.00  0.00    -0.454 OA
ATOM     14  C   UNL     1       9.323  -3.668  -2.356  1.00  0.00     0.468 C 
ENDBRANCH   5   6
ENDBRANCH   1   5
TORSDOF 3
ENDMDL
MODEL 5
REMARK VINA RESULT:      -7.0      1.989      2.593
REMARK SMILES CC(=O)CCc1ccc2c(c1)OCO2
REMARK SMILES IDX 4 1 2 2 1 3 3 4 5 5 6 6 7 7 11 8 8 9 10 10 9 11 12 12 14 13
REMARK SMILES IDX 13 14
REMARK H PARENT
REMARK Flexibility Score: inf
ROOT
ATOM      1  C   UNL     1       6.861   0.731   1.129  1.00  0.00     0.080 C 
ENDROOT
BRANCH   1   2
ATOM      2  C   UNL     1       5.453   1.128   1.409  1.00  0.00     0.130 C 
ATOM      3  C   UNL     1       4.752   2.150   0.586  1.00  0.00     0.087 C 
ATOM      4  O   UNL     1       4.831   0.623   2.329  1.00  0.00    -0.300 OA
ENDBRANCH   1   2
BRANCH   1   5
ATOM      5  C   UNL     1       7.191   0.874  -0.343  1.00  0.00     0.043 C 
BRANCH   5   6
ATOM      6  C   UNL     1       7.621  -0.406  -0.934  1.00  0.00    -0.044 A 
ATOM      7  C   UNL     1       7.761  -0.565  -2.318  1.00  0.00     0.008 A 
ATOM      8  C   UNL     1       7.897  -1.477  -0.115  1.00  0.00     0.054 A 
ATOM      9  C   UNL     1       8.168  -1.789  -2.815  1.00  0.00     0.051 A 
ATOM     10  C   UNL     1       8.309  -2.713  -0.622  1.00  0.00     0.166 A 
ATOM     11  C   UNL     1       8.445  -2.870  -1.984  1.00  0.00     0.165 A 
ATOM     12  O   UNL     1       8.638  -3.911  -0.025  1.00  0.00    -0.454 OA
ATOM     13  O   UNL     1       8.860  -4.175  -2.197  1.00  0.00    -0.454 OA
ATOM     14  C   UNL     1       9.082  -4.844  -0.978  1.00  0.00     0.468 C 
ENDBRANCH   5   6
ENDBRANCH   1   5
TORSDOF 3
ENDMDL
