@<TRIPOS>MOLECULE
/home/cewinharhar/GITHUB/reincatalyze/data/processed/docking_pred/2023-May-24-1506_sub9_nm5_bs15_s42_ex16_mel10_mts10000_k50_ec02_g099_lra3e-4_lrc3e-3/f1acaff2cf7a86b9bbc999bfeecc6491fc2a0881_ligand_9.pdbqt
 14 15 0 0 0
SMALL
GASTEIGER

@<TRIPOS>ATOM
      1  C          5.5520    1.4000   -0.1270 C.3     1  UNL1        0.0800
      2  C          5.0000    1.2030    1.2420 C.2     1  UNL1        0.1300
      3  C          5.4420    0.0760    2.1070 C.3     1  UNL1        0.0870
      4  O          4.1640    1.9660    1.6970 O.2     1  UNL1       -0.3000
      5  C          7.0560    1.2140   -0.1470 C.3     1  UNL1        0.0430
      6  C          7.4390   -0.0820   -0.7340 C.2     1  UNL1       -0.0440
      7  C          7.4170   -0.2950   -2.1180 C.2     1  UNL1        0.0080
      8  C          7.8300   -1.1150    0.0870 C.2     1  UNL1        0.0540
      9  C          7.7870   -1.5330   -2.6120 C.2     1  UNL1        0.0510
     10  C          8.2050   -2.3640   -0.4180 C.2     1  UNL1        0.1660
     11  C          8.1820   -2.5740   -1.7780 C.2     1  UNL1        0.1650
     12  O          8.6250   -3.5320    0.1820 O.2     1  UNL1       -0.4540
     13  O          8.5950   -3.8810   -1.9890 O.2     1  UNL1       -0.4540
     14  C          8.9720   -4.4950   -0.7800 C.3     1  UNL1        0.4680
@<TRIPOS>BOND
     1     9     7    1
     2     9    11    2
     3     7     6    2
     4    13    11    1
     5    13    14    1
     6    11    10    1
     7    14    12    1
     8     6     5    1
     9     6     8    1
    10    10     8    2
    11    10    12    1
    12     5     1    1
    13     1     2    1
    14     2     4    2
    15     2     3    1
