@<TRIPOS>MOLECULE
/home/cewinharhar/GITHUB/reincatalyze/data/processed/docking_pred/2023-May-24-1506_sub9_nm5_bs15_s42_ex16_mel10_mts10000_k50_ec02_g099_lra3e-4_lrc3e-3/f1acaff2cf7a86b9bbc999bfeecc6491fc2a0881_ligand_9.pdbqt
 14 15 0 0 0
SMALL
GASTEIGER

@<TRIPOS>ATOM
      1  C          5.5260    0.0220    1.9480 C.3     1  UNL1        0.0800
      2  C          4.6360    1.1770    1.6400 C.2     1  UNL1        0.1300
      3  C          4.9340    2.1160    0.5250 C.3     1  UNL1        0.0870
      4  O          3.6310    1.3870    2.2990 O.2     1  UNL1       -0.3000
      5  C          6.9430    0.2780    1.4760 C.3     1  UNL1        0.0430
      6  C          7.3570   -0.6860    0.4410 C.2     1  UNL1       -0.0440
      7  C          7.2590   -0.3860   -0.9220 C.2     1  UNL1        0.0080
      8  C          7.8560   -1.9140    0.8130 C.2     1  UNL1        0.0540
      9  C          7.6640   -1.3300   -1.8480 C.2     1  UNL1        0.0510
     10  C          8.2640   -2.8650   -0.1270 C.2     1  UNL1        0.1660
     11  C          8.1670   -2.5700   -1.4680 C.2     1  UNL1        0.1650
     12  O          8.7850   -4.1360   -0.0120 O.2     1  UNL1       -0.4540
     13  O          8.6360   -3.6780   -2.1570 O.2     1  UNL1       -0.4540
     14  C          9.1220   -4.6580   -1.2710 C.3     1  UNL1        0.4680
@<TRIPOS>BOND
     1    13    11    1
     2    13    14    1
     3     9    11    2
     4     9     7    1
     5    11    10    1
     6    14    12    1
     7     7     6    2
     8    10    12    1
     9    10     8    2
    10     6     8    1
    11     6     5    1
    12     3     2    1
    13     5     1    1
    14     2     1    1
    15     2     4    2
