@<TRIPOS>MOLECULE
/home/cewinharhar/GITHUB/reincatalyze/data/processed/docking_pred/2023-May-24-1506_sub9_nm5_bs15_s42_ex16_mel10_mts10000_k50_ec02_g099_lra3e-4_lrc3e-3/f32d20faebe3d2be17d1bcf3c85c7c889e58fe23_ligand_9.pdbqt
 14 15 0 0 0
SMALL
GASTEIGER

@<TRIPOS>ATOM
      1  C          5.3940   -0.0720    2.0060 C.3     1  UNL1        0.0800
      2  C          4.5650    1.1430    1.7680 C.2     1  UNL1        0.1300
      3  C          4.9130    2.1300    0.7110 C.3     1  UNL1        0.0870
      4  O          3.5700    1.3640    2.4390 O.2     1  UNL1       -0.3000
      5  C          6.8400    0.1630    1.6150 C.3     1  UNL1        0.0430
      6  C          7.2730   -0.7540    0.5460 C.2     1  UNL1       -0.0440
      7  C          7.1510   -0.4140   -0.8060 C.2     1  UNL1        0.0080
      8  C          7.8150   -1.9760    0.8740 C.2     1  UNL1        0.0540
      9  C          7.5750   -1.3150   -1.7660 C.2     1  UNL1        0.0510
     10  C          8.2430   -2.8830   -0.1000 C.2     1  UNL1        0.1660
     11  C          8.1220   -2.5500   -1.4310 C.2     1  UNL1        0.1650
     12  O          8.8050   -4.1410   -0.0310 O.2     1  UNL1       -0.4540
     13  O          8.6180   -3.6200   -2.1590 O.2     1  UNL1       -0.4540
     14  C          9.1450   -4.6120   -1.3100 C.3     1  UNL1        0.4680
@<TRIPOS>BOND
     1    13    11    1
     2    13    14    1
     3     9    11    2
     4     9     7    1
     5    11    10    1
     6    14    12    1
     7     7     6    2
     8    10    12    1
     9    10     8    2
    10     6     8    1
    11     6     5    1
    12     3     2    1
    13     5     1    1
    14     2     1    1
    15     2     4    2
