MODEL 1
REMARK VINA RESULT:      -7.7      0.000      0.000
REMARK SMILES CC(=O)CCc1ccc2c(c1)OCO2
REMARK SMILES IDX 4 1 2 2 1 3 3 4 5 5 6 6 7 7 11 8 8 9 10 10 9 11 12 12 14 13
REMARK SMILES IDX 13 14
REMARK H PARENT
REMARK Flexibility Score: inf
ROOT
ATOM      1  C   UNL     1       5.514   1.910   1.254  1.00  0.00     0.080 C 
ENDROOT
BRANCH   1   2
ATOM      2  C   UNL     1       5.056   0.701   1.994  1.00  0.00     0.130 C 
ATOM      3  C   UNL     1       5.924  -0.498   2.143  1.00  0.00     0.087 C 
ATOM      4  O   UNL     1       3.947   0.660   2.502  1.00  0.00    -0.300 OA
ENDBRANCH   1   2
BRANCH   1   5
ATOM      5  C   UNL     1       5.392   1.718  -0.245  1.00  0.00     0.043 C 
BRANCH   5   6
ATOM      6  C   UNL     1       6.562   1.018  -0.803  1.00  0.00    -0.044 A 
ATOM      7  C   UNL     1       7.867   1.453  -0.547  1.00  0.00     0.008 A 
ATOM      8  C   UNL     1       6.379  -0.093  -1.595  1.00  0.00     0.054 A 
ATOM      9  C   UNL     1       8.927   0.756  -1.098  1.00  0.00     0.051 A 
ATOM     10  C   UNL     1       7.454  -0.795  -2.149  1.00  0.00     0.166 A 
ATOM     11  C   UNL     1       8.739  -0.366  -1.898  1.00  0.00     0.165 A 
ATOM     12  O   UNL     1       7.532  -1.909  -2.956  1.00  0.00    -0.454 OA
ATOM     13  O   UNL     1       9.588  -1.237  -2.563  1.00  0.00    -0.454 OA
ATOM     14  C   UNL     1       8.869  -2.283  -3.172  1.00  0.00     0.468 C 
ENDBRANCH   5   6
ENDBRANCH   1   5
TORSDOF 3
ENDMDL
MODEL 2
REMARK VINA RESULT:      -7.4      1.921      2.400
REMARK SMILES CC(=O)CCc1ccc2c(c1)OCO2
REMARK SMILES IDX 4 1 2 2 1 3 3 4 5 5 6 6 7 7 11 8 8 9 10 10 9 11 12 12 14 13
REMARK SMILES IDX 13 14
REMARK H PARENT
REMARK Flexibility Score: inf
ROOT
ATOM      1  C   UNL     1       5.717   1.340  -0.306  1.00  0.00     0.080 C 
ENDROOT
BRANCH   1   2
ATOM      2  C   UNL     1       5.103   1.269   1.049  1.00  0.00     0.130 C 
ATOM      3  C   UNL     1       5.376   0.135   1.972  1.00  0.00     0.087 C 
ATOM      4  O   UNL     1       4.351   2.146   1.443  1.00  0.00    -0.300 OA
ENDBRANCH   1   2
BRANCH   1   5
ATOM      5  C   UNL     1       7.209   1.081  -0.249  1.00  0.00     0.043 C 
BRANCH   5   6
ATOM      6  C   UNL     1       7.564  -0.212  -0.861  1.00  0.00    -0.044 A 
ATOM      7  C   UNL     1       7.571  -0.389  -2.249  1.00  0.00     0.008 A 
ATOM      8  C   UNL     1       7.899  -1.278  -0.057  1.00  0.00     0.054 A 
ATOM      9  C   UNL     1       7.912  -1.625  -2.766  1.00  0.00     0.051 A 
ATOM     10  C   UNL     1       8.245  -2.526  -0.585  1.00  0.00     0.166 A 
ATOM     11  C   UNL     1       8.251  -2.701  -1.951  1.00  0.00     0.165 A 
ATOM     12  O   UNL     1       8.610  -3.723  -0.007  1.00  0.00    -0.454 OA
ATOM     13  O   UNL     1       8.625  -4.014  -2.185  1.00  0.00    -0.454 OA
ATOM     14  C   UNL     1       8.950  -4.672  -0.984  1.00  0.00     0.468 C 
ENDBRANCH   5   6
ENDBRANCH   1   5
TORSDOF 3
ENDMDL
MODEL 3
REMARK VINA RESULT:      -7.2      2.055      2.630
REMARK SMILES CC(=O)CCc1ccc2c(c1)OCO2
REMARK SMILES IDX 4 1 2 2 1 3 3 4 5 5 6 6 7 7 11 8 8 9 10 10 9 11 12 12 14 13
REMARK SMILES IDX 13 14
REMARK H PARENT
REMARK Flexibility Score: inf
ROOT
ATOM      1  C   UNL     1       5.394  -0.072   2.006  1.00  0.00     0.080 C 
ENDROOT
BRANCH   1   2
ATOM      2  C   UNL     1       4.565   1.143   1.768  1.00  0.00     0.130 C 
ATOM      3  C   UNL     1       4.913   2.130   0.711  1.00  0.00     0.087 C 
ATOM      4  O   UNL     1       3.570   1.364   2.439  1.00  0.00    -0.300 OA
ENDBRANCH   1   2
BRANCH   1   5
ATOM      5  C   UNL     1       6.840   0.163   1.615  1.00  0.00     0.043 C 
BRANCH   5   6
ATOM      6  C   UNL     1       7.273  -0.754   0.546  1.00  0.00    -0.044 A 
ATOM      7  C   UNL     1       7.151  -0.414  -0.806  1.00  0.00     0.008 A 
ATOM      8  C   UNL     1       7.815  -1.976   0.874  1.00  0.00     0.054 A 
ATOM      9  C   UNL     1       7.575  -1.315  -1.766  1.00  0.00     0.051 A 
ATOM     10  C   UNL     1       8.243  -2.883  -0.100  1.00  0.00     0.166 A 
ATOM     11  C   UNL     1       8.122  -2.550  -1.431  1.00  0.00     0.165 A 
ATOM     12  O   UNL     1       8.805  -4.141  -0.031  1.00  0.00    -0.454 OA
ATOM     13  O   UNL     1       8.618  -3.620  -2.159  1.00  0.00    -0.454 OA
ATOM     14  C   UNL     1       9.145  -4.612  -1.310  1.00  0.00     0.468 C 
ENDBRANCH   5   6
ENDBRANCH   1   5
TORSDOF 3
ENDMDL
MODEL 4
REMARK VINA RESULT:      -7.1      1.248      1.444
REMARK SMILES CC(=O)CCc1ccc2c(c1)OCO2
REMARK SMILES IDX 4 1 2 2 1 3 3 4 5 5 6 6 7 7 11 8 8 9 10 10 9 11 12 12 14 13
REMARK SMILES IDX 13 14
REMARK H PARENT
REMARK Flexibility Score: inf
ROOT
ATOM      1  C   UNL     1       6.371   1.211   0.950  1.00  0.00     0.080 C 
ENDROOT
BRANCH   1   2
ATOM      2  C   UNL     1       5.641   0.366   1.936  1.00  0.00     0.130 C 
ATOM      3  C   UNL     1       6.248  -0.865   2.510  1.00  0.00     0.087 C 
ATOM      4  O   UNL     1       4.516   0.663   2.304  1.00  0.00    -0.300 OA
ENDBRANCH   1   2
BRANCH   1   5
ATOM      5  C   UNL     1       5.873   0.966  -0.460  1.00  0.00     0.043 C 
BRANCH   5   6
ATOM      6  C   UNL     1       6.812   0.136  -1.236  1.00  0.00    -0.044 A 
ATOM      7  C   UNL     1       7.498   0.647  -2.344  1.00  0.00     0.008 A 
ATOM      8  C   UNL     1       7.029  -1.173  -0.869  1.00  0.00     0.054 A 
ATOM      9  C   UNL     1       8.368  -0.179  -3.033  1.00  0.00     0.051 A 
ATOM     10  C   UNL     1       7.910  -2.003  -1.569  1.00  0.00     0.166 A 
ATOM     11  C   UNL     1       8.585  -1.502  -2.660  1.00  0.00     0.165 A 
ATOM     12  O   UNL     1       8.291  -3.318  -1.406  1.00  0.00    -0.454 OA
ATOM     13  O   UNL     1       9.375  -2.530  -3.149  1.00  0.00    -0.454 OA
ATOM     14  C   UNL     1       9.288  -3.672  -2.330  1.00  0.00     0.468 C 
ENDBRANCH   5   6
ENDBRANCH   1   5
TORSDOF 3
ENDMDL
MODEL 5
REMARK VINA RESULT:      -7.1      1.950      2.601
REMARK SMILES CC(=O)CCc1ccc2c(c1)OCO2
REMARK SMILES IDX 4 1 2 2 1 3 3 4 5 5 6 6 7 7 11 8 8 9 10 10 9 11 12 12 14 13
REMARK SMILES IDX 13 14
REMARK H PARENT
REMARK Flexibility Score: inf
ROOT
ATOM      1  C   UNL     1       6.593   0.929   1.199  1.00  0.00     0.080 C 
ENDROOT
BRANCH   1   2
ATOM      2  C   UNL     1       5.283   1.569   0.891  1.00  0.00     0.130 C 
ATOM      3  C   UNL     1       4.993   2.150  -0.447  1.00  0.00     0.087 C 
ATOM      4  O   UNL     1       4.405   1.635   1.736  1.00  0.00    -0.300 OA
ENDBRANCH   1   2
BRANCH   1   5
ATOM      5  C   UNL     1       7.566   1.087   0.047  1.00  0.00     0.043 C 
BRANCH   5   6
ATOM      6  C   UNL     1       7.814  -0.194  -0.639  1.00  0.00    -0.044 A 
ATOM      7  C   UNL     1       7.779  -0.297  -2.034  1.00  0.00     0.008 A 
ATOM      8  C   UNL     1       8.089  -1.322   0.101  1.00  0.00     0.054 A 
ATOM      9  C   UNL     1       8.020  -1.525  -2.622  1.00  0.00     0.051 A 
ATOM     10  C   UNL     1       8.333  -2.561  -0.499  1.00  0.00     0.166 A 
ATOM     11  C   UNL     1       8.298  -2.663  -1.872  1.00  0.00     0.165 A 
ATOM     12  O   UNL     1       8.623  -3.809   0.008  1.00  0.00    -0.454 OA
ATOM     13  O   UNL     1       8.571  -3.986  -2.182  1.00  0.00    -0.454 OA
ATOM     14  C   UNL     1       8.874  -4.728  -1.025  1.00  0.00     0.468 C 
ENDBRANCH   5   6
ENDBRANCH   1   5
TORSDOF 3
ENDMDL
