@<TRIPOS>MOLECULE
/home/cewinharhar/GITHUB/reincatalyze/data/processed/docking_pred/2023-May-24-1506_sub9_nm5_bs15_s42_ex16_mel10_mts10000_k50_ec02_g099_lra3e-4_lrc3e-3/f32d20faebe3d2be17d1bcf3c85c7c889e58fe23_ligand_9.pdbqt
 14 15 0 0 0
SMALL
GASTEIGER

@<TRIPOS>ATOM
      1  C          5.7170    1.3400   -0.3060 C.3     1  UNL1        0.0800
      2  C          5.1030    1.2690    1.0490 C.2     1  UNL1        0.1300
      3  C          5.3760    0.1350    1.9720 C.3     1  UNL1        0.0870
      4  O          4.3510    2.1460    1.4430 O.2     1  UNL1       -0.3000
      5  C          7.2090    1.0810   -0.2490 C.3     1  UNL1        0.0430
      6  C          7.5640   -0.2120   -0.8610 C.2     1  UNL1       -0.0440
      7  C          7.5710   -0.3890   -2.2490 C.2     1  UNL1        0.0080
      8  C          7.8990   -1.2780   -0.0570 C.2     1  UNL1        0.0540
      9  C          7.9120   -1.6250   -2.7660 C.2     1  UNL1        0.0510
     10  C          8.2450   -2.5260   -0.5850 C.2     1  UNL1        0.1660
     11  C          8.2510   -2.7010   -1.9510 C.2     1  UNL1        0.1650
     12  O          8.6100   -3.7230   -0.0070 O.2     1  UNL1       -0.4540
     13  O          8.6250   -4.0140   -2.1850 O.2     1  UNL1       -0.4540
     14  C          8.9500   -4.6720   -0.9840 C.3     1  UNL1        0.4680
@<TRIPOS>BOND
     1     9     7    1
     2     9    11    2
     3     7     6    2
     4    13    11    1
     5    13    14    1
     6    11    10    1
     7    14    12    1
     8     6     5    1
     9     6     8    1
    10    10     8    2
    11    10    12    1
    12     1     5    1
    13     1     2    1
    14     2     4    2
    15     2     3    1
