MODEL 1
REMARK VINA RESULT:      -7.6      0.000      0.000
REMARK SMILES CC(=O)CCc1ccc2c(c1)OCO2
REMARK SMILES IDX 4 1 2 2 1 3 3 4 5 5 6 6 7 7 11 8 8 9 10 10 9 11 12 12 14 13
REMARK SMILES IDX 13 14
REMARK H PARENT
REMARK Flexibility Score: inf
ROOT
ATOM      1  C   UNL     1       5.520   1.918   1.267  1.00  0.00     0.080 C 
ENDROOT
BRANCH   1   2
ATOM      2  C   UNL     1       5.069   0.705   2.003  1.00  0.00     0.130 C 
ATOM      3  C   UNL     1       5.948  -0.485   2.160  1.00  0.00     0.087 C 
ATOM      4  O   UNL     1       3.956   0.651   2.502  1.00  0.00    -0.300 OA
ENDBRANCH   1   2
BRANCH   1   5
ATOM      5  C   UNL     1       5.395   1.731  -0.232  1.00  0.00     0.043 C 
BRANCH   5   6
ATOM      6  C   UNL     1       6.562   1.031  -0.795  1.00  0.00    -0.044 A 
ATOM      7  C   UNL     1       7.869   1.468  -0.548  1.00  0.00     0.008 A 
ATOM      8  C   UNL     1       6.376  -0.083  -1.582  1.00  0.00     0.054 A 
ATOM      9  C   UNL     1       8.926   0.769  -1.102  1.00  0.00     0.051 A 
ATOM     10  C   UNL     1       7.448  -0.786  -2.139  1.00  0.00     0.166 A 
ATOM     11  C   UNL     1       8.734  -0.356  -1.898  1.00  0.00     0.165 A 
ATOM     12  O   UNL     1       7.523  -1.903  -2.943  1.00  0.00    -0.454 OA
ATOM     13  O   UNL     1       9.580  -1.228  -2.565  1.00  0.00    -0.454 OA
ATOM     14  C   UNL     1       8.858  -2.277  -3.165  1.00  0.00     0.468 C 
ENDBRANCH   5   6
ENDBRANCH   1   5
TORSDOF 3
ENDMDL
MODEL 2
REMARK VINA RESULT:      -7.5      1.923      2.387
REMARK SMILES CC(=O)CCc1ccc2c(c1)OCO2
REMARK SMILES IDX 4 1 2 2 1 3 3 4 5 5 6 6 7 7 11 8 8 9 10 10 9 11 12 12 14 13
REMARK SMILES IDX 13 14
REMARK H PARENT
REMARK Flexibility Score: inf
ROOT
ATOM      1  C   UNL     1       5.705   1.357  -0.316  1.00  0.00     0.080 C 
ENDROOT
BRANCH   1   2
ATOM      2  C   UNL     1       5.100   1.277   1.043  1.00  0.00     0.130 C 
ATOM      3  C   UNL     1       5.394   0.146   1.963  1.00  0.00     0.087 C 
ATOM      4  O   UNL     1       4.341   2.144   1.442  1.00  0.00    -0.300 OA
ENDBRANCH   1   2
BRANCH   1   5
ATOM      5  C   UNL     1       7.202   1.125  -0.267  1.00  0.00     0.043 C 
BRANCH   5   6
ATOM      6  C   UNL     1       7.575  -0.171  -0.863  1.00  0.00    -0.044 A 
ATOM      7  C   UNL     1       7.617  -0.355  -2.249  1.00  0.00     0.008 A 
ATOM      8  C   UNL     1       7.893  -1.231  -0.045  1.00  0.00     0.054 A 
ATOM      9  C   UNL     1       7.974  -1.593  -2.751  1.00  0.00     0.051 A 
ATOM     10  C   UNL     1       8.254  -2.481  -0.557  1.00  0.00     0.166 A 
ATOM     11  C   UNL     1       8.294  -2.663  -1.921  1.00  0.00     0.165 A 
ATOM     12  O   UNL     1       8.608  -3.674   0.037  1.00  0.00    -0.454 OA
ATOM     13  O   UNL     1       8.677  -3.978  -2.139  1.00  0.00    -0.454 OA
ATOM     14  C   UNL     1       8.974  -4.628  -0.926  1.00  0.00     0.468 C 
ENDBRANCH   5   6
ENDBRANCH   1   5
TORSDOF 3
ENDMDL
MODEL 3
REMARK VINA RESULT:      -7.2      2.044      2.619
REMARK SMILES CC(=O)CCc1ccc2c(c1)OCO2
REMARK SMILES IDX 4 1 2 2 1 3 3 4 5 5 6 6 7 7 11 8 8 9 10 10 9 11 12 12 14 13
REMARK SMILES IDX 13 14
REMARK H PARENT
REMARK Flexibility Score: inf
ROOT
ATOM      1  C   UNL     1       5.390  -0.073   2.018  1.00  0.00     0.080 C 
ENDROOT
BRANCH   1   2
ATOM      2  C   UNL     1       4.546   1.130   1.774  1.00  0.00     0.130 C 
ATOM      3  C   UNL     1       4.894   2.131   0.730  1.00  0.00     0.087 C 
ATOM      4  O   UNL     1       3.536   1.330   2.431  1.00  0.00    -0.300 OA
ENDBRANCH   1   2
BRANCH   1   5
ATOM      5  C   UNL     1       6.831   0.177   1.618  1.00  0.00     0.043 C 
BRANCH   5   6
ATOM      6  C   UNL     1       7.267  -0.737   0.547  1.00  0.00    -0.044 A 
ATOM      7  C   UNL     1       7.150  -0.391  -0.804  1.00  0.00     0.008 A 
ATOM      8  C   UNL     1       7.806  -1.961   0.872  1.00  0.00     0.054 A 
ATOM      9  C   UNL     1       7.577  -1.289  -1.766  1.00  0.00     0.051 A 
ATOM     10  C   UNL     1       8.237  -2.865  -0.104  1.00  0.00     0.166 A 
ATOM     11  C   UNL     1       8.121  -2.526  -1.434  1.00  0.00     0.165 A 
ATOM     12  O   UNL     1       8.797  -4.123  -0.038  1.00  0.00    -0.454 OA
ATOM     13  O   UNL     1       8.619  -3.594  -2.164  1.00  0.00    -0.454 OA
ATOM     14  C   UNL     1       9.141  -4.590  -1.317  1.00  0.00     0.468 C 
ENDBRANCH   5   6
ENDBRANCH   1   5
TORSDOF 3
ENDMDL
MODEL 4
REMARK VINA RESULT:      -7.1      1.261      1.485
REMARK SMILES CC(=O)CCc1ccc2c(c1)OCO2
REMARK SMILES IDX 4 1 2 2 1 3 3 4 5 5 6 6 7 7 11 8 8 9 10 10 9 11 12 12 14 13
REMARK SMILES IDX 13 14
REMARK H PARENT
REMARK Flexibility Score: inf
ROOT
ATOM      1  C   UNL     1       6.406   1.178   0.919  1.00  0.00     0.080 C 
ENDROOT
BRANCH   1   2
ATOM      2  C   UNL     1       5.678   0.364   1.932  1.00  0.00     0.130 C 
ATOM      3  C   UNL     1       6.273  -0.866   2.520  1.00  0.00     0.087 C 
ATOM      4  O   UNL     1       4.564   0.686   2.311  1.00  0.00    -0.300 OA
ENDBRANCH   1   2
BRANCH   1   5
ATOM      5  C   UNL     1       5.898   0.898  -0.481  1.00  0.00     0.043 C 
BRANCH   5   6
ATOM      6  C   UNL     1       6.846   0.074  -1.252  1.00  0.00    -0.044 A 
ATOM      7  C   UNL     1       7.542   0.591  -2.350  1.00  0.00     0.008 A 
ATOM      8  C   UNL     1       7.061  -1.237  -0.890  1.00  0.00     0.054 A 
ATOM      9  C   UNL     1       8.420  -0.229  -3.035  1.00  0.00     0.051 A 
ATOM     10  C   UNL     1       7.950  -2.062  -1.585  1.00  0.00     0.166 A 
ATOM     11  C   UNL     1       8.635  -1.554  -2.667  1.00  0.00     0.165 A 
ATOM     12  O   UNL     1       8.331  -3.377  -1.427  1.00  0.00    -0.454 OA
ATOM     13  O   UNL     1       9.431  -2.578  -3.154  1.00  0.00    -0.454 OA
ATOM     14  C   UNL     1       9.338  -3.725  -2.342  1.00  0.00     0.468 C 
ENDBRANCH   5   6
ENDBRANCH   1   5
TORSDOF 3
ENDMDL
MODEL 5
REMARK VINA RESULT:      -6.7      1.263      1.752
REMARK SMILES CC(=O)CCc1ccc2c(c1)OCO2
REMARK SMILES IDX 4 1 2 2 1 3 3 4 5 5 6 6 7 7 11 8 8 9 10 10 9 11 12 12 14 13
REMARK SMILES IDX 13 14
REMARK H PARENT
REMARK Flexibility Score: inf
ROOT
ATOM      1  C   UNL     1       5.317  -0.072   1.965  1.00  0.00     0.080 C 
ENDROOT
BRANCH   1   2
ATOM      2  C   UNL     1       4.438   1.118   1.787  1.00  0.00     0.130 C 
ATOM      3  C   UNL     1       4.721   2.150   0.754  1.00  0.00     0.087 C 
ATOM      4  O   UNL     1       3.453   1.280   2.489  1.00  0.00    -0.300 OA
ENDBRANCH   1   2
BRANCH   1   5
ATOM      5  C   UNL     1       6.782   0.313   1.903  1.00  0.00     0.043 C 
BRANCH   5   6
ATOM      6  C   UNL     1       7.386  -0.045   0.607  1.00  0.00    -0.044 A 
ATOM      7  C   UNL     1       7.878   0.932  -0.267  1.00  0.00     0.008 A 
ATOM      8  C   UNL     1       7.476  -1.368   0.238  1.00  0.00     0.054 A 
ATOM      9  C   UNL     1       8.436   0.537  -1.469  1.00  0.00     0.051 A 
ATOM     10  C   UNL     1       8.041  -1.762  -0.979  1.00  0.00     0.166 A 
ATOM     11  C   UNL     1       8.524  -0.801  -1.840  1.00  0.00     0.165 A 
ATOM     12  O   UNL     1       8.243  -2.993  -1.566  1.00  0.00    -0.454 OA
ATOM     13  O   UNL     1       9.019  -1.469  -2.949  1.00  0.00    -0.454 OA
ATOM     14  C   UNL     1       8.943  -2.865  -2.777  1.00  0.00     0.468 C 
ENDBRANCH   5   6
ENDBRANCH   1   5
TORSDOF 3
ENDMDL
