@<TRIPOS>MOLECULE
/home/cewinharhar/GITHUB/reincatalyze/data/processed/docking_pred/2023-May-24-1506_sub9_nm5_bs15_s42_ex16_mel10_mts10000_k50_ec02_g099_lra3e-4_lrc3e-3/f338baa35ded8d3cb3d8a5b9e0cebf8a24c11f6d_ligand_9.pdbqt
 14 15 0 0 0
SMALL
GASTEIGER

@<TRIPOS>ATOM
      1  C          5.5200    1.9180    1.2670 C.3     1  UNL1        0.0800
      2  C          5.0690    0.7050    2.0030 C.2     1  UNL1        0.1300
      3  C          5.9480   -0.4850    2.1600 C.3     1  UNL1        0.0870
      4  O          3.9560    0.6510    2.5020 O.2     1  UNL1       -0.3000
      5  C          5.3950    1.7310   -0.2320 C.3     1  UNL1        0.0430
      6  C          6.5620    1.0310   -0.7950 C.2     1  UNL1       -0.0440
      7  C          7.8690    1.4680   -0.5480 C.2     1  UNL1        0.0080
      8  C          6.3760   -0.0830   -1.5820 C.2     1  UNL1        0.0540
      9  C          8.9260    0.7690   -1.1020 C.2     1  UNL1        0.0510
     10  C          7.4480   -0.7860   -2.1390 C.2     1  UNL1        0.1660
     11  C          8.7340   -0.3560   -1.8980 C.2     1  UNL1        0.1650
     12  O          7.5230   -1.9030   -2.9430 O.2     1  UNL1       -0.4540
     13  O          9.5800   -1.2280   -2.5650 O.2     1  UNL1       -0.4540
     14  C          8.8580   -2.2770   -3.1650 C.3     1  UNL1        0.4680
@<TRIPOS>BOND
     1    14    12    1
     2    14    13    1
     3    12    10    1
     4    13    11    1
     5    10    11    2
     6    10     8    1
     7    11     9    1
     8     8     6    2
     9     9     7    2
    10     6     7    1
    11     6     5    1
    12     5     1    1
    13     1     2    1
    14     2     3    1
    15     2     4    2
