@<TRIPOS>MOLECULE
/home/cewinharhar/GITHUB/reincatalyze/data/processed/docking_pred/2023-May-24-1506_sub9_nm5_bs15_s42_ex16_mel10_mts10000_k50_ec02_g099_lra3e-4_lrc3e-3/f338baa35ded8d3cb3d8a5b9e0cebf8a24c11f6d_ligand_9.pdbqt
 14 15 0 0 0
SMALL
GASTEIGER

@<TRIPOS>ATOM
      1  C          5.7050    1.3570   -0.3160 C.3     1  UNL1        0.0800
      2  C          5.1000    1.2770    1.0430 C.2     1  UNL1        0.1300
      3  C          5.3940    0.1460    1.9630 C.3     1  UNL1        0.0870
      4  O          4.3410    2.1440    1.4420 O.2     1  UNL1       -0.3000
      5  C          7.2020    1.1250   -0.2670 C.3     1  UNL1        0.0430
      6  C          7.5750   -0.1710   -0.8630 C.2     1  UNL1       -0.0440
      7  C          7.6170   -0.3550   -2.2490 C.2     1  UNL1        0.0080
      8  C          7.8930   -1.2310   -0.0450 C.2     1  UNL1        0.0540
      9  C          7.9740   -1.5930   -2.7510 C.2     1  UNL1        0.0510
     10  C          8.2540   -2.4810   -0.5570 C.2     1  UNL1        0.1660
     11  C          8.2940   -2.6630   -1.9210 C.2     1  UNL1        0.1650
     12  O          8.6080   -3.6740    0.0370 O.2     1  UNL1       -0.4540
     13  O          8.6770   -3.9780   -2.1390 O.2     1  UNL1       -0.4540
     14  C          8.9740   -4.6280   -0.9260 C.3     1  UNL1        0.4680
@<TRIPOS>BOND
     1     9     7    1
     2     9    11    2
     3     7     6    2
     4    13    11    1
     5    13    14    1
     6    11    10    1
     7    14    12    1
     8     6     5    1
     9     6     8    1
    10    10     8    2
    11    10    12    1
    12     1     5    1
    13     1     2    1
    14     2     4    2
    15     2     3    1
