@<TRIPOS>MOLECULE
/home/cewinharhar/GITHUB/reincatalyze/data/processed/docking_pred/2023-May-24-1506_sub9_nm5_bs15_s42_ex16_mel10_mts10000_k50_ec02_g099_lra3e-4_lrc3e-3/f3c5d297feb9947f67baa3310bcd1cfc63c32b25_ligand_9.pdbqt
 14 15 0 0 0
SMALL
GASTEIGER

@<TRIPOS>ATOM
      1  C          8.3230    0.1790   -2.6680 C.3     1  UNL1        0.0800
      2  C          8.0650   -1.2830   -2.7820 C.2     1  UNL1        0.1300
      3  C          9.1650   -2.2540   -3.0260 C.3     1  UNL1        0.0870
      4  O          6.9340   -1.7300   -2.6790 O.2     1  UNL1       -0.3000
      5  C          8.8540    0.5390   -1.2950 C.3     1  UNL1        0.0430
      6  C          7.8170    0.4060   -0.2560 C.2     1  UNL1       -0.0440
      7  C          7.9130   -0.5560    0.7570 C.2     1  UNL1        0.0080
      8  C          6.7250    1.2430   -0.2710 C.2     1  UNL1        0.0540
      9  C          6.9100   -0.6340    1.7050 C.2     1  UNL1        0.0510
     10  C          5.7130    1.1600    0.6910 C.2     1  UNL1        0.1660
     11  C          5.8070    0.2140    1.6870 C.2     1  UNL1        0.1650
     12  O          4.5460    1.8660    0.8900 O.2     1  UNL1       -0.4540
     13  O          4.6830    0.3600    2.4850 O.2     1  UNL1       -0.4540
     14  C          3.9030    1.4550    2.0690 C.3     1  UNL1        0.4680
@<TRIPOS>BOND
     1     3     2    1
     2     2     4    2
     3     2     1    1
     4     1     5    1
     5     5     6    1
     6     8     6    2
     7     8    10    1
     8     6     7    1
     9    10    12    1
    10    10    11    2
    11     7     9    2
    12    12    14    1
    13    11     9    1
    14    11    13    1
    15    14    13    1
