@<TRIPOS>MOLECULE
/home/cewinharhar/GITHUB/reincatalyze/data/processed/docking_pred/2023-May-24-1506_sub9_nm5_bs15_s42_ex16_mel10_mts10000_k50_ec02_g099_lra3e-4_lrc3e-3/f43d8cd6194682d8f3e5600fbc578d0750565092_ligand_9.pdbqt
 14 15 0 0 0
SMALL
GASTEIGER

@<TRIPOS>ATOM
      1  C          5.7380    1.3900   -0.1920 C.3     1  UNL1        0.0800
      2  C          5.0880    1.2440    1.1400 C.2     1  UNL1        0.1300
      3  C          5.3710    0.0810    2.0230 C.3     1  UNL1        0.0870
      4  O          4.2990    2.0810    1.5470 O.2     1  UNL1       -0.3000
      5  C          7.2270    1.1180   -0.1110 C.3     1  UNL1        0.0430
      6  C          7.5840   -0.1610   -0.7500 C.2     1  UNL1       -0.0440
      7  C          7.6030   -0.3060   -2.1420 C.2     1  UNL1        0.0080
      8  C          7.9120   -1.2460    0.0320 C.2     1  UNL1        0.0540
      9  C          7.9470   -1.5300   -2.6850 C.2     1  UNL1        0.0510
     10  C          8.2600   -2.4810   -0.5220 C.2     1  UNL1        0.1660
     11  C          8.2770   -2.6250   -1.8910 C.2     1  UNL1        0.1650
     12  O          8.6190   -3.6920    0.0320 O.2     1  UNL1       -0.4540
     13  O          8.6510   -3.9340   -2.1530 O.2     1  UNL1       -0.4540
     14  C          8.9660   -4.6190   -0.9640 C.3     1  UNL1        0.4680
@<TRIPOS>BOND
     1     9     7    1
     2     9    11    2
     3    13    11    1
     4    13    14    1
     5     7     6    2
     6    11    10    1
     7    14    12    1
     8     6     5    1
     9     6     8    1
    10    10     8    2
    11    10    12    1
    12     1     5    1
    13     1     2    1
    14     2     4    2
    15     2     3    1
