MODEL 1
REMARK VINA RESULT:      -7.6      0.000      0.000
REMARK SMILES CC(=O)CCc1ccc2c(c1)OCO2
REMARK SMILES IDX 4 1 2 2 1 3 3 4 5 5 6 6 7 7 11 8 8 9 10 10 9 11 12 12 14 13
REMARK SMILES IDX 13 14
REMARK H PARENT
REMARK Flexibility Score: inf
ROOT
ATOM      1  C   UNL     1       5.531   1.954   1.250  1.00  0.00     0.080 C 
ENDROOT
BRANCH   1   2
ATOM      2  C   UNL     1       5.127   0.734   2.003  1.00  0.00     0.130 C 
ATOM      3  C   UNL     1       6.061  -0.407   2.199  1.00  0.00     0.087 C 
ATOM      4  O   UNL     1       4.010   0.635   2.483  1.00  0.00    -0.300 OA
ENDBRANCH   1   2
BRANCH   1   5
ATOM      5  C   UNL     1       5.402   1.746  -0.246  1.00  0.00     0.043 C 
BRANCH   5   6
ATOM      6  C   UNL     1       6.569   1.039  -0.802  1.00  0.00    -0.044 A 
ATOM      7  C   UNL     1       7.877   1.461  -0.538  1.00  0.00     0.008 A 
ATOM      8  C   UNL     1       6.380  -0.067  -1.599  1.00  0.00     0.054 A 
ATOM      9  C   UNL     1       8.933   0.757  -1.087  1.00  0.00     0.051 A 
ATOM     10  C   UNL     1       7.451  -0.776  -2.151  1.00  0.00     0.166 A 
ATOM     11  C   UNL     1       8.738  -0.360  -1.893  1.00  0.00     0.165 A 
ATOM     12  O   UNL     1       7.524  -1.888  -2.962  1.00  0.00    -0.454 OA
ATOM     13  O   UNL     1       9.583  -1.235  -2.557  1.00  0.00    -0.454 OA
ATOM     14  C   UNL     1       8.858  -2.272  -3.173  1.00  0.00     0.468 C 
ENDBRANCH   5   6
ENDBRANCH   1   5
TORSDOF 3
ENDMDL
MODEL 2
REMARK VINA RESULT:      -7.4      1.930      2.361
REMARK SMILES CC(=O)CCc1ccc2c(c1)OCO2
REMARK SMILES IDX 4 1 2 2 1 3 3 4 5 5 6 6 7 7 11 8 8 9 10 10 9 11 12 12 14 13
REMARK SMILES IDX 13 14
REMARK H PARENT
REMARK Flexibility Score: inf
ROOT
ATOM      1  C   UNL     1       5.738   1.390  -0.192  1.00  0.00     0.080 C 
ENDROOT
BRANCH   1   2
ATOM      2  C   UNL     1       5.088   1.244   1.140  1.00  0.00     0.130 C 
ATOM      3  C   UNL     1       5.371   0.081   2.023  1.00  0.00     0.087 C 
ATOM      4  O   UNL     1       4.299   2.081   1.547  1.00  0.00    -0.300 OA
ENDBRANCH   1   2
BRANCH   1   5
ATOM      5  C   UNL     1       7.227   1.118  -0.111  1.00  0.00     0.043 C 
BRANCH   5   6
ATOM      6  C   UNL     1       7.584  -0.161  -0.750  1.00  0.00    -0.044 A 
ATOM      7  C   UNL     1       7.603  -0.306  -2.142  1.00  0.00     0.008 A 
ATOM      8  C   UNL     1       7.912  -1.246   0.032  1.00  0.00     0.054 A 
ATOM      9  C   UNL     1       7.947  -1.530  -2.685  1.00  0.00     0.051 A 
ATOM     10  C   UNL     1       8.260  -2.481  -0.522  1.00  0.00     0.166 A 
ATOM     11  C   UNL     1       8.277  -2.625  -1.891  1.00  0.00     0.165 A 
ATOM     12  O   UNL     1       8.619  -3.692   0.032  1.00  0.00    -0.454 OA
ATOM     13  O   UNL     1       8.651  -3.934  -2.153  1.00  0.00    -0.454 OA
ATOM     14  C   UNL     1       8.966  -4.619  -0.964  1.00  0.00     0.468 C 
ENDBRANCH   5   6
ENDBRANCH   1   5
TORSDOF 3
ENDMDL
MODEL 3
REMARK VINA RESULT:      -7.2      2.088      2.645
REMARK SMILES CC(=O)CCc1ccc2c(c1)OCO2
REMARK SMILES IDX 4 1 2 2 1 3 3 4 5 5 6 6 7 7 11 8 8 9 10 10 9 11 12 12 14 13
REMARK SMILES IDX 13 14
REMARK H PARENT
REMARK Flexibility Score: inf
ROOT
ATOM      1  C   UNL     1       5.503  -0.002   1.955  1.00  0.00     0.080 C 
ENDROOT
BRANCH   1   2
ATOM      2  C   UNL     1       4.652   1.179   1.638  1.00  0.00     0.130 C 
ATOM      3  C   UNL     1       5.003   2.123   0.544  1.00  0.00     0.087 C 
ATOM      4  O   UNL     1       3.635   1.407   2.273  1.00  0.00    -0.300 OA
ENDBRANCH   1   2
BRANCH   1   5
ATOM      5  C   UNL     1       6.940   0.224   1.527  1.00  0.00     0.043 C 
BRANCH   5   6
ATOM      6  C   UNL     1       7.353  -0.726   0.478  1.00  0.00    -0.044 A 
ATOM      7  C   UNL     1       7.245  -0.410  -0.881  1.00  0.00     0.008 A 
ATOM      8  C   UNL     1       7.862  -1.954   0.833  1.00  0.00     0.054 A 
ATOM      9  C   UNL     1       7.650  -1.340  -1.820  1.00  0.00     0.051 A 
ATOM     10  C   UNL     1       8.270  -2.892  -0.121  1.00  0.00     0.166 A 
ATOM     11  C   UNL     1       8.163  -2.582  -1.458  1.00  0.00     0.165 A 
ATOM     12  O   UNL     1       8.799  -4.161  -0.024  1.00  0.00    -0.454 OA
ATOM     13  O   UNL     1       8.634  -3.679  -2.163  1.00  0.00    -0.454 OA
ATOM     14  C   UNL     1       9.132  -4.667  -1.292  1.00  0.00     0.468 C 
ENDBRANCH   5   6
ENDBRANCH   1   5
TORSDOF 3
ENDMDL
MODEL 4
REMARK VINA RESULT:      -7.1      1.271      1.490
REMARK SMILES CC(=O)CCc1ccc2c(c1)OCO2
REMARK SMILES IDX 4 1 2 2 1 3 3 4 5 5 6 6 7 7 11 8 8 9 10 10 9 11 12 12 14 13
REMARK SMILES IDX 13 14
REMARK H PARENT
REMARK Flexibility Score: inf
ROOT
ATOM      1  C   UNL     1       6.392   1.169   0.963  1.00  0.00     0.080 C 
ENDROOT
BRANCH   1   2
ATOM      2  C   UNL     1       5.645   0.343   1.952  1.00  0.00     0.130 C 
ATOM      3  C   UNL     1       6.234  -0.886   2.547  1.00  0.00     0.087 C 
ATOM      4  O   UNL     1       4.518   0.654   2.304  1.00  0.00    -0.300 OA
ENDBRANCH   1   2
BRANCH   1   5
ATOM      5  C   UNL     1       5.893   0.926  -0.447  1.00  0.00     0.043 C 
BRANCH   5   6
ATOM      6  C   UNL     1       6.830   0.093  -1.223  1.00  0.00    -0.044 A 
ATOM      7  C   UNL     1       7.494   0.592  -2.349  1.00  0.00     0.008 A 
ATOM      8  C   UNL     1       7.066  -1.207  -0.838  1.00  0.00     0.054 A 
ATOM      9  C   UNL     1       8.363  -0.235  -3.037  1.00  0.00     0.051 A 
ATOM     10  C   UNL     1       7.946  -2.039  -1.536  1.00  0.00     0.166 A 
ATOM     11  C   UNL     1       8.599  -1.549  -2.645  1.00  0.00     0.165 A 
ATOM     12  O   UNL     1       8.344  -3.347  -1.358  1.00  0.00    -0.454 OA
ATOM     13  O   UNL     1       9.394  -2.577  -3.129  1.00  0.00    -0.454 OA
ATOM     14  C   UNL     1       9.331  -3.706  -2.290  1.00  0.00     0.468 C 
ENDBRANCH   5   6
ENDBRANCH   1   5
TORSDOF 3
ENDMDL
MODEL 5
REMARK VINA RESULT:      -6.8      1.894      2.524
REMARK SMILES CC(=O)CCc1ccc2c(c1)OCO2
REMARK SMILES IDX 4 1 2 2 1 3 3 4 5 5 6 6 7 7 11 8 8 9 10 10 9 11 12 12 14 13
REMARK SMILES IDX 13 14
REMARK H PARENT
REMARK Flexibility Score: inf
ROOT
ATOM      1  C   UNL     1       6.808   0.526   1.057  1.00  0.00     0.080 C 
ENDROOT
BRANCH   1   2
ATOM      2  C   UNL     1       5.456   1.056   1.389  1.00  0.00     0.130 C 
ATOM      3  C   UNL     1       4.830   2.149   0.597  1.00  0.00     0.087 C 
ATOM      4  O   UNL     1       4.819   0.605   2.327  1.00  0.00    -0.300 OA
ENDBRANCH   1   2
BRANCH   1   5
ATOM      5  C   UNL     1       7.150   0.763  -0.401  1.00  0.00     0.043 C 
BRANCH   5   6
ATOM      6  C   UNL     1       7.698  -0.448  -1.038  1.00  0.00    -0.044 A 
ATOM      7  C   UNL     1       8.088  -0.456  -2.382  1.00  0.00     0.008 A 
ATOM      8  C   UNL     1       7.837  -1.603  -0.302  1.00  0.00     0.054 A 
ATOM      9  C   UNL     1       8.597  -1.622  -2.926  1.00  0.00     0.051 A 
ATOM     10  C   UNL     1       8.352  -2.778  -0.856  1.00  0.00     0.166 A 
ATOM     11  C   UNL     1       8.735  -2.788  -2.179  1.00  0.00     0.165 A 
ATOM     12  O   UNL     1       8.585  -4.036  -0.342  1.00  0.00    -0.454 OA
ATOM     13  O   UNL     1       9.201  -4.064  -2.452  1.00  0.00    -0.454 OA
ATOM     14  C   UNL     1       9.208  -4.862  -1.292  1.00  0.00     0.468 C 
ENDBRANCH   5   6
ENDBRANCH   1   5
TORSDOF 3
ENDMDL
