@<TRIPOS>MOLECULE
/home/cewinharhar/GITHUB/reincatalyze/data/processed/docking_pred/2023-May-24-1506_sub9_nm5_bs15_s42_ex16_mel10_mts10000_k50_ec02_g099_lra3e-4_lrc3e-3/f43d8cd6194682d8f3e5600fbc578d0750565092_ligand_9.pdbqt
 14 15 0 0 0
SMALL
GASTEIGER

@<TRIPOS>ATOM
      1  C          6.8080    0.5260    1.0570 C.3     1  UNL1        0.0800
      2  C          5.4560    1.0560    1.3890 C.2     1  UNL1        0.1300
      3  C          4.8300    2.1490    0.5970 C.3     1  UNL1        0.0870
      4  O          4.8190    0.6050    2.3270 O.2     1  UNL1       -0.3000
      5  C          7.1500    0.7630   -0.4010 C.3     1  UNL1        0.0430
      6  C          7.6980   -0.4480   -1.0380 C.2     1  UNL1       -0.0440
      7  C          8.0880   -0.4560   -2.3820 C.2     1  UNL1        0.0080
      8  C          7.8370   -1.6030   -0.3020 C.2     1  UNL1        0.0540
      9  C          8.5970   -1.6220   -2.9260 C.2     1  UNL1        0.0510
     10  C          8.3520   -2.7780   -0.8560 C.2     1  UNL1        0.1660
     11  C          8.7350   -2.7880   -2.1790 C.2     1  UNL1        0.1650
     12  O          8.5850   -4.0360   -0.3420 O.2     1  UNL1       -0.4540
     13  O          9.2010   -4.0640   -2.4520 O.2     1  UNL1       -0.4540
     14  C          9.2080   -4.8620   -1.2920 C.3     1  UNL1        0.4680
@<TRIPOS>BOND
     1     9     7    1
     2     9    11    2
     3    13    11    1
     4    13    14    1
     5     7     6    2
     6    11    10    1
     7    14    12    1
     8     6     5    1
     9     6     8    1
    10    10    12    1
    11    10     8    2
    12     5     1    1
    13     3     2    1
    14     1     2    1
    15     2     4    2
