@<TRIPOS>MOLECULE
/home/cewinharhar/GITHUB/reincatalyze/data/processed/docking_pred/2023-May-24-1506_sub9_nm5_bs15_s42_ex16_mel10_mts10000_k50_ec02_g099_lra3e-4_lrc3e-3/f43d8cd6194682d8f3e5600fbc578d0750565092_ligand_9.pdbqt
 14 15 0 0 0
SMALL
GASTEIGER

@<TRIPOS>ATOM
      1  C          5.5030   -0.0020    1.9550 C.3     1  UNL1        0.0800
      2  C          4.6520    1.1790    1.6380 C.2     1  UNL1        0.1300
      3  C          5.0030    2.1230    0.5440 C.3     1  UNL1        0.0870
      4  O          3.6350    1.4070    2.2730 O.2     1  UNL1       -0.3000
      5  C          6.9400    0.2240    1.5270 C.3     1  UNL1        0.0430
      6  C          7.3530   -0.7260    0.4780 C.2     1  UNL1       -0.0440
      7  C          7.2450   -0.4100   -0.8810 C.2     1  UNL1        0.0080
      8  C          7.8620   -1.9540    0.8330 C.2     1  UNL1        0.0540
      9  C          7.6500   -1.3400   -1.8200 C.2     1  UNL1        0.0510
     10  C          8.2700   -2.8920   -0.1210 C.2     1  UNL1        0.1660
     11  C          8.1630   -2.5820   -1.4580 C.2     1  UNL1        0.1650
     12  O          8.7990   -4.1610   -0.0240 O.2     1  UNL1       -0.4540
     13  O          8.6340   -3.6790   -2.1630 O.2     1  UNL1       -0.4540
     14  C          9.1320   -4.6670   -1.2920 C.3     1  UNL1        0.4680
@<TRIPOS>BOND
     1    13    11    1
     2    13    14    1
     3     9    11    2
     4     9     7    1
     5    11    10    1
     6    14    12    1
     7     7     6    2
     8    10    12    1
     9    10     8    2
    10     6     8    1
    11     6     5    1
    12     3     2    1
    13     5     1    1
    14     2     1    1
    15     2     4    2
