@<TRIPOS>MOLECULE
/home/cewinharhar/GITHUB/reincatalyze/data/processed/docking_pred/2023-May-24-1506_sub9_nm5_bs15_s42_ex16_mel10_mts10000_k50_ec02_g099_lra3e-4_lrc3e-3/f56adf6440abdf94ed5aca5eaefea0329b307251_ligand_9.pdbqt
 14 15 0 0 0
SMALL
GASTEIGER

@<TRIPOS>ATOM
      1  C          5.6930    1.3800   -0.2270 C.3     1  UNL1        0.0800
      2  C          4.9930    1.2300    1.0800 C.2     1  UNL1        0.1300
      3  C          5.2530    0.0710    1.9750 C.3     1  UNL1        0.0870
      4  O          4.1810    2.0600    1.4550 O.2     1  UNL1       -0.3000
      5  C          7.1780    1.1070   -0.0910 C.3     1  UNL1        0.0430
      6  C          7.5600   -0.1640   -0.7330 C.2     1  UNL1       -0.0440
      7  C          7.6250   -0.2920   -2.1250 C.2     1  UNL1        0.0080
      8  C          7.8650   -1.2570    0.0470 C.2     1  UNL1        0.0540
      9  C          7.9910   -1.5090   -2.6700 C.2     1  UNL1        0.0510
     10  C          8.2360   -2.4850   -0.5100 C.2     1  UNL1        0.1660
     11  C          8.2980   -2.6120   -1.8790 C.2     1  UNL1        0.1650
     12  O          8.5800   -3.7000    0.0420 O.2     1  UNL1       -0.4540
     13  O          8.6850   -3.9170   -2.1430 O.2     1  UNL1       -0.4540
     14  C          8.9630   -4.6150   -0.9530 C.3     1  UNL1        0.4680
@<TRIPOS>BOND
     1     9     7    1
     2     9    11    2
     3    13    11    1
     4    13    14    1
     5     7     6    2
     6    11    10    1
     7    14    12    1
     8     6     5    1
     9     6     8    1
    10    10    12    1
    11    10     8    2
    12     1     5    1
    13     1     2    1
    14     2     4    2
    15     2     3    1
