@<TRIPOS>MOLECULE
/home/cewinharhar/GITHUB/reincatalyze/data/processed/docking_pred/2023-May-24-1506_sub9_nm5_bs15_s42_ex16_mel10_mts10000_k50_ec02_g099_lra3e-4_lrc3e-3/f56adf6440abdf94ed5aca5eaefea0329b307251_ligand_9.pdbqt
 14 15 0 0 0
SMALL
GASTEIGER

@<TRIPOS>ATOM
      1  C          5.3060   -0.0790    1.9500 C.3     1  UNL1        0.0800
      2  C          4.4220    1.1060    1.7680 C.2     1  UNL1        0.1300
      3  C          4.6910    2.1270    0.7200 C.3     1  UNL1        0.0870
      4  O          3.4450    1.2750    2.4800 O.2     1  UNL1       -0.3000
      5  C          6.7690    0.3130    1.9050 C.3     1  UNL1        0.0430
      6  C          7.3870   -0.0310    0.6120 C.2     1  UNL1       -0.0440
      7  C          7.9060    0.9540   -0.2370 C.2     1  UNL1        0.0080
      8  C          7.4640   -1.3480    0.2210 C.2     1  UNL1        0.0540
      9  C          8.4750    0.5720   -1.4380 C.2     1  UNL1        0.0510
     10  C          8.0410   -1.7290   -0.9940 C.2     1  UNL1        0.1660
     11  C          8.5500   -0.7610   -1.8310 C.2     1  UNL1        0.1650
     12  O          8.2340   -2.9520   -1.6010 O.2     1  UNL1       -0.4540
     13  O          9.0510   -1.4160   -2.9450 O.2     1  UNL1       -0.4540
     14  C          8.9530   -2.8130   -2.7990 C.3     1  UNL1        0.4680
@<TRIPOS>BOND
     1    13    14    1
     2    13    11    1
     3    14    12    1
     4    11     9    2
     5    11    10    1
     6    12    10    1
     7     9     7    1
     8    10     8    2
     9     7     6    2
    10     8     6    1
    11     6     5    1
    12     3     2    1
    13     2     1    1
    14     2     4    2
    15     5     1    1
