@<TRIPOS>MOLECULE
/home/cewinharhar/GITHUB/reincatalyze/data/processed/docking_pred/2023-May-24-1506_sub9_nm5_bs15_s42_ex16_mel10_mts10000_k50_ec02_g099_lra3e-4_lrc3e-3/f56adf6440abdf94ed5aca5eaefea0329b307251_ligand_9.pdbqt
 14 15 0 0 0
SMALL
GASTEIGER

@<TRIPOS>ATOM
      1  C          5.4650    1.9290    1.2560 C.3     1  UNL1        0.0800
      2  C          4.9760    0.7200    1.9740 C.2     1  UNL1        0.1300
      3  C          5.8060   -0.5090    2.0900 C.3     1  UNL1        0.0870
      4  O          3.8710    0.7020    2.4910 O.2     1  UNL1       -0.3000
      5  C          5.3610    1.7570   -0.2470 C.3     1  UNL1        0.0430
      6  C          6.5300    1.0490   -0.7980 C.2     1  UNL1       -0.0440
      7  C          7.8370    1.4700   -0.5260 C.2     1  UNL1        0.0080
      8  C          6.3440   -0.0540   -1.5990 C.2     1  UNL1        0.0540
      9  C          8.8950    0.7660   -1.0700 C.2     1  UNL1        0.0510
     10  C          7.4180   -0.7630   -2.1460 C.2     1  UNL1        0.1660
     11  C          8.7040   -0.3490   -1.8800 C.2     1  UNL1        0.1650
     12  O          7.4940   -1.8730   -2.9610 O.2     1  UNL1       -0.4540
     13  O          9.5520   -1.2240   -2.5420 O.2     1  UNL1       -0.4540
     14  C          8.8290   -2.2590   -3.1650 C.3     1  UNL1        0.4680
@<TRIPOS>BOND
     1    14    12    1
     2    14    13    1
     3    12    10    1
     4    13    11    1
     5    10    11    2
     6    10     8    1
     7    11     9    1
     8     8     6    2
     9     9     7    2
    10     6     7    1
    11     6     5    1
    12     5     1    1
    13     1     2    1
    14     2     3    1
    15     2     4    2
