@<TRIPOS>MOLECULE
/home/cewinharhar/GITHUB/reincatalyze/data/processed/docking_pred/2023-May-24-1506_sub9_nm5_bs15_s42_ex16_mel10_mts10000_k50_ec02_g099_lra3e-4_lrc3e-3/f5d21a1fca5b46740ede221944c3c0743e15dd7f_ligand_9.pdbqt
 14 15 0 0 0
SMALL
GASTEIGER

@<TRIPOS>ATOM
      1  C          5.3880   -0.0830    2.0260 C.3     1  UNL1        0.0800
      2  C          4.5440    1.1180    1.7710 C.2     1  UNL1        0.1300
      3  C          4.8990    2.1150    0.7260 C.3     1  UNL1        0.0870
      4  O          3.5290    1.3190    2.4190 O.2     1  UNL1       -0.3000
      5  C          6.8290    0.1630    1.6240 C.3     1  UNL1        0.0430
      6  C          7.2620   -0.7540    0.5540 C.2     1  UNL1       -0.0440
      7  C          7.1290   -0.4180   -0.7980 C.2     1  UNL1        0.0080
      8  C          7.8130   -1.9720    0.8810 C.2     1  UNL1        0.0540
      9  C          7.5540   -1.3180   -1.7580 C.2     1  UNL1        0.0510
     10  C          8.2410   -2.8790   -0.0940 C.2     1  UNL1        0.1660
     11  C          8.1100   -2.5490   -1.4240 C.2     1  UNL1        0.1650
     12  O          8.8110   -4.1320   -0.0250 O.2     1  UNL1       -0.4540
     13  O          8.6080   -3.6170   -2.1530 O.2     1  UNL1       -0.4540
     14  C          9.1460   -4.6040   -1.3050 C.3     1  UNL1        0.4680
@<TRIPOS>BOND
     1    13    11    1
     2    13    14    1
     3     9    11    2
     4     9     7    1
     5    11    10    1
     6    14    12    1
     7     7     6    2
     8    10    12    1
     9    10     8    2
    10     6     8    1
    11     6     5    1
    12     3     2    1
    13     5     1    1
    14     2     1    1
    15     2     4    2
