@<TRIPOS>MOLECULE
/home/cewinharhar/GITHUB/reincatalyze/data/processed/docking_pred/2023-May-24-1506_sub9_nm5_bs15_s42_ex16_mel10_mts10000_k50_ec02_g099_lra3e-4_lrc3e-3/f5d21a1fca5b46740ede221944c3c0743e15dd7f_ligand_9.pdbqt
 14 15 0 0 0
SMALL
GASTEIGER

@<TRIPOS>ATOM
      1  C          6.3820    1.2180    0.8620 C.3     1  UNL1        0.0800
      2  C          5.6680    0.4250    1.9020 C.2     1  UNL1        0.1300
      3  C          6.2660   -0.8010    2.4950 C.3     1  UNL1        0.0870
      4  O          4.5650    0.7610    2.2990 O.2     1  UNL1       -0.3000
      5  C          5.8690    0.8940   -0.5260 C.3     1  UNL1        0.0430
      6  C          6.8290    0.0740   -1.2860 C.2     1  UNL1       -0.0440
      7  C          7.5410    0.5970   -2.3720 C.2     1  UNL1        0.0080
      8  C          7.0410   -1.2370   -0.9270 C.2     1  UNL1        0.0540
      9  C          8.4300   -0.2190   -3.0470 C.2     1  UNL1        0.0510
     10  C          7.9420   -2.0580   -1.6120 C.2     1  UNL1        0.1660
     11  C          8.6420   -1.5450   -2.6820 C.2     1  UNL1        0.1650
     12  O          8.3230   -3.3740   -1.4530 O.2     1  UNL1       -0.4540
     13  O          9.4470   -2.5660   -3.1610 O.2     1  UNL1       -0.4540
     14  C          9.3440   -3.7160   -2.3550 C.3     1  UNL1        0.4680
@<TRIPOS>BOND
     1    13    11    1
     2    13    14    1
     3     9    11    2
     4     9     7    1
     5    11    10    1
     6     7     6    2
     7    14    12    1
     8    10    12    1
     9    10     8    2
    10     6     8    1
    11     6     5    1
    12     5     1    1
    13     1     2    1
    14     2     4    2
    15     2     3    1
