@<TRIPOS>MOLECULE
/home/cewinharhar/GITHUB/reincatalyze/data/processed/docking_pred/2023-May-24-1506_sub9_nm5_bs15_s42_ex16_mel10_mts10000_k50_ec02_g099_lra3e-4_lrc3e-3/f5fb071253116e33fb6a6057d91faa3d89d34546_ligand_9.pdbqt
 14 15 0 0 0
SMALL
GASTEIGER

@<TRIPOS>ATOM
      1  C          6.7810    0.9030    1.4860 C.3     1  UNL1        0.0800
      2  C          5.3190    1.1830    1.4570 C.2     1  UNL1        0.1300
      3  C          4.7260    2.1360    0.4810 C.3     1  UNL1        0.0870
      4  O          4.5600    0.6350    2.2400 O.2     1  UNL1       -0.3000
      5  C          7.4100    1.1170    0.1230 C.3     1  UNL1        0.0430
      6  C          7.6770   -0.1600   -0.5620 C.2     1  UNL1       -0.0440
      7  C          7.5860   -0.2780   -1.9540 C.2     1  UNL1        0.0080
      8  C          8.0270   -1.2690    0.1740 C.2     1  UNL1        0.0540
      9  C          7.8490   -1.5020   -2.5420 C.2     1  UNL1        0.0510
     10  C          8.2930   -2.5040   -0.4250 C.2     1  UNL1        0.1660
     11  C          8.2020   -2.6220   -1.7950 C.2     1  UNL1        0.1650
     12  O          8.6530   -3.7360    0.0790 O.2     1  UNL1       -0.4540
     13  O          8.5140   -3.9360   -2.1060 O.2     1  UNL1       -0.4540
     14  C          8.8940   -4.6540   -0.9560 C.3     1  UNL1        0.4680
@<TRIPOS>BOND
     1     9     7    1
     2     9    11    2
     3    13    11    1
     4    13    14    1
     5     7     6    2
     6    11    10    1
     7    14    12    1
     8     6     5    1
     9     6     8    1
    10    10    12    1
    11    10     8    2
    12     5     1    1
    13     3     2    1
    14     2     1    1
    15     2     4    2
