@<TRIPOS>MOLECULE
/home/cewinharhar/GITHUB/reincatalyze/data/processed/docking_pred/2023-May-24-1506_sub9_nm5_bs15_s42_ex16_mel10_mts10000_k50_ec02_g099_lra3e-4_lrc3e-3/f6b0a6d65051a5b20d9eb350202399160ef0f891_ligand_9.pdbqt
 14 15 0 0 0
SMALL
GASTEIGER

@<TRIPOS>ATOM
      1  C          6.7200    0.4670    0.9770 C.3     1  UNL1        0.0800
      2  C          5.3840    1.0330    1.3120 C.2     1  UNL1        0.1300
      3  C          4.7890    2.1480    0.5280 C.3     1  UNL1        0.0870
      4  O          4.7340    0.5950    2.2480 O.2     1  UNL1       -0.3000
      5  C          7.0230    0.6080   -0.5010 C.3     1  UNL1        0.0430
      6  C          7.5950   -0.6290   -1.0630 C.2     1  UNL1       -0.0440
      7  C          7.9240   -0.7340   -2.4190 C.2     1  UNL1        0.0080
      8  C          7.8160   -1.7110   -0.2420 C.2     1  UNL1        0.0540
      9  C          8.4590   -1.9200   -2.8890 C.2     1  UNL1        0.0510
     10  C          8.3580   -2.9080   -0.7230 C.2     1  UNL1        0.1660
     11  C          8.6810   -3.0130   -2.0570 C.2     1  UNL1        0.1650
     12  O          8.6680   -4.1080   -0.1190 O.2     1  UNL1       -0.4540
     13  O          9.1890   -4.2880   -2.2470 O.2     1  UNL1       -0.4540
     14  C          9.2830   -4.9850   -1.0270 C.3     1  UNL1        0.4680
@<TRIPOS>BOND
     1     9     7    1
     2     9    11    2
     3     7     6    2
     4    13    11    1
     5    13    14    1
     6    11    10    1
     7     6     5    1
     8     6     8    1
     9    14    12    1
    10    10     8    2
    11    10    12    1
    12     5     1    1
    13     3     2    1
    14     1     2    1
    15     2     4    2
