MODEL 1
REMARK VINA RESULT:      -7.7      0.000      0.000
REMARK SMILES CC(=O)CCc1ccc2c(c1)OCO2
REMARK SMILES IDX 4 1 2 2 1 3 3 4 5 5 6 6 7 7 11 8 8 9 10 10 9 11 12 12 14 13
REMARK SMILES IDX 13 14
REMARK H PARENT
REMARK Flexibility Score: inf
ROOT
ATOM      1  C   UNL     1       5.496   1.931   1.251  1.00  0.00     0.080 C 
ENDROOT
BRANCH   1   2
ATOM      2  C   UNL     1       5.051   0.718   1.993  1.00  0.00     0.130 C 
ATOM      3  C   UNL     1       5.928  -0.474   2.139  1.00  0.00     0.087 C 
ATOM      4  O   UNL     1       3.944   0.668   2.505  1.00  0.00    -0.300 OA
ENDBRANCH   1   2
BRANCH   1   5
ATOM      5  C   UNL     1       5.378   1.734  -0.247  1.00  0.00     0.043 C 
BRANCH   5   6
ATOM      6  C   UNL     1       6.550   1.034  -0.801  1.00  0.00    -0.044 A 
ATOM      7  C   UNL     1       7.855   1.469  -0.539  1.00  0.00     0.008 A 
ATOM      8  C   UNL     1       6.370  -0.076  -1.595  1.00  0.00     0.054 A 
ATOM      9  C   UNL     1       8.916   0.771  -1.086  1.00  0.00     0.051 A 
ATOM     10  C   UNL     1       7.447  -0.778  -2.145  1.00  0.00     0.166 A 
ATOM     11  C   UNL     1       8.731  -0.350  -1.888  1.00  0.00     0.165 A 
ATOM     12  O   UNL     1       7.528  -1.892  -2.953  1.00  0.00    -0.454 OA
ATOM     13  O   UNL     1       9.582  -1.221  -2.550  1.00  0.00    -0.454 OA
ATOM     14  C   UNL     1       8.866  -2.266  -3.163  1.00  0.00     0.468 C 
ENDBRANCH   5   6
ENDBRANCH   1   5
TORSDOF 3
ENDMDL
MODEL 2
REMARK VINA RESULT:      -7.5      1.878      2.347
REMARK SMILES CC(=O)CCc1ccc2c(c1)OCO2
REMARK SMILES IDX 4 1 2 2 1 3 3 4 5 5 6 6 7 7 11 8 8 9 10 10 9 11 12 12 14 13
REMARK SMILES IDX 13 14
REMARK H PARENT
REMARK Flexibility Score: inf
ROOT
ATOM      1  C   UNL     1       5.730   1.418  -0.359  1.00  0.00     0.080 C 
ENDROOT
BRANCH   1   2
ATOM      2  C   UNL     1       5.136   1.322   1.004  1.00  0.00     0.130 C 
ATOM      3  C   UNL     1       5.499   0.222   1.938  1.00  0.00     0.087 C 
ATOM      4  O   UNL     1       4.329   2.149   1.396  1.00  0.00    -0.300 OA
ENDBRANCH   1   2
BRANCH   1   5
ATOM      5  C   UNL     1       7.228   1.191  -0.324  1.00  0.00     0.043 C 
BRANCH   5   6
ATOM      6  C   UNL     1       7.599  -0.103  -0.925  1.00  0.00    -0.044 A 
ATOM      7  C   UNL     1       7.680  -0.270  -2.312  1.00  0.00     0.008 A 
ATOM      8  C   UNL     1       7.876  -1.178  -0.112  1.00  0.00     0.054 A 
ATOM      9  C   UNL     1       8.034  -1.508  -2.819  1.00  0.00     0.051 A 
ATOM     10  C   UNL     1       8.234  -2.427  -0.629  1.00  0.00     0.166 A 
ATOM     11  C   UNL     1       8.313  -2.593  -1.994  1.00  0.00     0.165 A 
ATOM     12  O   UNL     1       8.552  -3.632  -0.039  1.00  0.00    -0.454 OA
ATOM     13  O   UNL     1       8.683  -3.910  -2.216  1.00  0.00    -0.454 OA
ATOM     14  C   UNL     1       8.933  -4.580  -1.003  1.00  0.00     0.468 C 
ENDBRANCH   5   6
ENDBRANCH   1   5
TORSDOF 3
ENDMDL
MODEL 3
REMARK VINA RESULT:      -7.3      2.056      2.631
REMARK SMILES CC(=O)CCc1ccc2c(c1)OCO2
REMARK SMILES IDX 4 1 2 2 1 3 3 4 5 5 6 6 7 7 11 8 8 9 10 10 9 11 12 12 14 13
REMARK SMILES IDX 13 14
REMARK H PARENT
REMARK Flexibility Score: inf
ROOT
ATOM      1  C   UNL     1       5.416  -0.054   2.029  1.00  0.00     0.080 C 
ENDROOT
BRANCH   1   2
ATOM      2  C   UNL     1       4.566   1.142   1.769  1.00  0.00     0.130 C 
ATOM      3  C   UNL     1       4.907   2.126   0.708  1.00  0.00     0.087 C 
ATOM      4  O   UNL     1       3.558   1.349   2.426  1.00  0.00    -0.300 OA
ENDBRANCH   1   2
BRANCH   1   5
ATOM      5  C   UNL     1       6.854   0.193   1.615  1.00  0.00     0.043 C 
BRANCH   5   6
ATOM      6  C   UNL     1       7.281  -0.730   0.549  1.00  0.00    -0.044 A 
ATOM      7  C   UNL     1       7.158  -0.394  -0.804  1.00  0.00     0.008 A 
ATOM      8  C   UNL     1       7.817  -1.954   0.880  1.00  0.00     0.054 A 
ATOM      9  C   UNL     1       7.576  -1.300  -1.762  1.00  0.00     0.051 A 
ATOM     10  C   UNL     1       8.240  -2.866  -0.092  1.00  0.00     0.166 A 
ATOM     11  C   UNL     1       8.118  -2.537  -1.423  1.00  0.00     0.165 A 
ATOM     12  O   UNL     1       8.796  -4.125  -0.020  1.00  0.00    -0.454 OA
ATOM     13  O   UNL     1       8.608  -3.611  -2.149  1.00  0.00    -0.454 OA
ATOM     14  C   UNL     1       9.132  -4.602  -1.297  1.00  0.00     0.468 C 
ENDBRANCH   5   6
ENDBRANCH   1   5
TORSDOF 3
ENDMDL
MODEL 4
REMARK VINA RESULT:      -7.1      1.261      1.473
REMARK SMILES CC(=O)CCc1ccc2c(c1)OCO2
REMARK SMILES IDX 4 1 2 2 1 3 3 4 5 5 6 6 7 7 11 8 8 9 10 10 9 11 12 12 14 13
REMARK SMILES IDX 13 14
REMARK H PARENT
REMARK Flexibility Score: inf
ROOT
ATOM      1  C   UNL     1       6.380   1.204   0.943  1.00  0.00     0.080 C 
ENDROOT
BRANCH   1   2
ATOM      2  C   UNL     1       5.651   0.373   1.941  1.00  0.00     0.130 C 
ATOM      3  C   UNL     1       6.255  -0.854   2.525  1.00  0.00     0.087 C 
ATOM      4  O   UNL     1       4.529   0.677   2.310  1.00  0.00    -0.300 OA
ENDBRANCH   1   2
BRANCH   1   5
ATOM      5  C   UNL     1       5.878   0.943  -0.463  1.00  0.00     0.043 C 
BRANCH   5   6
ATOM      6  C   UNL     1       6.821   0.115  -1.236  1.00  0.00    -0.044 A 
ATOM      7  C   UNL     1       7.503   0.623  -2.347  1.00  0.00     0.008 A 
ATOM      8  C   UNL     1       7.046  -1.191  -0.862  1.00  0.00     0.054 A 
ATOM      9  C   UNL     1       8.376  -0.201  -3.033  1.00  0.00     0.051 A 
ATOM     10  C   UNL     1       7.931  -2.020  -1.559  1.00  0.00     0.166 A 
ATOM     11  C   UNL     1       8.601  -1.520  -2.653  1.00  0.00     0.165 A 
ATOM     12  O   UNL     1       8.320  -3.331  -1.390  1.00  0.00    -0.454 OA
ATOM     13  O   UNL     1       9.397  -2.546  -3.138  1.00  0.00    -0.454 OA
ATOM     14  C   UNL     1       9.319  -3.684  -2.313  1.00  0.00     0.468 C 
ENDBRANCH   5   6
ENDBRANCH   1   5
TORSDOF 3
ENDMDL
MODEL 5
REMARK VINA RESULT:      -6.9      2.002      2.673
REMARK SMILES CC(=O)CCc1ccc2c(c1)OCO2
REMARK SMILES IDX 4 1 2 2 1 3 3 4 5 5 6 6 7 7 11 8 8 9 10 10 9 11 12 12 14 13
REMARK SMILES IDX 13 14
REMARK H PARENT
REMARK Flexibility Score: inf
ROOT
ATOM      1  C   UNL     1       6.720   0.467   0.977  1.00  0.00     0.080 C 
ENDROOT
BRANCH   1   2
ATOM      2  C   UNL     1       5.384   1.033   1.312  1.00  0.00     0.130 C 
ATOM      3  C   UNL     1       4.789   2.148   0.528  1.00  0.00     0.087 C 
ATOM      4  O   UNL     1       4.734   0.595   2.248  1.00  0.00    -0.300 OA
ENDBRANCH   1   2
BRANCH   1   5
ATOM      5  C   UNL     1       7.023   0.608  -0.501  1.00  0.00     0.043 C 
BRANCH   5   6
ATOM      6  C   UNL     1       7.595  -0.629  -1.063  1.00  0.00    -0.044 A 
ATOM      7  C   UNL     1       7.924  -0.734  -2.419  1.00  0.00     0.008 A 
ATOM      8  C   UNL     1       7.816  -1.711  -0.242  1.00  0.00     0.054 A 
ATOM      9  C   UNL     1       8.459  -1.920  -2.889  1.00  0.00     0.051 A 
ATOM     10  C   UNL     1       8.358  -2.908  -0.723  1.00  0.00     0.166 A 
ATOM     11  C   UNL     1       8.681  -3.013  -2.057  1.00  0.00     0.165 A 
ATOM     12  O   UNL     1       8.668  -4.108  -0.119  1.00  0.00    -0.454 OA
ATOM     13  O   UNL     1       9.189  -4.288  -2.247  1.00  0.00    -0.454 OA
ATOM     14  C   UNL     1       9.283  -4.985  -1.027  1.00  0.00     0.468 C 
ENDBRANCH   5   6
ENDBRANCH   1   5
TORSDOF 3
ENDMDL
