MODEL 1
REMARK VINA RESULT:      -7.6      0.000      0.000
REMARK SMILES CC(=O)CCc1ccc2c(c1)OCO2
REMARK SMILES IDX 4 1 2 2 1 3 3 4 5 5 6 6 7 7 11 8 8 9 10 10 9 11 12 12 14 13
REMARK SMILES IDX 13 14
REMARK H PARENT
REMARK Flexibility Score: inf
ROOT
ATOM      1  C   UNL     1       5.535   1.917   1.272  1.00  0.00     0.080 C 
ENDROOT
BRANCH   1   2
ATOM      2  C   UNL     1       5.085   0.703   2.008  1.00  0.00     0.130 C 
ATOM      3  C   UNL     1       5.969  -0.482   2.173  1.00  0.00     0.087 C 
ATOM      4  O   UNL     1       3.969   0.645   2.498  1.00  0.00    -0.300 OA
ENDBRANCH   1   2
BRANCH   1   5
ATOM      5  C   UNL     1       5.406   1.732  -0.227  1.00  0.00     0.043 C 
BRANCH   5   6
ATOM      6  C   UNL     1       6.572   1.030  -0.793  1.00  0.00    -0.044 A 
ATOM      7  C   UNL     1       7.880   1.465  -0.547  1.00  0.00     0.008 A 
ATOM      8  C   UNL     1       6.382  -0.082  -1.581  1.00  0.00     0.054 A 
ATOM      9  C   UNL     1       8.935   0.765  -1.105  1.00  0.00     0.051 A 
ATOM     10  C   UNL     1       7.452  -0.786  -2.141  1.00  0.00     0.166 A 
ATOM     11  C   UNL     1       8.739  -0.359  -1.901  1.00  0.00     0.165 A 
ATOM     12  O   UNL     1       7.523  -1.902  -2.947  1.00  0.00    -0.454 OA
ATOM     13  O   UNL     1       9.582  -1.231  -2.571  1.00  0.00    -0.454 OA
ATOM     14  C   UNL     1       8.858  -2.278  -3.172  1.00  0.00     0.468 C 
ENDBRANCH   5   6
ENDBRANCH   1   5
TORSDOF 3
ENDMDL
MODEL 2
REMARK VINA RESULT:      -7.4      1.934      2.435
REMARK SMILES CC(=O)CCc1ccc2c(c1)OCO2
REMARK SMILES IDX 4 1 2 2 1 3 3 4 5 5 6 6 7 7 11 8 8 9 10 10 9 11 12 12 14 13
REMARK SMILES IDX 13 14
REMARK H PARENT
REMARK Flexibility Score: inf
ROOT
ATOM      1  C   UNL     1       5.780   1.277  -0.338  1.00  0.00     0.080 C 
ENDROOT
BRANCH   1   2
ATOM      2  C   UNL     1       5.239   1.215   1.048  1.00  0.00     0.130 C 
ATOM      3  C   UNL     1       5.439   0.021   1.912  1.00  0.00     0.087 C 
ATOM      4  O   UNL     1       4.610   2.150   1.518  1.00  0.00    -0.300 OA
ENDBRANCH   1   2
BRANCH   1   5
ATOM      5  C   UNL     1       7.281   1.060  -0.354  1.00  0.00     0.043 C 
BRANCH   5   6
ATOM      6  C   UNL     1       7.638  -0.244  -0.939  1.00  0.00    -0.044 A 
ATOM      7  C   UNL     1       7.701  -0.433  -2.324  1.00  0.00     0.008 A 
ATOM      8  C   UNL     1       7.922  -1.308  -0.113  1.00  0.00     0.054 A 
ATOM      9  C   UNL     1       8.043  -1.680  -2.817  1.00  0.00     0.051 A 
ATOM     10  C   UNL     1       8.268  -2.566  -0.616  1.00  0.00     0.166 A 
ATOM     11  C   UNL     1       8.328  -2.753  -1.978  1.00  0.00     0.165 A 
ATOM     12  O   UNL     1       8.588  -3.763  -0.012  1.00  0.00    -0.454 OA
ATOM     13  O   UNL     1       8.690  -4.075  -2.185  1.00  0.00    -0.454 OA
ATOM     14  C   UNL     1       8.953  -4.727  -0.966  1.00  0.00     0.468 C 
ENDBRANCH   5   6
ENDBRANCH   1   5
TORSDOF 3
ENDMDL
MODEL 3
REMARK VINA RESULT:      -7.2      2.071      2.625
REMARK SMILES CC(=O)CCc1ccc2c(c1)OCO2
REMARK SMILES IDX 4 1 2 2 1 3 3 4 5 5 6 6 7 7 11 8 8 9 10 10 9 11 12 12 14 13
REMARK SMILES IDX 13 14
REMARK H PARENT
REMARK Flexibility Score: inf
ROOT
ATOM      1  C   UNL     1       5.506  -0.011   1.987  1.00  0.00     0.080 C 
ENDROOT
BRANCH   1   2
ATOM      2  C   UNL     1       4.617   1.153   1.713  1.00  0.00     0.130 C 
ATOM      3  C   UNL     1       4.910   2.118   0.619  1.00  0.00     0.087 C 
ATOM      4  O   UNL     1       3.617   1.350   2.383  1.00  0.00    -0.300 OA
ENDBRANCH   1   2
BRANCH   1   5
ATOM      5  C   UNL     1       6.919   0.250   1.506  1.00  0.00     0.043 C 
BRANCH   5   6
ATOM      6  C   UNL     1       7.326  -0.706   0.461  1.00  0.00    -0.044 A 
ATOM      7  C   UNL     1       7.181  -0.410  -0.900  1.00  0.00     0.008 A 
ATOM      8  C   UNL     1       7.865  -1.920   0.820  1.00  0.00     0.054 A 
ATOM      9  C   UNL     1       7.582  -1.346  -1.836  1.00  0.00     0.051 A 
ATOM     10  C   UNL     1       8.269  -2.863  -0.131  1.00  0.00     0.166 A 
ATOM     11  C   UNL     1       8.125  -2.574  -1.470  1.00  0.00     0.165 A 
ATOM     12  O   UNL     1       8.823  -4.121  -0.030  1.00  0.00    -0.454 OA
ATOM     13  O   UNL     1       8.601  -3.671  -2.170  1.00  0.00    -0.454 OA
ATOM     14  C   UNL     1       9.136  -4.638  -1.298  1.00  0.00     0.468 C 
ENDBRANCH   5   6
ENDBRANCH   1   5
TORSDOF 3
ENDMDL
MODEL 4
REMARK VINA RESULT:      -7.1      1.244      1.443
REMARK SMILES CC(=O)CCc1ccc2c(c1)OCO2
REMARK SMILES IDX 4 1 2 2 1 3 3 4 5 5 6 6 7 7 11 8 8 9 10 10 9 11 12 12 14 13
REMARK SMILES IDX 13 14
REMARK H PARENT
REMARK Flexibility Score: inf
ROOT
ATOM      1  C   UNL     1       6.340   1.253   0.866  1.00  0.00     0.080 C 
ENDROOT
BRANCH   1   2
ATOM      2  C   UNL     1       5.663   0.433   1.909  1.00  0.00     0.130 C 
ATOM      3  C   UNL     1       6.297  -0.787   2.476  1.00  0.00     0.087 C 
ATOM      4  O   UNL     1       4.560   0.742   2.331  1.00  0.00    -0.300 OA
ENDBRANCH   1   2
BRANCH   1   5
ATOM      5  C   UNL     1       5.826   0.915  -0.520  1.00  0.00     0.043 C 
BRANCH   5   6
ATOM      6  C   UNL     1       6.794   0.104  -1.279  1.00  0.00    -0.044 A 
ATOM      7  C   UNL     1       7.510   0.637  -2.357  1.00  0.00     0.008 A 
ATOM      8  C   UNL     1       7.009  -1.209  -0.926  1.00  0.00     0.054 A 
ATOM      9  C   UNL     1       8.406  -0.172  -3.032  1.00  0.00     0.051 A 
ATOM     10  C   UNL     1       7.916  -2.022  -1.611  1.00  0.00     0.166 A 
ATOM     11  C   UNL     1       8.621  -1.499  -2.673  1.00  0.00     0.165 A 
ATOM     12  O   UNL     1       8.301  -3.337  -1.458  1.00  0.00    -0.454 OA
ATOM     13  O   UNL     1       9.433  -2.515  -3.154  1.00  0.00    -0.454 OA
ATOM     14  C   UNL     1       9.329  -3.670  -2.356  1.00  0.00     0.468 C 
ENDBRANCH   5   6
ENDBRANCH   1   5
TORSDOF 3
ENDMDL
MODEL 5
REMARK VINA RESULT:      -6.7      1.182      5.169
REMARK SMILES CC(=O)CCc1ccc2c(c1)OCO2
REMARK SMILES IDX 4 1 2 2 1 3 3 4 5 5 6 6 7 7 11 8 8 9 10 10 9 11 12 12 14 13
REMARK SMILES IDX 13 14
REMARK H PARENT
REMARK Flexibility Score: inf
ROOT
ATOM      1  C   UNL     1       8.361   0.230  -2.601  1.00  0.00     0.080 C 
ENDROOT
BRANCH   1   2
ATOM      2  C   UNL     1       8.034  -1.220  -2.700  1.00  0.00     0.130 C 
ATOM      3  C   UNL     1       9.073  -2.235  -3.019  1.00  0.00     0.087 C 
ATOM      4  O   UNL     1       6.895  -1.618  -2.520  1.00  0.00    -0.300 OA
ENDBRANCH   1   2
BRANCH   1   5
ATOM      5  C   UNL     1       8.865   0.588  -1.217  1.00  0.00     0.043 C 
BRANCH   5   6
ATOM      6  C   UNL     1       7.811   0.444  -0.198  1.00  0.00    -0.044 A 
ATOM      7  C   UNL     1       7.892  -0.525   0.809  1.00  0.00     0.008 A 
ATOM      8  C   UNL     1       6.718   1.280  -0.224  1.00  0.00     0.054 A 
ATOM      9  C   UNL     1       6.873  -0.613   1.739  1.00  0.00     0.051 A 
ATOM     10  C   UNL     1       5.690   1.187   0.719  1.00  0.00     0.166 A 
ATOM     11  C   UNL     1       5.768   0.233   1.709  1.00  0.00     0.165 A 
ATOM     12  O   UNL     1       4.518   1.889   0.903  1.00  0.00    -0.454 OA
ATOM     13  O   UNL     1       4.631   0.371   2.489  1.00  0.00    -0.454 OA
ATOM     14  C   UNL     1       3.855   1.468   2.068  1.00  0.00     0.468 C 
ENDBRANCH   5   6
ENDBRANCH   1   5
TORSDOF 3
ENDMDL
