@<TRIPOS>MOLECULE
/home/cewinharhar/GITHUB/reincatalyze/data/processed/docking_pred/2023-May-24-1506_sub9_nm5_bs15_s42_ex16_mel10_mts10000_k50_ec02_g099_lra3e-4_lrc3e-3/f6da62a280fcc89d1b4d09119cbcf47c0c9f249d_ligand_9.pdbqt
 14 15 0 0 0
SMALL
GASTEIGER

@<TRIPOS>ATOM
      1  C          5.5060   -0.0110    1.9870 C.3     1  UNL1        0.0800
      2  C          4.6170    1.1530    1.7130 C.2     1  UNL1        0.1300
      3  C          4.9100    2.1180    0.6190 C.3     1  UNL1        0.0870
      4  O          3.6170    1.3500    2.3830 O.2     1  UNL1       -0.3000
      5  C          6.9190    0.2500    1.5060 C.3     1  UNL1        0.0430
      6  C          7.3260   -0.7060    0.4610 C.2     1  UNL1       -0.0440
      7  C          7.1810   -0.4100   -0.9000 C.2     1  UNL1        0.0080
      8  C          7.8650   -1.9200    0.8200 C.2     1  UNL1        0.0540
      9  C          7.5820   -1.3460   -1.8360 C.2     1  UNL1        0.0510
     10  C          8.2690   -2.8630   -0.1310 C.2     1  UNL1        0.1660
     11  C          8.1250   -2.5740   -1.4700 C.2     1  UNL1        0.1650
     12  O          8.8230   -4.1210   -0.0300 O.2     1  UNL1       -0.4540
     13  O          8.6010   -3.6710   -2.1700 O.2     1  UNL1       -0.4540
     14  C          9.1360   -4.6380   -1.2980 C.3     1  UNL1        0.4680
@<TRIPOS>BOND
     1    13    11    1
     2    13    14    1
     3     9    11    2
     4     9     7    1
     5    11    10    1
     6    14    12    1
     7     7     6    2
     8    10    12    1
     9    10     8    2
    10     6     8    1
    11     6     5    1
    12     3     2    1
    13     5     1    1
    14     2     1    1
    15     2     4    2
