@<TRIPOS>MOLECULE
/home/cewinharhar/GITHUB/reincatalyze/data/processed/docking_pred/2023-May-24-1506_sub9_nm5_bs15_s42_ex16_mel10_mts10000_k50_ec02_g099_lra3e-4_lrc3e-3/f6da62a280fcc89d1b4d09119cbcf47c0c9f249d_ligand_9.pdbqt
 14 15 0 0 0
SMALL
GASTEIGER

@<TRIPOS>ATOM
      1  C          5.7800    1.2770   -0.3380 C.3     1  UNL1        0.0800
      2  C          5.2390    1.2150    1.0480 C.2     1  UNL1        0.1300
      3  C          5.4390    0.0210    1.9120 C.3     1  UNL1        0.0870
      4  O          4.6100    2.1500    1.5180 O.2     1  UNL1       -0.3000
      5  C          7.2810    1.0600   -0.3540 C.3     1  UNL1        0.0430
      6  C          7.6380   -0.2440   -0.9390 C.2     1  UNL1       -0.0440
      7  C          7.7010   -0.4330   -2.3240 C.2     1  UNL1        0.0080
      8  C          7.9220   -1.3080   -0.1130 C.2     1  UNL1        0.0540
      9  C          8.0430   -1.6800   -2.8170 C.2     1  UNL1        0.0510
     10  C          8.2680   -2.5660   -0.6160 C.2     1  UNL1        0.1660
     11  C          8.3280   -2.7530   -1.9780 C.2     1  UNL1        0.1650
     12  O          8.5880   -3.7630   -0.0120 O.2     1  UNL1       -0.4540
     13  O          8.6900   -4.0750   -2.1850 O.2     1  UNL1       -0.4540
     14  C          8.9530   -4.7270   -0.9660 C.3     1  UNL1        0.4680
@<TRIPOS>BOND
     1     9     7    1
     2     9    11    2
     3     7     6    2
     4    13    11    1
     5    13    14    1
     6    11    10    1
     7    14    12    1
     8     6     5    1
     9     6     8    1
    10    10     8    2
    11    10    12    1
    12     5     1    1
    13     1     2    1
    14     2     4    2
    15     2     3    1
