@<TRIPOS>MOLECULE
/home/cewinharhar/GITHUB/reincatalyze/data/processed/docking_pred/2023-May-24-1506_sub9_nm5_bs15_s42_ex16_mel10_mts10000_k50_ec02_g099_lra3e-4_lrc3e-3/f6da62a280fcc89d1b4d09119cbcf47c0c9f249d_ligand_9.pdbqt
 14 15 0 0 0
SMALL
GASTEIGER

@<TRIPOS>ATOM
      1  C          8.3610    0.2300   -2.6010 C.3     1  UNL1        0.0800
      2  C          8.0340   -1.2200   -2.7000 C.2     1  UNL1        0.1300
      3  C          9.0730   -2.2350   -3.0190 C.3     1  UNL1        0.0870
      4  O          6.8950   -1.6180   -2.5200 O.2     1  UNL1       -0.3000
      5  C          8.8650    0.5880   -1.2170 C.3     1  UNL1        0.0430
      6  C          7.8110    0.4440   -0.1980 C.2     1  UNL1       -0.0440
      7  C          7.8920   -0.5250    0.8090 C.2     1  UNL1        0.0080
      8  C          6.7180    1.2800   -0.2240 C.2     1  UNL1        0.0540
      9  C          6.8730   -0.6130    1.7390 C.2     1  UNL1        0.0510
     10  C          5.6900    1.1870    0.7190 C.2     1  UNL1        0.1660
     11  C          5.7680    0.2330    1.7090 C.2     1  UNL1        0.1650
     12  O          4.5180    1.8890    0.9030 O.2     1  UNL1       -0.4540
     13  O          4.6310    0.3710    2.4890 O.2     1  UNL1       -0.4540
     14  C          3.8550    1.4680    2.0680 C.3     1  UNL1        0.4680
@<TRIPOS>BOND
     1     3     2    1
     2     2     1    1
     3     2     4    2
     4     1     5    1
     5     5     6    1
     6     8     6    2
     7     8    10    1
     8     6     7    1
     9    10    12    1
    10    10    11    2
    11     7     9    2
    12    12    14    1
    13    11     9    1
    14    11    13    1
    15    14    13    1
