@<TRIPOS>MOLECULE
/home/cewinharhar/GITHUB/reincatalyze/data/processed/docking_pred/2023-May-24-1506_sub9_nm5_bs15_s42_ex16_mel10_mts10000_k50_ec02_g099_lra3e-4_lrc3e-3/f6e3ea477952fa895fac814ddb6280364cb1460b_ligand_9.pdbqt
 14 15 0 0 0
SMALL
GASTEIGER

@<TRIPOS>ATOM
      1  C          6.8410    0.9280    1.3790 C.3     1  UNL1        0.0800
      2  C          5.3760    1.1810    1.4740 C.2     1  UNL1        0.1300
      3  C          4.6890    2.1410    0.5690 C.3     1  UNL1        0.0870
      4  O          4.6930    0.6040    2.3050 O.2     1  UNL1       -0.3000
      5  C          7.3430    1.1300   -0.0360 C.3     1  UNL1        0.0430
      6  C          7.6750   -0.1500   -0.6860 C.2     1  UNL1       -0.0440
      7  C          7.7180   -0.2750   -2.0800 C.2     1  UNL1        0.0080
      8  C          7.9530   -1.2550    0.0850 C.2     1  UNL1        0.0540
      9  C          8.0360   -1.5020   -2.6340 C.2     1  UNL1        0.0510
     10  C          8.2750   -2.4930   -0.4800 C.2     1  UNL1        0.1660
     11  C          8.3160   -2.6170   -1.8510 C.2     1  UNL1        0.1650
     12  O          8.5860   -3.7220    0.0630 O.2     1  UNL1       -0.4540
     13  O          8.6560   -3.9330   -2.1240 O.2     1  UNL1       -0.4540
     14  C          8.9250   -4.6450   -0.9400 C.3     1  UNL1        0.4680
@<TRIPOS>BOND
     1     9     7    1
     2     9    11    2
     3    13    11    1
     4    13    14    1
     5     7     6    2
     6    11    10    1
     7    14    12    1
     8     6     5    1
     9     6     8    1
    10    10    12    1
    11    10     8    2
    12     5     1    1
    13     3     2    1
    14     1     2    1
    15     2     4    2
