MODEL 1
REMARK VINA RESULT:      -7.7      0.000      0.000
REMARK SMILES CC(=O)CCc1ccc2c(c1)OCO2
REMARK SMILES IDX 4 1 2 2 1 3 3 4 5 5 6 6 7 7 11 8 8 9 10 10 9 11 12 12 14 13
REMARK SMILES IDX 13 14
REMARK H PARENT
REMARK Flexibility Score: inf
ROOT
ATOM      1  C   UNL     1       5.516   1.914   1.264  1.00  0.00     0.080 C 
ENDROOT
BRANCH   1   2
ATOM      2  C   UNL     1       5.074   0.697   2.001  1.00  0.00     0.130 C 
ATOM      3  C   UNL     1       5.963  -0.485   2.162  1.00  0.00     0.087 C 
ATOM      4  O   UNL     1       3.961   0.634   2.497  1.00  0.00    -0.300 OA
ENDBRANCH   1   2
BRANCH   1   5
ATOM      5  C   UNL     1       5.392   1.725  -0.234  1.00  0.00     0.043 C 
BRANCH   5   6
ATOM      6  C   UNL     1       6.560   1.022  -0.795  1.00  0.00    -0.044 A 
ATOM      7  C   UNL     1       7.867   1.458  -0.546  1.00  0.00     0.008 A 
ATOM      8  C   UNL     1       6.374  -0.092  -1.582  1.00  0.00     0.054 A 
ATOM      9  C   UNL     1       8.924   0.758  -1.098  1.00  0.00     0.051 A 
ATOM     10  C   UNL     1       7.446  -0.796  -2.137  1.00  0.00     0.166 A 
ATOM     11  C   UNL     1       8.732  -0.367  -1.893  1.00  0.00     0.165 A 
ATOM     12  O   UNL     1       7.521  -1.914  -2.940  1.00  0.00    -0.454 OA
ATOM     13  O   UNL     1       9.579  -1.240  -2.558  1.00  0.00    -0.454 OA
ATOM     14  C   UNL     1       8.857  -2.288  -3.160  1.00  0.00     0.468 C 
ENDBRANCH   5   6
ENDBRANCH   1   5
TORSDOF 3
ENDMDL
MODEL 2
REMARK VINA RESULT:      -7.5      1.923      2.387
REMARK SMILES CC(=O)CCc1ccc2c(c1)OCO2
REMARK SMILES IDX 4 1 2 2 1 3 3 4 5 5 6 6 7 7 11 8 8 9 10 10 9 11 12 12 14 13
REMARK SMILES IDX 13 14
REMARK H PARENT
REMARK Flexibility Score: inf
ROOT
ATOM      1  C   UNL     1       5.758   1.392  -0.331  1.00  0.00     0.080 C 
ENDROOT
BRANCH   1   2
ATOM      2  C   UNL     1       5.128   1.304   1.017  1.00  0.00     0.130 C 
ATOM      3  C   UNL     1       5.438   0.189   1.951  1.00  0.00     0.087 C 
ATOM      4  O   UNL     1       4.334   2.150   1.394  1.00  0.00    -0.300 OA
ENDBRANCH   1   2
BRANCH   1   5
ATOM      5  C   UNL     1       7.250   1.137  -0.258  1.00  0.00     0.043 C 
BRANCH   5   6
ATOM      6  C   UNL     1       7.612  -0.161  -0.856  1.00  0.00    -0.044 A 
ATOM      7  C   UNL     1       7.647  -0.345  -2.243  1.00  0.00     0.008 A 
ATOM      8  C   UNL     1       7.928  -1.223  -0.040  1.00  0.00     0.054 A 
ATOM      9  C   UNL     1       7.995  -1.585  -2.747  1.00  0.00     0.051 A 
ATOM     10  C   UNL     1       8.279  -2.475  -0.555  1.00  0.00     0.166 A 
ATOM     11  C   UNL     1       8.313  -2.657  -1.919  1.00  0.00     0.165 A 
ATOM     12  O   UNL     1       8.629  -3.670   0.038  1.00  0.00    -0.454 OA
ATOM     13  O   UNL     1       8.687  -3.973  -2.139  1.00  0.00    -0.454 OA
ATOM     14  C   UNL     1       8.986  -4.626  -0.928  1.00  0.00     0.468 C 
ENDBRANCH   5   6
ENDBRANCH   1   5
TORSDOF 3
ENDMDL
MODEL 3
REMARK VINA RESULT:      -7.2      2.041      2.606
REMARK SMILES CC(=O)CCc1ccc2c(c1)OCO2
REMARK SMILES IDX 4 1 2 2 1 3 3 4 5 5 6 6 7 7 11 8 8 9 10 10 9 11 12 12 14 13
REMARK SMILES IDX 13 14
REMARK H PARENT
REMARK Flexibility Score: inf
ROOT
ATOM      1  C   UNL     1       5.440  -0.035   2.000  1.00  0.00     0.080 C 
ENDROOT
BRANCH   1   2
ATOM      2  C   UNL     1       4.577   1.152   1.747  1.00  0.00     0.130 C 
ATOM      3  C   UNL     1       4.890   2.130   0.671  1.00  0.00     0.087 C 
ATOM      4  O   UNL     1       3.580   1.357   2.421  1.00  0.00    -0.300 OA
ENDBRANCH   1   2
BRANCH   1   5
ATOM      5  C   UNL     1       6.869   0.221   1.563  1.00  0.00     0.043 C 
BRANCH   5   6
ATOM      6  C   UNL     1       7.290  -0.711   0.501  1.00  0.00    -0.044 A 
ATOM      7  C   UNL     1       7.159  -0.387  -0.854  1.00  0.00     0.008 A 
ATOM      8  C   UNL     1       7.830  -1.931   0.840  1.00  0.00     0.054 A 
ATOM      9  C   UNL     1       7.572  -1.301  -1.806  1.00  0.00     0.051 A 
ATOM     10  C   UNL     1       8.247  -2.851  -0.127  1.00  0.00     0.166 A 
ATOM     11  C   UNL     1       8.117  -2.534  -1.460  1.00  0.00     0.165 A 
ATOM     12  O   UNL     1       8.805  -4.110  -0.047  1.00  0.00    -0.454 OA
ATOM     13  O   UNL     1       8.604  -3.614  -2.179  1.00  0.00    -0.454 OA
ATOM     14  C   UNL     1       9.133  -4.598  -1.323  1.00  0.00     0.468 C 
ENDBRANCH   5   6
ENDBRANCH   1   5
TORSDOF 3
ENDMDL
MODEL 4
REMARK VINA RESULT:      -7.1      1.238      1.430
REMARK SMILES CC(=O)CCc1ccc2c(c1)OCO2
REMARK SMILES IDX 4 1 2 2 1 3 3 4 5 5 6 6 7 7 11 8 8 9 10 10 9 11 12 12 14 13
REMARK SMILES IDX 13 14
REMARK H PARENT
REMARK Flexibility Score: inf
ROOT
ATOM      1  C   UNL     1       6.332   1.265   0.851  1.00  0.00     0.080 C 
ENDROOT
BRANCH   1   2
ATOM      2  C   UNL     1       5.659   0.448   1.898  1.00  0.00     0.130 C 
ATOM      3  C   UNL     1       6.296  -0.769   2.468  1.00  0.00     0.087 C 
ATOM      4  O   UNL     1       4.556   0.756   2.321  1.00  0.00    -0.300 OA
ENDBRANCH   1   2
BRANCH   1   5
ATOM      5  C   UNL     1       5.821   0.916  -0.533  1.00  0.00     0.043 C 
BRANCH   5   6
ATOM      6  C   UNL     1       6.796   0.108  -1.287  1.00  0.00    -0.044 A 
ATOM      7  C   UNL     1       7.528   0.647  -2.351  1.00  0.00     0.008 A 
ATOM      8  C   UNL     1       7.000  -1.209  -0.944  1.00  0.00     0.054 A 
ATOM      9  C   UNL     1       8.429  -0.159  -3.022  1.00  0.00     0.051 A 
ATOM     10  C   UNL     1       7.913  -2.020  -1.626  1.00  0.00     0.166 A 
ATOM     11  C   UNL     1       8.633  -1.491  -2.673  1.00  0.00     0.165 A 
ATOM     12  O   UNL     1       8.290  -3.338  -1.480  1.00  0.00    -0.454 OA
ATOM     13  O   UNL     1       9.447  -2.505  -3.153  1.00  0.00    -0.454 OA
ATOM     14  C   UNL     1       9.328  -3.667  -2.367  1.00  0.00     0.468 C 
ENDBRANCH   5   6
ENDBRANCH   1   5
TORSDOF 3
ENDMDL
MODEL 5
REMARK VINA RESULT:      -7.1      1.953      2.476
REMARK SMILES CC(=O)CCc1ccc2c(c1)OCO2
REMARK SMILES IDX 4 1 2 2 1 3 3 4 5 5 6 6 7 7 11 8 8 9 10 10 9 11 12 12 14 13
REMARK SMILES IDX 13 14
REMARK H PARENT
REMARK Flexibility Score: inf
ROOT
ATOM      1  C   UNL     1       6.841   0.928   1.379  1.00  0.00     0.080 C 
ENDROOT
BRANCH   1   2
ATOM      2  C   UNL     1       5.376   1.181   1.474  1.00  0.00     0.130 C 
ATOM      3  C   UNL     1       4.689   2.141   0.569  1.00  0.00     0.087 C 
ATOM      4  O   UNL     1       4.693   0.604   2.305  1.00  0.00    -0.300 OA
ENDBRANCH   1   2
BRANCH   1   5
ATOM      5  C   UNL     1       7.343   1.130  -0.036  1.00  0.00     0.043 C 
BRANCH   5   6
ATOM      6  C   UNL     1       7.675  -0.150  -0.686  1.00  0.00    -0.044 A 
ATOM      7  C   UNL     1       7.718  -0.275  -2.080  1.00  0.00     0.008 A 
ATOM      8  C   UNL     1       7.953  -1.255   0.085  1.00  0.00     0.054 A 
ATOM      9  C   UNL     1       8.036  -1.502  -2.634  1.00  0.00     0.051 A 
ATOM     10  C   UNL     1       8.275  -2.493  -0.480  1.00  0.00     0.166 A 
ATOM     11  C   UNL     1       8.316  -2.617  -1.851  1.00  0.00     0.165 A 
ATOM     12  O   UNL     1       8.586  -3.722   0.063  1.00  0.00    -0.454 OA
ATOM     13  O   UNL     1       8.656  -3.933  -2.124  1.00  0.00    -0.454 OA
ATOM     14  C   UNL     1       8.925  -4.645  -0.940  1.00  0.00     0.468 C 
ENDBRANCH   5   6
ENDBRANCH   1   5
TORSDOF 3
ENDMDL
