MODEL 1
REMARK VINA RESULT:      -7.6      0.000      0.000
REMARK SMILES CC(=O)CCc1ccc2c(c1)OCO2
REMARK SMILES IDX 4 1 2 2 1 3 3 4 5 5 6 6 7 7 11 8 8 9 10 10 9 11 12 12 14 13
REMARK SMILES IDX 13 14
REMARK H PARENT
REMARK Flexibility Score: inf
ROOT
ATOM      1  C   UNL     1       5.526   1.919   1.267  1.00  0.00     0.080 C 
ENDROOT
BRANCH   1   2
ATOM      2  C   UNL     1       5.077   0.706   2.005  1.00  0.00     0.130 C 
ATOM      3  C   UNL     1       5.960  -0.481   2.166  1.00  0.00     0.087 C 
ATOM      4  O   UNL     1       3.964   0.649   2.501  1.00  0.00    -0.300 OA
ENDBRANCH   1   2
BRANCH   1   5
ATOM      5  C   UNL     1       5.399   1.731  -0.232  1.00  0.00     0.043 C 
BRANCH   5   6
ATOM      6  C   UNL     1       6.567   1.031  -0.796  1.00  0.00    -0.044 A 
ATOM      7  C   UNL     1       7.874   1.468  -0.547  1.00  0.00     0.008 A 
ATOM      8  C   UNL     1       6.382  -0.081  -1.585  1.00  0.00     0.054 A 
ATOM      9  C   UNL     1       8.932   0.771  -1.102  1.00  0.00     0.051 A 
ATOM     10  C   UNL     1       7.455  -0.782  -2.143  1.00  0.00     0.166 A 
ATOM     11  C   UNL     1       8.740  -0.352  -1.900  1.00  0.00     0.165 A 
ATOM     12  O   UNL     1       7.530  -1.898  -2.950  1.00  0.00    -0.454 OA
ATOM     13  O   UNL     1       9.587  -1.223  -2.568  1.00  0.00    -0.454 OA
ATOM     14  C   UNL     1       8.866  -2.270  -3.172  1.00  0.00     0.468 C 
ENDBRANCH   5   6
ENDBRANCH   1   5
TORSDOF 3
ENDMDL
MODEL 2
REMARK VINA RESULT:      -7.5      1.932      2.393
REMARK SMILES CC(=O)CCc1ccc2c(c1)OCO2
REMARK SMILES IDX 4 1 2 2 1 3 3 4 5 5 6 6 7 7 11 8 8 9 10 10 9 11 12 12 14 13
REMARK SMILES IDX 13 14
REMARK H PARENT
REMARK Flexibility Score: inf
ROOT
ATOM      1  C   UNL     1       5.762   1.353  -0.274  1.00  0.00     0.080 C 
ENDROOT
BRANCH   1   2
ATOM      2  C   UNL     1       5.125   1.273   1.070  1.00  0.00     0.130 C 
ATOM      3  C   UNL     1       5.378   0.129   1.987  1.00  0.00     0.087 C 
ATOM      4  O   UNL     1       4.371   2.150   1.460  1.00  0.00    -0.300 OA
ENDBRANCH   1   2
BRANCH   1   5
ATOM      5  C   UNL     1       7.252   1.089  -0.194  1.00  0.00     0.043 C 
BRANCH   5   6
ATOM      6  C   UNL     1       7.615  -0.195  -0.819  1.00  0.00    -0.044 A 
ATOM      7  C   UNL     1       7.644  -0.351  -2.209  1.00  0.00     0.008 A 
ATOM      8  C   UNL     1       7.936  -1.273  -0.026  1.00  0.00     0.054 A 
ATOM      9  C   UNL     1       7.993  -1.581  -2.739  1.00  0.00     0.051 A 
ATOM     10  C   UNL     1       8.288  -2.514  -0.566  1.00  0.00     0.166 A 
ATOM     11  C   UNL     1       8.316  -2.668  -1.934  1.00  0.00     0.165 A 
ATOM     12  O   UNL     1       8.643  -3.719   0.001  1.00  0.00    -0.454 OA
ATOM     13  O   UNL     1       8.692  -3.979  -2.182  1.00  0.00    -0.454 OA
ATOM     14  C   UNL     1       8.997  -4.655  -0.985  1.00  0.00     0.468 C 
ENDBRANCH   5   6
ENDBRANCH   1   5
TORSDOF 3
ENDMDL
MODEL 3
REMARK VINA RESULT:      -7.2      2.089      2.621
REMARK SMILES CC(=O)CCc1ccc2c(c1)OCO2
REMARK SMILES IDX 4 1 2 2 1 3 3 4 5 5 6 6 7 7 11 8 8 9 10 10 9 11 12 12 14 13
REMARK SMILES IDX 13 14
REMARK H PARENT
REMARK Flexibility Score: inf
ROOT
ATOM      1  C   UNL     1       5.565   0.016   1.958  1.00  0.00     0.080 C 
ENDROOT
BRANCH   1   2
ATOM      2  C   UNL     1       4.687   1.174   1.630  1.00  0.00     0.130 C 
ATOM      3  C   UNL     1       4.993   2.090   0.498  1.00  0.00     0.087 C 
ATOM      4  O   UNL     1       3.685   1.406   2.286  1.00  0.00    -0.300 OA
ENDBRANCH   1   2
BRANCH   1   5
ATOM      5  C   UNL     1       6.990   0.259   1.501  1.00  0.00     0.043 C 
BRANCH   5   6
ATOM      6  C   UNL     1       7.399  -0.696   0.456  1.00  0.00    -0.044 A 
ATOM      7  C   UNL     1       7.327  -0.371  -0.904  1.00  0.00     0.008 A 
ATOM      8  C   UNL     1       7.867  -1.940   0.814  1.00  0.00     0.054 A 
ATOM      9  C   UNL     1       7.725  -1.308  -1.840  1.00  0.00     0.051 A 
ATOM     10  C   UNL     1       8.269  -2.884  -0.136  1.00  0.00     0.166 A 
ATOM     11  C   UNL     1       8.197  -2.565  -1.474  1.00  0.00     0.165 A 
ATOM     12  O   UNL     1       8.762  -4.167  -0.035  1.00  0.00    -0.454 OA
ATOM     13  O   UNL     1       8.653  -3.671  -2.174  1.00  0.00    -0.454 OA
ATOM     14  C   UNL     1       9.106  -4.676  -1.299  1.00  0.00     0.468 C 
ENDBRANCH   5   6
ENDBRANCH   1   5
TORSDOF 3
ENDMDL
MODEL 4
REMARK VINA RESULT:      -7.1      1.258      1.482
REMARK SMILES CC(=O)CCc1ccc2c(c1)OCO2
REMARK SMILES IDX 4 1 2 2 1 3 3 4 5 5 6 6 7 7 11 8 8 9 10 10 9 11 12 12 14 13
REMARK SMILES IDX 13 14
REMARK H PARENT
REMARK Flexibility Score: inf
ROOT
ATOM      1  C   UNL     1       6.373   1.196   0.900  1.00  0.00     0.080 C 
ENDROOT
BRANCH   1   2
ATOM      2  C   UNL     1       5.663   0.387   1.929  1.00  0.00     0.130 C 
ATOM      3  C   UNL     1       6.267  -0.843   2.508  1.00  0.00     0.087 C 
ATOM      4  O   UNL     1       4.557   0.712   2.330  1.00  0.00    -0.300 OA
ENDBRANCH   1   2
BRANCH   1   5
ATOM      5  C   UNL     1       5.858   0.889  -0.493  1.00  0.00     0.043 C 
BRANCH   5   6
ATOM      6  C   UNL     1       6.814   0.072  -1.261  1.00  0.00    -0.044 A 
ATOM      7  C   UNL     1       7.502   0.590  -2.363  1.00  0.00     0.008 A 
ATOM      8  C   UNL     1       7.044  -1.234  -0.892  1.00  0.00     0.054 A 
ATOM      9  C   UNL     1       8.388  -0.224  -3.045  1.00  0.00     0.051 A 
ATOM     10  C   UNL     1       7.941  -2.053  -1.585  1.00  0.00     0.166 A 
ATOM     11  C   UNL     1       8.618  -1.544  -2.670  1.00  0.00     0.165 A 
ATOM     12  O   UNL     1       8.337  -3.363  -1.419  1.00  0.00    -0.454 OA
ATOM     13  O   UNL     1       9.425  -2.562  -3.153  1.00  0.00    -0.454 OA
ATOM     14  C   UNL     1       9.346  -3.705  -2.335  1.00  0.00     0.468 C 
ENDBRANCH   5   6
ENDBRANCH   1   5
TORSDOF 3
ENDMDL
MODEL 5
REMARK VINA RESULT:      -6.8      1.251      1.746
REMARK SMILES CC(=O)CCc1ccc2c(c1)OCO2
REMARK SMILES IDX 4 1 2 2 1 3 3 4 5 5 6 6 7 7 11 8 8 9 10 10 9 11 12 12 14 13
REMARK SMILES IDX 13 14
REMARK H PARENT
REMARK Flexibility Score: inf
ROOT
ATOM      1  C   UNL     1       5.331  -0.080   1.966  1.00  0.00     0.080 C 
ENDROOT
BRANCH   1   2
ATOM      2  C   UNL     1       4.455   1.111   1.787  1.00  0.00     0.130 C 
ATOM      3  C   UNL     1       4.749   2.150   0.763  1.00  0.00     0.087 C 
ATOM      4  O   UNL     1       3.464   1.271   2.481  1.00  0.00    -0.300 OA
ENDBRANCH   1   2
BRANCH   1   5
ATOM      5  C   UNL     1       6.797   0.301   1.909  1.00  0.00     0.043 C 
BRANCH   5   6
ATOM      6  C   UNL     1       7.402  -0.045   0.610  1.00  0.00    -0.044 A 
ATOM      7  C   UNL     1       7.906   0.938  -0.248  1.00  0.00     0.008 A 
ATOM      8  C   UNL     1       7.480  -1.364   0.224  1.00  0.00     0.054 A 
ATOM      9  C   UNL     1       8.463   0.554  -1.455  1.00  0.00     0.051 A 
ATOM     10  C   UNL     1       8.044  -1.747  -0.996  1.00  0.00     0.166 A 
ATOM     11  C   UNL     1       8.540  -0.780  -1.843  1.00  0.00     0.165 A 
ATOM     12  O   UNL     1       8.235  -2.972  -1.600  1.00  0.00    -0.454 OA
ATOM     13  O   UNL     1       9.031  -1.438  -2.959  1.00  0.00    -0.454 OA
ATOM     14  C   UNL     1       8.941  -2.835  -2.807  1.00  0.00     0.468 C 
ENDBRANCH   5   6
ENDBRANCH   1   5
TORSDOF 3
ENDMDL
