@<TRIPOS>MOLECULE
/home/cewinharhar/GITHUB/reincatalyze/data/processed/docking_pred/2023-May-24-1506_sub9_nm5_bs15_s42_ex16_mel10_mts10000_k50_ec02_g099_lra3e-4_lrc3e-3/f9550a52c30547fdb3e6e224a3b8a38c5560e948_ligand_9.pdbqt
 14 15 0 0 0
SMALL
GASTEIGER

@<TRIPOS>ATOM
      1  C          6.3730    1.1960    0.9000 C.3     1  UNL1        0.0800
      2  C          5.6630    0.3870    1.9290 C.2     1  UNL1        0.1300
      3  C          6.2670   -0.8430    2.5080 C.3     1  UNL1        0.0870
      4  O          4.5570    0.7120    2.3300 O.2     1  UNL1       -0.3000
      5  C          5.8580    0.8890   -0.4930 C.3     1  UNL1        0.0430
      6  C          6.8140    0.0720   -1.2610 C.2     1  UNL1       -0.0440
      7  C          7.5020    0.5900   -2.3630 C.2     1  UNL1        0.0080
      8  C          7.0440   -1.2340   -0.8920 C.2     1  UNL1        0.0540
      9  C          8.3880   -0.2240   -3.0450 C.2     1  UNL1        0.0510
     10  C          7.9410   -2.0530   -1.5850 C.2     1  UNL1        0.1660
     11  C          8.6180   -1.5440   -2.6700 C.2     1  UNL1        0.1650
     12  O          8.3370   -3.3630   -1.4190 O.2     1  UNL1       -0.4540
     13  O          9.4250   -2.5620   -3.1530 O.2     1  UNL1       -0.4540
     14  C          9.3460   -3.7050   -2.3350 C.3     1  UNL1        0.4680
@<TRIPOS>BOND
     1    13    11    1
     2    13    14    1
     3     9    11    2
     4     9     7    1
     5    11    10    1
     6     7     6    2
     7    14    12    1
     8    10    12    1
     9    10     8    2
    10     6     8    1
    11     6     5    1
    12     5     1    1
    13     1     2    1
    14     2     4    2
    15     2     3    1
