@<TRIPOS>MOLECULE
/home/cewinharhar/GITHUB/reincatalyze/data/processed/docking_pred/2023-May-24-1506_sub9_nm5_bs15_s42_ex16_mel10_mts10000_k50_ec02_g099_lra3e-4_lrc3e-3/f9550a52c30547fdb3e6e224a3b8a38c5560e948_ligand_9.pdbqt
 14 15 0 0 0
SMALL
GASTEIGER

@<TRIPOS>ATOM
      1  C          5.3310   -0.0800    1.9660 C.3     1  UNL1        0.0800
      2  C          4.4550    1.1110    1.7870 C.2     1  UNL1        0.1300
      3  C          4.7490    2.1500    0.7630 C.3     1  UNL1        0.0870
      4  O          3.4640    1.2710    2.4810 O.2     1  UNL1       -0.3000
      5  C          6.7970    0.3010    1.9090 C.3     1  UNL1        0.0430
      6  C          7.4020   -0.0450    0.6100 C.2     1  UNL1       -0.0440
      7  C          7.9060    0.9380   -0.2480 C.2     1  UNL1        0.0080
      8  C          7.4800   -1.3640    0.2240 C.2     1  UNL1        0.0540
      9  C          8.4630    0.5540   -1.4550 C.2     1  UNL1        0.0510
     10  C          8.0440   -1.7470   -0.9960 C.2     1  UNL1        0.1660
     11  C          8.5400   -0.7800   -1.8430 C.2     1  UNL1        0.1650
     12  O          8.2350   -2.9720   -1.6000 O.2     1  UNL1       -0.4540
     13  O          9.0310   -1.4380   -2.9590 O.2     1  UNL1       -0.4540
     14  C          8.9410   -2.8350   -2.8070 C.3     1  UNL1        0.4680
@<TRIPOS>BOND
     1    13    14    1
     2    13    11    1
     3    14    12    1
     4    11     9    2
     5    11    10    1
     6    12    10    1
     7     9     7    1
     8    10     8    2
     9     7     6    2
    10     8     6    1
    11     6     5    1
    12     3     2    1
    13     2     1    1
    14     2     4    2
    15     5     1    1
