@<TRIPOS>MOLECULE
/home/cewinharhar/GITHUB/reincatalyze/data/processed/docking_pred/2023-May-24-1506_sub9_nm5_bs15_s42_ex16_mel10_mts10000_k50_ec02_g099_lra3e-4_lrc3e-3/f9550a52c30547fdb3e6e224a3b8a38c5560e948_ligand_9.pdbqt
 14 15 0 0 0
SMALL
GASTEIGER

@<TRIPOS>ATOM
      1  C          5.5650    0.0160    1.9580 C.3     1  UNL1        0.0800
      2  C          4.6870    1.1740    1.6300 C.2     1  UNL1        0.1300
      3  C          4.9930    2.0900    0.4980 C.3     1  UNL1        0.0870
      4  O          3.6850    1.4060    2.2860 O.2     1  UNL1       -0.3000
      5  C          6.9900    0.2590    1.5010 C.3     1  UNL1        0.0430
      6  C          7.3990   -0.6960    0.4560 C.2     1  UNL1       -0.0440
      7  C          7.3270   -0.3710   -0.9040 C.2     1  UNL1        0.0080
      8  C          7.8670   -1.9400    0.8140 C.2     1  UNL1        0.0540
      9  C          7.7250   -1.3080   -1.8400 C.2     1  UNL1        0.0510
     10  C          8.2690   -2.8840   -0.1360 C.2     1  UNL1        0.1660
     11  C          8.1970   -2.5650   -1.4740 C.2     1  UNL1        0.1650
     12  O          8.7620   -4.1670   -0.0350 O.2     1  UNL1       -0.4540
     13  O          8.6530   -3.6710   -2.1740 O.2     1  UNL1       -0.4540
     14  C          9.1060   -4.6760   -1.2990 C.3     1  UNL1        0.4680
@<TRIPOS>BOND
     1    13    11    1
     2    13    14    1
     3     9    11    2
     4     9     7    1
     5    11    10    1
     6    14    12    1
     7     7     6    2
     8    10    12    1
     9    10     8    2
    10     6     8    1
    11     6     5    1
    12     3     2    1
    13     5     1    1
    14     2     1    1
    15     2     4    2
