@<TRIPOS>MOLECULE
/home/cewinharhar/GITHUB/reincatalyze/data/processed/docking_pred/2023-May-24-1506_sub9_nm5_bs15_s42_ex16_mel10_mts10000_k50_ec02_g099_lra3e-4_lrc3e-3/fbb46063794dc265e75c2cefc4e8ae8bb502d9b1_ligand_9.pdbqt
 14 15 0 0 0
SMALL
GASTEIGER

@<TRIPOS>ATOM
      1  C          5.5270    1.8810    1.3200 C.3     1  UNL1        0.0800
      2  C          5.0500    0.6640    2.0340 C.2     1  UNL1        0.1300
      3  C          5.9060   -0.5450    2.1740 C.3     1  UNL1        0.0870
      4  O          3.9350    0.6240    2.5280 O.2     1  UNL1       -0.3000
      5  C          5.4070    1.7210   -0.1820 C.3     1  UNL1        0.0430
      6  C          6.5750    1.0250   -0.7520 C.2     1  UNL1       -0.0440
      7  C          7.8830    1.4400   -0.4760 C.2     1  UNL1        0.0080
      8  C          6.3870   -0.0620   -1.5760 C.2     1  UNL1        0.0540
      9  C          8.9400    0.7480   -1.0380 C.2     1  UNL1        0.0510
     10  C          7.4590   -0.7580   -2.1420 C.2     1  UNL1        0.1660
     11  C          8.7460   -0.3500   -1.8710 C.2     1  UNL1        0.1650
     12  O          7.5320   -1.8510   -2.9790 O.2     1  UNL1       -0.4540
     13  O          9.5910   -1.2100   -2.5540 O.2     1  UNL1       -0.4540
     14  C          8.8660   -2.2320   -3.1960 C.3     1  UNL1        0.4680
@<TRIPOS>BOND
     1    14    12    1
     2    14    13    1
     3    12    10    1
     4    13    11    1
     5    10    11    2
     6    10     8    1
     7    11     9    1
     8     8     6    2
     9     9     7    2
    10     6     7    1
    11     6     5    1
    12     5     1    1
    13     1     2    1
    14     2     3    1
    15     2     4    2
