@<TRIPOS>MOLECULE
/home/cewinharhar/GITHUB/reincatalyze/data/processed/docking_pred/2023-May-24-1506_sub9_nm5_bs15_s42_ex16_mel10_mts10000_k50_ec02_g099_lra3e-4_lrc3e-3/fbb46063794dc265e75c2cefc4e8ae8bb502d9b1_ligand_9.pdbqt
 14 15 0 0 0
SMALL
GASTEIGER

@<TRIPOS>ATOM
      1  C          5.8580   -0.0070    1.3620 C.3     1  UNL1        0.0800
      2  C          5.2080    1.2600    0.9250 C.2     1  UNL1        0.1300
      3  C          5.3790    1.7890   -0.4550 C.3     1  UNL1        0.0870
      4  O          4.5120    1.9050    1.6920 O.2     1  UNL1       -0.3000
      5  C          7.1640   -0.2370    0.6290 C.3     1  UNL1        0.0430
      6  C          8.3040    0.3650    1.3430 C.2     1  UNL1       -0.0440
      7  C          8.1630    1.5380    2.0940 C.2     1  UNL1        0.0080
      8  C          9.5420   -0.2330    1.2790 C.2     1  UNL1        0.0540
      9  C          9.2680    2.0560    2.7430 C.2     1  UNL1        0.0510
     10  C         10.6570    0.2950    1.9380 C.2     1  UNL1        0.1660
     11  C         10.5180    1.4490    2.6760 C.2     1  UNL1        0.1650
     12  O         11.9730   -0.1060    2.0270 O.2     1  UNL1       -0.4540
     13  O         11.7650    1.7360    3.2090 O.2     1  UNL1       -0.4540
     14  C         12.6950    0.7270    2.8980 C.3     1  UNL1        0.4680
@<TRIPOS>BOND
     1     3     2    1
     2     5     6    1
     3     5     1    1
     4     2     1    1
     5     2     4    2
     6     8     6    2
     7     8    10    1
     8     6     7    1
     9    10    12    1
    10    10    11    2
    11    12    14    1
    12     7     9    2
    13    11     9    1
    14    11    13    1
    15    14    13    1
