MODEL 1
REMARK VINA RESULT:      -7.1      0.000      0.000
REMARK SMILES CC(=O)CCc1ccc2c(c1)OCO2
REMARK SMILES IDX 4 1 2 2 1 3 3 4 5 5 6 6 7 7 11 8 8 9 10 10 9 11 12 12 14 13
REMARK SMILES IDX 13 14
REMARK H PARENT
REMARK Flexibility Score: inf
ROOT
ATOM      1  C   UNL     1       5.527   1.881   1.320  1.00  0.00     0.080 C 
ENDROOT
BRANCH   1   2
ATOM      2  C   UNL     1       5.050   0.664   2.034  1.00  0.00     0.130 C 
ATOM      3  C   UNL     1       5.906  -0.545   2.174  1.00  0.00     0.087 C 
ATOM      4  O   UNL     1       3.935   0.624   2.528  1.00  0.00    -0.300 OA
ENDBRANCH   1   2
BRANCH   1   5
ATOM      5  C   UNL     1       5.407   1.721  -0.182  1.00  0.00     0.043 C 
BRANCH   5   6
ATOM      6  C   UNL     1       6.575   1.025  -0.752  1.00  0.00    -0.044 A 
ATOM      7  C   UNL     1       7.883   1.440  -0.476  1.00  0.00     0.008 A 
ATOM      8  C   UNL     1       6.387  -0.062  -1.576  1.00  0.00     0.054 A 
ATOM      9  C   UNL     1       8.940   0.748  -1.038  1.00  0.00     0.051 A 
ATOM     10  C   UNL     1       7.459  -0.758  -2.142  1.00  0.00     0.166 A 
ATOM     11  C   UNL     1       8.746  -0.350  -1.871  1.00  0.00     0.165 A 
ATOM     12  O   UNL     1       7.532  -1.851  -2.979  1.00  0.00    -0.454 OA
ATOM     13  O   UNL     1       9.591  -1.210  -2.554  1.00  0.00    -0.454 OA
ATOM     14  C   UNL     1       8.866  -2.232  -3.196  1.00  0.00     0.468 C 
ENDBRANCH   5   6
ENDBRANCH   1   5
TORSDOF 3
ENDMDL
MODEL 2
REMARK VINA RESULT:      -7.1      2.729      3.955
REMARK SMILES CC(=O)CCc1ccc2c(c1)OCO2
REMARK SMILES IDX 4 1 2 2 1 3 3 4 5 5 6 6 7 7 11 8 8 9 10 10 9 11 12 12 14 13
REMARK SMILES IDX 13 14
REMARK H PARENT
REMARK Flexibility Score: inf
ROOT
ATOM      1  C   UNL     1       9.690   1.341   2.644  1.00  0.00     0.080 C 
ENDROOT
BRANCH   1   2
ATOM      2  C   UNL     1      11.137   0.989   2.686  1.00  0.00     0.130 C 
ATOM      3  C   UNL     1      12.096   1.728   3.549  1.00  0.00     0.087 C 
ATOM      4  O   UNL     1      11.580   0.076   2.007  1.00  0.00    -0.300 OA
ENDBRANCH   1   2
BRANCH   1   5
ATOM      5  C   UNL     1       9.328   2.025   1.341  1.00  0.00     0.043 C 
BRANCH   5   6
ATOM      6  C   UNL     1       8.570   1.132   0.446  1.00  0.00    -0.044 A 
ATOM      7  C   UNL     1       7.187   0.965   0.577  1.00  0.00     0.008 A 
ATOM      8  C   UNL     1       9.229   0.442  -0.546  1.00  0.00     0.054 A 
ATOM      9  C   UNL     1       6.529   0.113  -0.292  1.00  0.00     0.051 A 
ATOM     10  C   UNL     1       8.559  -0.418  -1.422  1.00  0.00     0.166 A 
ATOM     11  C   UNL     1       7.197  -0.583  -1.293  1.00  0.00     0.165 A 
ATOM     12  O   UNL     1       8.980  -1.204  -2.473  1.00  0.00    -0.454 OA
ATOM     13  O   UNL     1       6.808  -1.477  -2.279  1.00  0.00    -0.454 OA
ATOM     14  C   UNL     1       7.892  -1.825  -3.107  1.00  0.00     0.468 C 
ENDBRANCH   5   6
ENDBRANCH   1   5
TORSDOF 3
ENDMDL
MODEL 3
REMARK VINA RESULT:      -6.9      3.242      4.230
REMARK SMILES CC(=O)CCc1ccc2c(c1)OCO2
REMARK SMILES IDX 4 1 2 2 1 3 3 4 5 5 6 6 7 7 11 8 8 9 10 10 9 11 12 12 14 13
REMARK SMILES IDX 13 14
REMARK H PARENT
REMARK Flexibility Score: inf
ROOT
ATOM      1  C   UNL     1       5.833   0.959   0.338  1.00  0.00     0.080 C 
ENDROOT
BRANCH   1   2
ATOM      2  C   UNL     1       5.463   0.206   1.568  1.00  0.00     0.130 C 
ATOM      3  C   UNL     1       6.113  -1.086   1.918  1.00  0.00     0.087 C 
ATOM      4  O   UNL     1       4.609   0.630   2.330  1.00  0.00    -0.300 OA
ENDBRANCH   1   2
BRANCH   1   5
ATOM      5  C   UNL     1       6.712   2.150   0.665  1.00  0.00     0.043 C 
BRANCH   5   6
ATOM      6  C   UNL     1       8.110   1.748   0.902  1.00  0.00    -0.044 A 
ATOM      7  C   UNL     1       8.865   1.104  -0.085  1.00  0.00     0.008 A 
ATOM      8  C   UNL     1       8.699   2.010   2.118  1.00  0.00     0.054 A 
ATOM      9  C   UNL     1      10.173   0.752   0.194  1.00  0.00     0.051 A 
ATOM     10  C   UNL     1      10.022   1.652   2.395  1.00  0.00     0.166 A 
ATOM     11  C   UNL     1      10.765   1.017   1.425  1.00  0.00     0.165 A 
ATOM     12  O   UNL     1      10.822   1.799   3.508  1.00  0.00    -0.454 OA
ATOM     13  O   UNL     1      12.019   0.786   1.967  1.00  0.00    -0.454 OA
ATOM     14  C   UNL     1      12.127   1.347   3.254  1.00  0.00     0.468 C 
ENDBRANCH   5   6
ENDBRANCH   1   5
TORSDOF 3
ENDMDL
MODEL 4
REMARK VINA RESULT:      -6.9      3.503      4.528
REMARK SMILES CC(=O)CCc1ccc2c(c1)OCO2
REMARK SMILES IDX 4 1 2 2 1 3 3 4 5 5 6 6 7 7 11 8 8 9 10 10 9 11 12 12 14 13
REMARK SMILES IDX 13 14
REMARK H PARENT
REMARK Flexibility Score: inf
ROOT
ATOM      1  C   UNL     1       5.858  -0.007   1.362  1.00  0.00     0.080 C 
ENDROOT
BRANCH   1   2
ATOM      2  C   UNL     1       5.208   1.260   0.925  1.00  0.00     0.130 C 
ATOM      3  C   UNL     1       5.379   1.789  -0.455  1.00  0.00     0.087 C 
ATOM      4  O   UNL     1       4.512   1.905   1.692  1.00  0.00    -0.300 OA
ENDBRANCH   1   2
BRANCH   1   5
ATOM      5  C   UNL     1       7.164  -0.237   0.629  1.00  0.00     0.043 C 
BRANCH   5   6
ATOM      6  C   UNL     1       8.304   0.365   1.343  1.00  0.00    -0.044 A 
ATOM      7  C   UNL     1       8.163   1.538   2.094  1.00  0.00     0.008 A 
ATOM      8  C   UNL     1       9.542  -0.233   1.279  1.00  0.00     0.054 A 
ATOM      9  C   UNL     1       9.268   2.056   2.743  1.00  0.00     0.051 A 
ATOM     10  C   UNL     1      10.657   0.295   1.938  1.00  0.00     0.166 A 
ATOM     11  C   UNL     1      10.518   1.449   2.676  1.00  0.00     0.165 A 
ATOM     12  O   UNL     1      11.973  -0.106   2.027  1.00  0.00    -0.454 OA
ATOM     13  O   UNL     1      11.765   1.736   3.209  1.00  0.00    -0.454 OA
ATOM     14  C   UNL     1      12.695   0.727   2.898  1.00  0.00     0.468 C 
ENDBRANCH   5   6
ENDBRANCH   1   5
TORSDOF 3
ENDMDL
MODEL 5
REMARK VINA RESULT:      -6.8      3.136      4.198
REMARK SMILES CC(=O)CCc1ccc2c(c1)OCO2
REMARK SMILES IDX 4 1 2 2 1 3 3 4 5 5 6 6 7 7 11 8 8 9 10 10 9 11 12 12 14 13
REMARK SMILES IDX 13 14
REMARK H PARENT
REMARK Flexibility Score: inf
ROOT
ATOM      1  C   UNL     1       5.748  -0.031   1.659  1.00  0.00     0.080 C 
ENDROOT
BRANCH   1   2
ATOM      2  C   UNL     1       4.836   1.134   1.485  1.00  0.00     0.130 C 
ATOM      3  C   UNL     1       5.058   2.146   0.419  1.00  0.00     0.087 C 
ATOM      4  O   UNL     1       3.875   1.292   2.220  1.00  0.00    -0.300 OA
ENDBRANCH   1   2
BRANCH   1   5
ATOM      5  C   UNL     1       6.637  -0.220   0.446  1.00  0.00     0.043 C 
BRANCH   5   6
ATOM      6  C   UNL     1       8.000   0.287   0.684  1.00  0.00    -0.044 A 
ATOM      7  C   UNL     1       8.887   0.528  -0.372  1.00  0.00     0.008 A 
ATOM      8  C   UNL     1       8.422   0.535   1.970  1.00  0.00     0.054 A 
ATOM      9  C   UNL     1      10.154   1.005  -0.089  1.00  0.00     0.051 A 
ATOM     10  C   UNL     1       9.703   1.017   2.252  1.00  0.00     0.166 A 
ATOM     11  C   UNL     1      10.577   1.254   1.213  1.00  0.00     0.165 A 
ATOM     12  O   UNL     1      10.350   1.337   3.426  1.00  0.00    -0.454 OA
ATOM     13  O   UNL     1      11.754   1.720   1.778  1.00  0.00    -0.454 OA
ATOM     14  C   UNL     1      11.623   1.874   3.171  1.00  0.00     0.468 C 
ENDBRANCH   5   6
ENDBRANCH   1   5
TORSDOF 3
ENDMDL
