@<TRIPOS>MOLECULE
/home/cewinharhar/GITHUB/reincatalyze/data/processed/docking_pred/2023-May-24-1506_sub9_nm5_bs15_s42_ex16_mel10_mts10000_k50_ec02_g099_lra3e-4_lrc3e-3/fc1d4194c005f01296b9c57c803e441f6dc40ccd_ligand_9.pdbqt
 14 15 0 0 0
SMALL
GASTEIGER

@<TRIPOS>ATOM
      1  C          6.4370    0.4020    1.5890 C.3     1  UNL1        0.0800
      2  C          6.0730    0.8030    0.2010 C.2     1  UNL1        0.1300
      3  C          5.2760    2.0290   -0.0730 C.3     1  UNL1        0.0870
      4  O          6.4200    0.1320   -0.7570 O.2     1  UNL1       -0.3000
      5  C          6.5220   -1.1060    1.7210 C.3     1  UNL1        0.0430
      6  C          7.7120   -1.5210    2.4850 C.2     1  UNL1       -0.0440
      7  C          7.8490   -1.2260    3.8470 C.2     1  UNL1        0.0080
      8  C          8.7180   -2.2180    1.8560 C.2     1  UNL1        0.0540
      9  C          8.9870   -1.6420    4.5120 C.2     1  UNL1        0.0510
     10  C          9.8670   -2.6370    2.5340 C.2     1  UNL1        0.1660
     11  C         10.0030   -2.3460    3.8730 C.2     1  UNL1        0.1650
     12  O         10.9900   -3.3320    2.1380 O.2     1  UNL1       -0.4540
     13  O         11.2190   -2.8740    4.2760 O.2     1  UNL1       -0.4540
     14  C         11.8360   -3.5860    3.2300 C.3     1  UNL1        0.4680
@<TRIPOS>BOND
     1     4     2    2
     2     3     2    1
     3     2     1    1
     4     1     5    1
     5     5     6    1
     6     8     6    2
     7     8    10    1
     8    12    10    1
     9    12    14    1
    10     6     7    1
    11    10    11    2
    12    14    13    1
    13     7     9    2
    14    11    13    1
    15    11     9    1
