MODEL 1
REMARK VINA RESULT:      -7.5      0.000      0.000
REMARK SMILES CC(=O)CCc1ccc2c(c1)OCO2
REMARK SMILES IDX 4 1 2 2 1 3 3 4 5 5 6 6 7 7 11 8 8 9 10 10 9 11 12 12 14 13
REMARK SMILES IDX 13 14
REMARK H PARENT
REMARK Flexibility Score: inf
ROOT
ATOM      1  C   UNL     1       5.609  -0.129   1.969  1.00  0.00     0.080 C 
ENDROOT
BRANCH   1   2
ATOM      2  C   UNL     1       5.264   1.038   1.110  1.00  0.00     0.130 C 
ATOM      3  C   UNL     1       5.770   1.158  -0.283  1.00  0.00     0.087 C 
ATOM      4  O   UNL     1       4.551   1.935   1.529  1.00  0.00    -0.300 OA
ENDBRANCH   1   2
BRANCH   1   5
ATOM      5  C   UNL     1       6.580  -1.059   1.270  1.00  0.00     0.043 C 
BRANCH   5   6
ATOM      6  C   UNL     1       7.675  -1.478   2.163  1.00  0.00    -0.044 A 
ATOM      7  C   UNL     1       7.668  -1.165   3.527  1.00  0.00     0.008 A 
ATOM      8  C   UNL     1       8.733  -2.197   1.655  1.00  0.00     0.054 A 
ATOM      9  C   UNL     1       8.723  -1.585   4.317  1.00  0.00     0.051 A 
ATOM     10  C   UNL     1       9.796  -2.620   2.458  1.00  0.00     0.166 A 
ATOM     11  C   UNL     1       9.791  -2.311   3.800  1.00  0.00     0.165 A 
ATOM     12  O   UNL     1      10.946  -3.334   2.195  1.00  0.00    -0.454 OA
ATOM     13  O   UNL     1      10.950  -2.849   4.339  1.00  0.00    -0.454 OA
ATOM     14  C   UNL     1      11.666  -3.583   3.376  1.00  0.00     0.468 C 
ENDBRANCH   5   6
ENDBRANCH   1   5
TORSDOF 3
ENDMDL
MODEL 2
REMARK VINA RESULT:      -7.3      3.873      4.892
REMARK SMILES CC(=O)CCc1ccc2c(c1)OCO2
REMARK SMILES IDX 4 1 2 2 1 3 3 4 5 5 6 6 7 7 11 8 8 9 10 10 9 11 12 12 14 13
REMARK SMILES IDX 13 14
REMARK H PARENT
REMARK Flexibility Score: inf
ROOT
ATOM      1  C   UNL     1       5.505   1.911   1.276  1.00  0.00     0.080 C 
ENDROOT
BRANCH   1   2
ATOM      2  C   UNL     1       5.008   0.706   1.998  1.00  0.00     0.130 C 
ATOM      3  C   UNL     1       5.822  -0.534   2.100  1.00  0.00     0.087 C 
ATOM      4  O   UNL     1       3.909   0.704   2.530  1.00  0.00    -0.300 OA
ENDBRANCH   1   2
BRANCH   1   5
ATOM      5  C   UNL     1       5.392   1.738  -0.225  1.00  0.00     0.043 C 
BRANCH   5   6
ATOM      6  C   UNL     1       6.563   1.040  -0.785  1.00  0.00    -0.044 A 
ATOM      7  C   UNL     1       7.868   1.476  -0.529  1.00  0.00     0.008 A 
ATOM      8  C   UNL     1       6.381  -0.071  -1.577  1.00  0.00     0.054 A 
ATOM      9  C   UNL     1       8.929   0.780  -1.080  1.00  0.00     0.051 A 
ATOM     10  C   UNL     1       7.456  -0.771  -2.132  1.00  0.00     0.166 A 
ATOM     11  C   UNL     1       8.741  -0.342  -1.881  1.00  0.00     0.165 A 
ATOM     12  O   UNL     1       7.536  -1.886  -2.940  1.00  0.00    -0.454 OA
ATOM     13  O   UNL     1       9.591  -1.211  -2.547  1.00  0.00    -0.454 OA
ATOM     14  C   UNL     1       8.873  -2.258  -3.156  1.00  0.00     0.468 C 
ENDBRANCH   5   6
ENDBRANCH   1   5
TORSDOF 3
ENDMDL
MODEL 3
REMARK VINA RESULT:      -7.3      0.920      1.042
REMARK SMILES CC(=O)CCc1ccc2c(c1)OCO2
REMARK SMILES IDX 4 1 2 2 1 3 3 4 5 5 6 6 7 7 11 8 8 9 10 10 9 11 12 12 14 13
REMARK SMILES IDX 13 14
REMARK H PARENT
REMARK Flexibility Score: inf
ROOT
ATOM      1  C   UNL     1       6.172  -0.829   2.480  1.00  0.00     0.080 C 
ENDROOT
BRANCH   1   2
ATOM      2  C   UNL     1       5.386   0.263   1.842  1.00  0.00     0.130 C 
ATOM      3  C   UNL     1       5.749   0.811   0.508  1.00  0.00     0.087 C 
ATOM      4  O   UNL     1       4.413   0.743   2.401  1.00  0.00    -0.300 OA
ENDBRANCH   1   2
BRANCH   1   5
ATOM      5  C   UNL     1       7.503  -1.028   1.782  1.00  0.00     0.043 C 
BRANCH   5   6
ATOM      6  C   UNL     1       8.531  -1.546   2.703  1.00  0.00    -0.044 A 
ATOM      7  C   UNL     1       8.429  -1.372   4.088  1.00  0.00     0.008 A 
ATOM      8  C   UNL     1       9.620  -2.221   2.200  1.00  0.00     0.054 A 
ATOM      9  C   UNL     1       9.424  -1.881   4.903  1.00  0.00     0.051 A 
ATOM     10  C   UNL     1      10.622  -2.735   3.029  1.00  0.00     0.166 A 
ATOM     11  C   UNL     1      10.523  -2.562   4.392  1.00  0.00     0.165 A 
ATOM     12  O   UNL     1      11.785  -3.431   2.776  1.00  0.00    -0.454 OA
ATOM     13  O   UNL     1      11.639  -3.164   4.953  1.00  0.00    -0.454 OA
ATOM     14  C   UNL     1      12.419  -3.805   3.973  1.00  0.00     0.468 C 
ENDBRANCH   5   6
ENDBRANCH   1   5
TORSDOF 3
ENDMDL
MODEL 4
REMARK VINA RESULT:      -7.1      3.124      4.268
REMARK SMILES CC(=O)CCc1ccc2c(c1)OCO2
REMARK SMILES IDX 4 1 2 2 1 3 3 4 5 5 6 6 7 7 11 8 8 9 10 10 9 11 12 12 14 13
REMARK SMILES IDX 13 14
REMARK H PARENT
REMARK Flexibility Score: inf
ROOT
ATOM      1  C   UNL     1       5.639   1.279  -0.318  1.00  0.00     0.080 C 
ENDROOT
BRANCH   1   2
ATOM      2  C   UNL     1       5.083   1.235   1.063  1.00  0.00     0.130 C 
ATOM      3  C   UNL     1       5.347   0.091   1.976  1.00  0.00     0.087 C 
ATOM      4  O   UNL     1       4.390   2.145   1.488  1.00  0.00    -0.300 OA
ENDBRANCH   1   2
BRANCH   1   5
ATOM      5  C   UNL     1       7.144   1.103  -0.312  1.00  0.00     0.043 C 
BRANCH   5   6
ATOM      6  C   UNL     1       7.546  -0.188  -0.899  1.00  0.00    -0.044 A 
ATOM      7  C   UNL     1       7.645  -0.365  -2.284  1.00  0.00     0.008 A 
ATOM      8  C   UNL     1       7.836  -1.252  -0.075  1.00  0.00     0.054 A 
ATOM      9  C   UNL     1       8.027  -1.598  -2.777  1.00  0.00     0.051 A 
ATOM     10  C   UNL     1       8.224  -2.497  -0.579  1.00  0.00     0.166 A 
ATOM     11  C   UNL     1       8.319  -2.672  -1.941  1.00  0.00     0.165 A 
ATOM     12  O   UNL     1       8.559  -3.691   0.023  1.00  0.00    -0.454 OA
ATOM     13  O   UNL     1       8.717  -3.983  -2.150  1.00  0.00    -0.454 OA
ATOM     14  C   UNL     1       8.968  -4.638  -0.930  1.00  0.00     0.468 C 
ENDBRANCH   5   6
ENDBRANCH   1   5
TORSDOF 3
ENDMDL
MODEL 5
REMARK VINA RESULT:      -7.0      1.065      1.085
REMARK SMILES CC(=O)CCc1ccc2c(c1)OCO2
REMARK SMILES IDX 4 1 2 2 1 3 3 4 5 5 6 6 7 7 11 8 8 9 10 10 9 11 12 12 14 13
REMARK SMILES IDX 13 14
REMARK H PARENT
REMARK Flexibility Score: inf
ROOT
ATOM      1  C   UNL     1       6.437   0.402   1.589  1.00  0.00     0.080 C 
ENDROOT
BRANCH   1   2
ATOM      2  C   UNL     1       6.073   0.803   0.201  1.00  0.00     0.130 C 
ATOM      3  C   UNL     1       5.276   2.029  -0.073  1.00  0.00     0.087 C 
ATOM      4  O   UNL     1       6.420   0.132  -0.757  1.00  0.00    -0.300 OA
ENDBRANCH   1   2
BRANCH   1   5
ATOM      5  C   UNL     1       6.522  -1.106   1.721  1.00  0.00     0.043 C 
BRANCH   5   6
ATOM      6  C   UNL     1       7.712  -1.521   2.485  1.00  0.00    -0.044 A 
ATOM      7  C   UNL     1       7.849  -1.226   3.847  1.00  0.00     0.008 A 
ATOM      8  C   UNL     1       8.718  -2.218   1.856  1.00  0.00     0.054 A 
ATOM      9  C   UNL     1       8.987  -1.642   4.512  1.00  0.00     0.051 A 
ATOM     10  C   UNL     1       9.867  -2.637   2.534  1.00  0.00     0.166 A 
ATOM     11  C   UNL     1      10.003  -2.346   3.873  1.00  0.00     0.165 A 
ATOM     12  O   UNL     1      10.990  -3.332   2.138  1.00  0.00    -0.454 OA
ATOM     13  O   UNL     1      11.219  -2.874   4.276  1.00  0.00    -0.454 OA
ATOM     14  C   UNL     1      11.836  -3.586   3.230  1.00  0.00     0.468 C 
ENDBRANCH   5   6
ENDBRANCH   1   5
TORSDOF 3
ENDMDL
