@<TRIPOS>MOLECULE
/home/cewinharhar/GITHUB/reincatalyze/data/processed/docking_pred/2023-May-24-1506_sub9_nm5_bs15_s42_ex16_mel10_mts10000_k50_ec02_g099_lra3e-4_lrc3e-3/fc1d4194c005f01296b9c57c803e441f6dc40ccd_ligand_9.pdbqt
 14 15 0 0 0
SMALL
GASTEIGER

@<TRIPOS>ATOM
      1  C          6.1720   -0.8290    2.4800 C.3     1  UNL1        0.0800
      2  C          5.3860    0.2630    1.8420 C.2     1  UNL1        0.1300
      3  C          5.7490    0.8110    0.5080 C.3     1  UNL1        0.0870
      4  O          4.4130    0.7430    2.4010 O.2     1  UNL1       -0.3000
      5  C          7.5030   -1.0280    1.7820 C.3     1  UNL1        0.0430
      6  C          8.5310   -1.5460    2.7030 C.2     1  UNL1       -0.0440
      7  C          8.4290   -1.3720    4.0880 C.2     1  UNL1        0.0080
      8  C          9.6200   -2.2210    2.2000 C.2     1  UNL1        0.0540
      9  C          9.4240   -1.8810    4.9030 C.2     1  UNL1        0.0510
     10  C         10.6220   -2.7350    3.0290 C.2     1  UNL1        0.1660
     11  C         10.5230   -2.5620    4.3920 C.2     1  UNL1        0.1650
     12  O         11.7850   -3.4310    2.7760 O.2     1  UNL1       -0.4540
     13  O         11.6390   -3.1640    4.9530 O.2     1  UNL1       -0.4540
     14  C         12.4190   -3.8050    3.9730 C.3     1  UNL1        0.4680
@<TRIPOS>BOND
     1     3     2    1
     2     5     1    1
     3     5     6    1
     4     2     4    2
     5     2     1    1
     6     8     6    2
     7     8    10    1
     8     6     7    1
     9    12    10    1
    10    12    14    1
    11    10    11    2
    12    14    13    1
    13     7     9    2
    14    11     9    1
    15    11    13    1
