@<TRIPOS>MOLECULE
/home/cewinharhar/GITHUB/reincatalyze/data/processed/docking_pred/2023-May-24-1506_sub9_nm5_bs15_s42_ex16_mel10_mts10000_k50_ec02_g099_lra3e-4_lrc3e-3/fc1d4194c005f01296b9c57c803e441f6dc40ccd_ligand_9.pdbqt
 14 15 0 0 0
SMALL
GASTEIGER

@<TRIPOS>ATOM
      1  C          5.5050    1.9110    1.2760 C.3     1  UNL1        0.0800
      2  C          5.0080    0.7060    1.9980 C.2     1  UNL1        0.1300
      3  C          5.8220   -0.5340    2.1000 C.3     1  UNL1        0.0870
      4  O          3.9090    0.7040    2.5300 O.2     1  UNL1       -0.3000
      5  C          5.3920    1.7380   -0.2250 C.3     1  UNL1        0.0430
      6  C          6.5630    1.0400   -0.7850 C.2     1  UNL1       -0.0440
      7  C          7.8680    1.4760   -0.5290 C.2     1  UNL1        0.0080
      8  C          6.3810   -0.0710   -1.5770 C.2     1  UNL1        0.0540
      9  C          8.9290    0.7800   -1.0800 C.2     1  UNL1        0.0510
     10  C          7.4560   -0.7710   -2.1320 C.2     1  UNL1        0.1660
     11  C          8.7410   -0.3420   -1.8810 C.2     1  UNL1        0.1650
     12  O          7.5360   -1.8860   -2.9400 O.2     1  UNL1       -0.4540
     13  O          9.5910   -1.2110   -2.5470 O.2     1  UNL1       -0.4540
     14  C          8.8730   -2.2580   -3.1560 C.3     1  UNL1        0.4680
@<TRIPOS>BOND
     1    14    12    1
     2    14    13    1
     3    12    10    1
     4    13    11    1
     5    10    11    2
     6    10     8    1
     7    11     9    1
     8     8     6    2
     9     9     7    2
    10     6     7    1
    11     6     5    1
    12     5     1    1
    13     1     2    1
    14     2     3    1
    15     2     4    2
