@<TRIPOS>MOLECULE
/home/cewinharhar/GITHUB/reincatalyze/data/processed/docking_pred/2023-May-24-1506_sub9_nm5_bs15_s42_ex16_mel10_mts10000_k50_ec02_g099_lra3e-4_lrc3e-3/fc1d4194c005f01296b9c57c803e441f6dc40ccd_ligand_9.pdbqt
 14 15 0 0 0
SMALL
GASTEIGER

@<TRIPOS>ATOM
      1  C          5.6090   -0.1290    1.9690 C.3     1  UNL1        0.0800
      2  C          5.2640    1.0380    1.1100 C.2     1  UNL1        0.1300
      3  C          5.7700    1.1580   -0.2830 C.3     1  UNL1        0.0870
      4  O          4.5510    1.9350    1.5290 O.2     1  UNL1       -0.3000
      5  C          6.5800   -1.0590    1.2700 C.3     1  UNL1        0.0430
      6  C          7.6750   -1.4780    2.1630 C.2     1  UNL1       -0.0440
      7  C          7.6680   -1.1650    3.5270 C.2     1  UNL1        0.0080
      8  C          8.7330   -2.1970    1.6550 C.2     1  UNL1        0.0540
      9  C          8.7230   -1.5850    4.3170 C.2     1  UNL1        0.0510
     10  C          9.7960   -2.6200    2.4580 C.2     1  UNL1        0.1660
     11  C          9.7910   -2.3110    3.8000 C.2     1  UNL1        0.1650
     12  O         10.9460   -3.3340    2.1950 O.2     1  UNL1       -0.4540
     13  O         10.9500   -2.8490    4.3390 O.2     1  UNL1       -0.4540
     14  C         11.6660   -3.5830    3.3760 C.3     1  UNL1        0.4680
@<TRIPOS>BOND
     1     3     2    1
     2     2     4    2
     3     2     1    1
     4     5     1    1
     5     5     6    1
     6     8     6    2
     7     8    10    1
     8     6     7    1
     9    12    10    1
    10    12    14    1
    11    10    11    2
    12    14    13    1
    13     7     9    2
    14    11     9    1
    15    11    13    1
