@<TRIPOS>MOLECULE
/home/cewinharhar/GITHUB/reincatalyze/data/processed/docking_pred/2023-May-24-1506_sub9_nm5_bs15_s42_ex16_mel10_mts10000_k50_ec02_g099_lra3e-4_lrc3e-3/feafc10279513d02e8af3e746adeb4d8bf3b3c68_ligand_9.pdbqt
 14 15 0 0 0
SMALL
GASTEIGER

@<TRIPOS>ATOM
      1  C          6.8150    0.7980    1.3650 C.3     1  UNL1        0.0800
      2  C          5.3780    1.1820    1.4450 C.2     1  UNL1        0.1300
      3  C          4.7730    2.1500    0.4900 C.3     1  UNL1        0.0870
      4  O          4.6500    0.7090    2.3030 O.2     1  UNL1       -0.3000
      5  C          7.3650    1.0130   -0.0310 C.3     1  UNL1        0.0430
      6  C          7.6750   -0.2640   -0.6990 C.2     1  UNL1       -0.0440
      7  C          7.6570   -0.3850   -2.0930 C.2     1  UNL1        0.0080
      8  C          7.9930   -1.3690    0.0570 C.2     1  UNL1        0.0540
      9  C          7.9570   -1.6080   -2.6640 C.2     1  UNL1        0.0510
     10  C          8.2960   -2.6030   -0.5250 C.2     1  UNL1        0.1660
     11  C          8.2780   -2.7240   -1.8970 C.2     1  UNL1        0.1650
     12  O          8.6370   -3.8320    0.0000 O.2     1  UNL1       -0.4540
     13  O          8.6130   -4.0370   -2.1890 O.2     1  UNL1       -0.4540
     14  C          8.9370   -4.7500   -1.0190 C.3     1  UNL1        0.4680
@<TRIPOS>BOND
     1     9     7    1
     2     9    11    2
     3    13    11    1
     4    13    14    1
     5     7     6    2
     6    11    10    1
     7    14    12    1
     8     6     5    1
     9     6     8    1
    10    10    12    1
    11    10     8    2
    12     5     1    1
    13     3     2    1
    14     1     2    1
    15     2     4    2
