@<TRIPOS>MOLECULE
/home/cewinharhar/GITHUB/reincatalyze/data/processed/docking_pred/2023-May-24-1506_sub9_nm5_bs15_s42_ex16_mel10_mts10000_k50_ec02_g099_lra3e-4_lrc3e-3/feafc10279513d02e8af3e746adeb4d8bf3b3c68_ligand_9.pdbqt
 14 15 0 0 0
SMALL
GASTEIGER

@<TRIPOS>ATOM
      1  C          5.4330   -0.0420    1.9990 C.3     1  UNL1        0.0800
      2  C          4.5800    1.1550    1.7570 C.2     1  UNL1        0.1300
      3  C          4.9010    2.1400    0.6900 C.3     1  UNL1        0.0870
      4  O          3.5860    1.3630    2.4340 O.2     1  UNL1       -0.3000
      5  C          6.8660    0.2080    1.5740 C.3     1  UNL1        0.0430
      6  C          7.2920   -0.7190    0.5110 C.2     1  UNL1       -0.0440
      7  C          7.1680   -0.3880   -0.8430 C.2     1  UNL1        0.0080
      8  C          7.8260   -1.9420    0.8460 C.2     1  UNL1        0.0540
      9  C          7.5850   -1.2980   -1.7970 C.2     1  UNL1        0.0510
     10  C          8.2470   -2.8590   -0.1220 C.2     1  UNL1        0.1660
     11  C          8.1250   -2.5340   -1.4550 C.2     1  UNL1        0.1650
     12  O          8.8010   -4.1190   -0.0450 O.2     1  UNL1       -0.4540
     13  O          8.6130   -3.6120   -2.1760 O.2     1  UNL1       -0.4540
     14  C          9.1360   -4.6010   -1.3220 C.3     1  UNL1        0.4680
@<TRIPOS>BOND
     1    13    11    1
     2    13    14    1
     3     9    11    2
     4     9     7    1
     5    11    10    1
     6    14    12    1
     7     7     6    2
     8    10    12    1
     9    10     8    2
    10     6     8    1
    11     6     5    1
    12     3     2    1
    13     5     1    1
    14     2     1    1
    15     2     4    2
