@<TRIPOS>MOLECULE
/home/cewinharhar/GITHUB/reincatalyze/data/processed/docking_pred/2023-May-24-1506_sub9_nm5_bs15_s42_ex16_mel10_mts10000_k50_ec02_g099_lra3e-4_lrc3e-3/feafc10279513d02e8af3e746adeb4d8bf3b3c68_ligand_9.pdbqt
 14 15 0 0 0
SMALL
GASTEIGER

@<TRIPOS>ATOM
      1  C          5.7710    1.2300   -0.3000 C.3     1  UNL1        0.0800
      2  C          5.2970    1.2340    1.1120 C.2     1  UNL1        0.1300
      3  C          5.6330    0.1300    2.0510 C.3     1  UNL1        0.0870
      4  O          4.6150    2.1500    1.5420 O.2     1  UNL1       -0.3000
      5  C          7.2750    1.0590   -0.3760 C.3     1  UNL1        0.0430
      6  C          7.6480   -0.2450   -0.9540 C.2     1  UNL1       -0.0440
      7  C          7.6910   -0.4470   -2.3390 C.2     1  UNL1        0.0080
      8  C          7.9670   -1.2940   -0.1230 C.2     1  UNL1        0.0540
      9  C          8.0490   -1.6910   -2.8240 C.2     1  UNL1        0.0510
     10  C          8.3280   -2.5500   -0.6190 C.2     1  UNL1        0.1660
     11  C          8.3700   -2.7500   -1.9800 C.2     1  UNL1        0.1650
     12  O          8.6830   -3.7350   -0.0090 O.2     1  UNL1       -0.4540
     13  O          8.7530   -4.0670   -2.1800 O.2     1  UNL1       -0.4540
     14  C          9.0500   -4.7020   -0.9590 C.3     1  UNL1        0.4680
@<TRIPOS>BOND
     1     9     7    1
     2     9    11    2
     3     7     6    2
     4    13    11    1
     5    13    14    1
     6    11    10    1
     7    14    12    1
     8     6     5    1
     9     6     8    1
    10    10     8    2
    11    10    12    1
    12     5     1    1
    13     1     2    1
    14     2     4    2
    15     2     3    1
