@<TRIPOS>MOLECULE
/home/cewinharhar/GITHUB/reincatalyze/data/processed/docking_pred/2023-May-24-1506_sub9_nm5_bs15_s42_ex16_mel10_mts10000_k50_ec02_g099_lra3e-4_lrc3e-3/feafc10279513d02e8af3e746adeb4d8bf3b3c68_ligand_9.pdbqt
 14 15 0 0 0
SMALL
GASTEIGER

@<TRIPOS>ATOM
      1  C          5.5040    1.9490    1.2500 C.3     1  UNL1        0.0800
      2  C          5.0910    0.7320    2.0040 C.2     1  UNL1        0.1300
      3  C          6.0060   -0.4270    2.1780 C.3     1  UNL1        0.0870
      4  O          3.9800    0.6520    2.5020 O.2     1  UNL1       -0.3000
      5  C          5.3780    1.7390   -0.2460 C.3     1  UNL1        0.0430
      6  C          6.5510    1.0410   -0.8010 C.2     1  UNL1       -0.0440
      7  C          7.8550    1.4830   -0.5460 C.2     1  UNL1        0.0080
      8  C          6.3730   -0.0730   -1.5890 C.2     1  UNL1        0.0540
      9  C          8.9180    0.7870   -1.0930 C.2     1  UNL1        0.0510
     10  C          7.4510   -0.7730   -2.1390 C.2     1  UNL1        0.1660
     11  C          8.7340   -0.3390   -1.8900 C.2     1  UNL1        0.1650
     12  O          7.5340   -1.8900   -2.9420 O.2     1  UNL1       -0.4540
     13  O          9.5870   -1.2080   -2.5510 O.2     1  UNL1       -0.4540
     14  C          8.8730   -2.2600   -3.1560 C.3     1  UNL1        0.4680
@<TRIPOS>BOND
     1    14    12    1
     2    14    13    1
     3    12    10    1
     4    13    11    1
     5    10    11    2
     6    10     8    1
     7    11     9    1
     8     8     6    2
     9     9     7    2
    10     6     7    1
    11     6     5    1
    12     5     1    1
    13     1     2    1
    14     2     3    1
    15     2     4    2
