@<TRIPOS>MOLECULE
/home/cewinharhar/GITHUB/reincatalyze/data/processed/docking_pred/2023-May-24-1506_sub9_nm5_bs15_s42_ex16_mel10_mts10000_k50_ec02_g099_lra3e-4_lrc3e-3/feafc10279513d02e8af3e746adeb4d8bf3b3c68_ligand_9.pdbqt
 14 15 0 0 0
SMALL
GASTEIGER

@<TRIPOS>ATOM
      1  C          5.3060   -0.0760    1.9630 C.3     1  UNL1        0.0800
      2  C          4.4330    1.1180    1.7800 C.2     1  UNL1        0.1300
      3  C          4.7270    2.1500    0.7510 C.3     1  UNL1        0.0870
      4  O          3.4450    1.2840    2.4770 O.2     1  UNL1       -0.3000
      5  C          6.7730    0.3020    1.9110 C.3     1  UNL1        0.0430
      6  C          7.3830   -0.0500    0.6170 C.2     1  UNL1       -0.0440
      7  C          7.8820    0.9300   -0.2490 C.2     1  UNL1        0.0080
      8  C          7.4710   -1.3710    0.2410 C.2     1  UNL1        0.0540
      9  C          8.4440    0.5410   -1.4510 C.2     1  UNL1        0.0510
     10  C          8.0410   -1.7600   -0.9750 C.2     1  UNL1        0.1660
     11  C          8.5320   -0.7960   -1.8280 C.2     1  UNL1        0.1650
     12  O          8.2420   -2.9880   -1.5690 O.2     1  UNL1       -0.4540
     13  O          9.0300   -1.4590   -2.9380 O.2     1  UNL1       -0.4540
     14  C          8.9490   -2.8550   -2.7750 C.3     1  UNL1        0.4680
@<TRIPOS>BOND
     1    13    14    1
     2    13    11    1
     3    14    12    1
     4    11     9    2
     5    11    10    1
     6    12    10    1
     7     9     7    1
     8    10     8    2
     9     7     6    2
    10     8     6    1
    11     6     5    1
    12     3     2    1
    13     2     1    1
    14     2     4    2
    15     5     1    1
