MODEL 1
REMARK VINA RESULT:      -7.7      0.000      0.000
REMARK SMILES CC(=O)CCc1ccc2c(c1)OCO2
REMARK SMILES IDX 4 1 2 2 1 3 3 4 5 5 6 6 7 7 11 8 8 9 10 10 9 11 12 12 14 13
REMARK SMILES IDX 13 14
REMARK H PARENT
REMARK Flexibility Score: inf
ROOT
ATOM      1  C   UNL     1       5.504   1.949   1.250  1.00  0.00     0.080 C 
ENDROOT
BRANCH   1   2
ATOM      2  C   UNL     1       5.091   0.732   2.004  1.00  0.00     0.130 C 
ATOM      3  C   UNL     1       6.006  -0.427   2.178  1.00  0.00     0.087 C 
ATOM      4  O   UNL     1       3.980   0.652   2.502  1.00  0.00    -0.300 OA
ENDBRANCH   1   2
BRANCH   1   5
ATOM      5  C   UNL     1       5.378   1.739  -0.246  1.00  0.00     0.043 C 
BRANCH   5   6
ATOM      6  C   UNL     1       6.551   1.041  -0.801  1.00  0.00    -0.044 A 
ATOM      7  C   UNL     1       7.855   1.483  -0.546  1.00  0.00     0.008 A 
ATOM      8  C   UNL     1       6.373  -0.073  -1.589  1.00  0.00     0.054 A 
ATOM      9  C   UNL     1       8.918   0.787  -1.093  1.00  0.00     0.051 A 
ATOM     10  C   UNL     1       7.451  -0.773  -2.139  1.00  0.00     0.166 A 
ATOM     11  C   UNL     1       8.734  -0.339  -1.890  1.00  0.00     0.165 A 
ATOM     12  O   UNL     1       7.534  -1.890  -2.942  1.00  0.00    -0.454 OA
ATOM     13  O   UNL     1       9.587  -1.208  -2.551  1.00  0.00    -0.454 OA
ATOM     14  C   UNL     1       8.873  -2.260  -3.156  1.00  0.00     0.468 C 
ENDBRANCH   5   6
ENDBRANCH   1   5
TORSDOF 3
ENDMDL
MODEL 2
REMARK VINA RESULT:      -7.3      1.932      2.442
REMARK SMILES CC(=O)CCc1ccc2c(c1)OCO2
REMARK SMILES IDX 4 1 2 2 1 3 3 4 5 5 6 6 7 7 11 8 8 9 10 10 9 11 12 12 14 13
REMARK SMILES IDX 13 14
REMARK H PARENT
REMARK Flexibility Score: inf
ROOT
ATOM      1  C   UNL     1       5.771   1.230  -0.300  1.00  0.00     0.080 C 
ENDROOT
BRANCH   1   2
ATOM      2  C   UNL     1       5.297   1.234   1.112  1.00  0.00     0.130 C 
ATOM      3  C   UNL     1       5.633   0.130   2.051  1.00  0.00     0.087 C 
ATOM      4  O   UNL     1       4.615   2.150   1.542  1.00  0.00    -0.300 OA
ENDBRANCH   1   2
BRANCH   1   5
ATOM      5  C   UNL     1       7.275   1.059  -0.376  1.00  0.00     0.043 C 
BRANCH   5   6
ATOM      6  C   UNL     1       7.648  -0.245  -0.954  1.00  0.00    -0.044 A 
ATOM      7  C   UNL     1       7.691  -0.447  -2.339  1.00  0.00     0.008 A 
ATOM      8  C   UNL     1       7.967  -1.294  -0.123  1.00  0.00     0.054 A 
ATOM      9  C   UNL     1       8.049  -1.691  -2.824  1.00  0.00     0.051 A 
ATOM     10  C   UNL     1       8.328  -2.550  -0.619  1.00  0.00     0.166 A 
ATOM     11  C   UNL     1       8.370  -2.750  -1.980  1.00  0.00     0.165 A 
ATOM     12  O   UNL     1       8.683  -3.735  -0.009  1.00  0.00    -0.454 OA
ATOM     13  O   UNL     1       8.753  -4.067  -2.180  1.00  0.00    -0.454 OA
ATOM     14  C   UNL     1       9.050  -4.702  -0.959  1.00  0.00     0.468 C 
ENDBRANCH   5   6
ENDBRANCH   1   5
TORSDOF 3
ENDMDL
MODEL 3
REMARK VINA RESULT:      -7.2      2.047      2.623
REMARK SMILES CC(=O)CCc1ccc2c(c1)OCO2
REMARK SMILES IDX 4 1 2 2 1 3 3 4 5 5 6 6 7 7 11 8 8 9 10 10 9 11 12 12 14 13
REMARK SMILES IDX 13 14
REMARK H PARENT
REMARK Flexibility Score: inf
ROOT
ATOM      1  C   UNL     1       5.433  -0.042   1.999  1.00  0.00     0.080 C 
ENDROOT
BRANCH   1   2
ATOM      2  C   UNL     1       4.580   1.155   1.757  1.00  0.00     0.130 C 
ATOM      3  C   UNL     1       4.901   2.140   0.690  1.00  0.00     0.087 C 
ATOM      4  O   UNL     1       3.586   1.363   2.434  1.00  0.00    -0.300 OA
ENDBRANCH   1   2
BRANCH   1   5
ATOM      5  C   UNL     1       6.866   0.208   1.574  1.00  0.00     0.043 C 
BRANCH   5   6
ATOM      6  C   UNL     1       7.292  -0.719   0.511  1.00  0.00    -0.044 A 
ATOM      7  C   UNL     1       7.168  -0.388  -0.843  1.00  0.00     0.008 A 
ATOM      8  C   UNL     1       7.826  -1.942   0.846  1.00  0.00     0.054 A 
ATOM      9  C   UNL     1       7.585  -1.298  -1.797  1.00  0.00     0.051 A 
ATOM     10  C   UNL     1       8.247  -2.859  -0.122  1.00  0.00     0.166 A 
ATOM     11  C   UNL     1       8.125  -2.534  -1.455  1.00  0.00     0.165 A 
ATOM     12  O   UNL     1       8.801  -4.119  -0.045  1.00  0.00    -0.454 OA
ATOM     13  O   UNL     1       8.613  -3.612  -2.176  1.00  0.00    -0.454 OA
ATOM     14  C   UNL     1       9.136  -4.601  -1.322  1.00  0.00     0.468 C 
ENDBRANCH   5   6
ENDBRANCH   1   5
TORSDOF 3
ENDMDL
MODEL 4
REMARK VINA RESULT:      -7.1      1.973      2.546
REMARK SMILES CC(=O)CCc1ccc2c(c1)OCO2
REMARK SMILES IDX 4 1 2 2 1 3 3 4 5 5 6 6 7 7 11 8 8 9 10 10 9 11 12 12 14 13
REMARK SMILES IDX 13 14
REMARK H PARENT
REMARK Flexibility Score: inf
ROOT
ATOM      1  C   UNL     1       6.815   0.798   1.365  1.00  0.00     0.080 C 
ENDROOT
BRANCH   1   2
ATOM      2  C   UNL     1       5.378   1.182   1.445  1.00  0.00     0.130 C 
ATOM      3  C   UNL     1       4.773   2.150   0.490  1.00  0.00     0.087 C 
ATOM      4  O   UNL     1       4.650   0.709   2.303  1.00  0.00    -0.300 OA
ENDBRANCH   1   2
BRANCH   1   5
ATOM      5  C   UNL     1       7.365   1.013  -0.031  1.00  0.00     0.043 C 
BRANCH   5   6
ATOM      6  C   UNL     1       7.675  -0.264  -0.699  1.00  0.00    -0.044 A 
ATOM      7  C   UNL     1       7.657  -0.385  -2.093  1.00  0.00     0.008 A 
ATOM      8  C   UNL     1       7.993  -1.369   0.057  1.00  0.00     0.054 A 
ATOM      9  C   UNL     1       7.957  -1.608  -2.664  1.00  0.00     0.051 A 
ATOM     10  C   UNL     1       8.296  -2.603  -0.525  1.00  0.00     0.166 A 
ATOM     11  C   UNL     1       8.278  -2.724  -1.897  1.00  0.00     0.165 A 
ATOM     12  O   UNL     1       8.637  -3.832   0.000  1.00  0.00    -0.454 OA
ATOM     13  O   UNL     1       8.613  -4.037  -2.189  1.00  0.00    -0.454 OA
ATOM     14  C   UNL     1       8.937  -4.750  -1.019  1.00  0.00     0.468 C 
ENDBRANCH   5   6
ENDBRANCH   1   5
TORSDOF 3
ENDMDL
MODEL 5
REMARK VINA RESULT:      -6.8      1.263      1.761
REMARK SMILES CC(=O)CCc1ccc2c(c1)OCO2
REMARK SMILES IDX 4 1 2 2 1 3 3 4 5 5 6 6 7 7 11 8 8 9 10 10 9 11 12 12 14 13
REMARK SMILES IDX 13 14
REMARK H PARENT
REMARK Flexibility Score: inf
ROOT
ATOM      1  C   UNL     1       5.306  -0.076   1.963  1.00  0.00     0.080 C 
ENDROOT
BRANCH   1   2
ATOM      2  C   UNL     1       4.433   1.118   1.780  1.00  0.00     0.130 C 
ATOM      3  C   UNL     1       4.727   2.150   0.751  1.00  0.00     0.087 C 
ATOM      4  O   UNL     1       3.445   1.284   2.477  1.00  0.00    -0.300 OA
ENDBRANCH   1   2
BRANCH   1   5
ATOM      5  C   UNL     1       6.773   0.302   1.911  1.00  0.00     0.043 C 
BRANCH   5   6
ATOM      6  C   UNL     1       7.383  -0.050   0.617  1.00  0.00    -0.044 A 
ATOM      7  C   UNL     1       7.882   0.930  -0.249  1.00  0.00     0.008 A 
ATOM      8  C   UNL     1       7.471  -1.371   0.241  1.00  0.00     0.054 A 
ATOM      9  C   UNL     1       8.444   0.541  -1.451  1.00  0.00     0.051 A 
ATOM     10  C   UNL     1       8.041  -1.760  -0.975  1.00  0.00     0.166 A 
ATOM     11  C   UNL     1       8.532  -0.796  -1.828  1.00  0.00     0.165 A 
ATOM     12  O   UNL     1       8.242  -2.988  -1.569  1.00  0.00    -0.454 OA
ATOM     13  O   UNL     1       9.030  -1.459  -2.938  1.00  0.00    -0.454 OA
ATOM     14  C   UNL     1       8.949  -2.855  -2.775  1.00  0.00     0.468 C 
ENDBRANCH   5   6
ENDBRANCH   1   5
TORSDOF 3
ENDMDL
