@<TRIPOS>MOLECULE
/home/cewinharhar/GITHUB/reincatalyze/data/processed/docking_pred/2023-May-24-1506_sub9_nm5_bs15_s42_ex16_mel10_mts10000_k50_ec02_g099_lra3e-4_lrc3e-3/ff0363d9ee1910d446632d9597fe578fef33cb13_ligand_9.pdbqt
 14 15 0 0 0
SMALL
GASTEIGER

@<TRIPOS>ATOM
      1  C          5.7600    1.3690   -0.2810 C.3     1  UNL1        0.0800
      2  C          5.1270    1.2810    1.0650 C.2     1  UNL1        0.1300
      3  C          5.3950    0.1390    1.9800 C.3     1  UNL1        0.0870
      4  O          4.3660    2.1500    1.4580 O.2     1  UNL1       -0.3000
      5  C          7.2470    1.0850   -0.2100 C.3     1  UNL1        0.0430
      6  C          7.5870   -0.2070   -0.8330 C.2     1  UNL1       -0.0440
      7  C          7.5800   -0.3750   -2.2220 C.2     1  UNL1        0.0080
      8  C          7.9230   -1.2790   -0.0390 C.2     1  UNL1        0.0540
      9  C          7.9090   -1.6100   -2.7500 C.2     1  UNL1        0.0510
     10  C          8.2560   -2.5260   -0.5780 C.2     1  UNL1        0.1660
     11  C          8.2480   -2.6930   -1.9450 C.2     1  UNL1        0.1650
     12  O          8.6190   -3.7280   -0.0100 O.2     1  UNL1       -0.4540
     13  O          8.6110   -4.0070   -2.1900 O.2     1  UNL1       -0.4540
     14  C          8.9430   -4.6740   -0.9960 C.3     1  UNL1        0.4680
@<TRIPOS>BOND
     1     9     7    1
     2     9    11    2
     3     7     6    2
     4    13    11    1
     5    13    14    1
     6    11    10    1
     7    14    12    1
     8     6     5    1
     9     6     8    1
    10    10     8    2
    11    10    12    1
    12     1     5    1
    13     1     2    1
    14     2     4    2
    15     2     3    1
