MODEL 1
REMARK VINA RESULT:      -7.7      0.000      0.000
REMARK SMILES CC(=O)CCc1ccc2c(c1)OCO2
REMARK SMILES IDX 4 1 2 2 1 3 3 4 5 5 6 6 7 7 11 8 8 9 10 10 9 11 12 12 14 13
REMARK SMILES IDX 13 14
REMARK H PARENT
REMARK Flexibility Score: inf
ROOT
ATOM      1  C   UNL     1       5.536   1.920   1.273  1.00  0.00     0.080 C 
ENDROOT
BRANCH   1   2
ATOM      2  C   UNL     1       5.085   0.704   2.007  1.00  0.00     0.130 C 
ATOM      3  C   UNL     1       5.969  -0.481   2.172  1.00  0.00     0.087 C 
ATOM      4  O   UNL     1       3.969   0.646   2.498  1.00  0.00    -0.300 OA
ENDBRANCH   1   2
BRANCH   1   5
ATOM      5  C   UNL     1       5.406   1.737  -0.226  1.00  0.00     0.043 C 
BRANCH   5   6
ATOM      6  C   UNL     1       6.571   1.035  -0.794  1.00  0.00    -0.044 A 
ATOM      7  C   UNL     1       7.879   1.472  -0.553  1.00  0.00     0.008 A 
ATOM      8  C   UNL     1       6.381  -0.080  -1.578  1.00  0.00     0.054 A 
ATOM      9  C   UNL     1       8.934   0.773  -1.112  1.00  0.00     0.051 A 
ATOM     10  C   UNL     1       7.450  -0.783  -2.140  1.00  0.00     0.166 A 
ATOM     11  C   UNL     1       8.737  -0.353  -1.905  1.00  0.00     0.165 A 
ATOM     12  O   UNL     1       7.521  -1.902  -2.943  1.00  0.00    -0.454 OA
ATOM     13  O   UNL     1       9.580  -1.226  -2.575  1.00  0.00    -0.454 OA
ATOM     14  C   UNL     1       8.855  -2.276  -3.171  1.00  0.00     0.468 C 
ENDBRANCH   5   6
ENDBRANCH   1   5
TORSDOF 3
ENDMDL
MODEL 2
REMARK VINA RESULT:      -7.4      1.924      2.403
REMARK SMILES CC(=O)CCc1ccc2c(c1)OCO2
REMARK SMILES IDX 4 1 2 2 1 3 3 4 5 5 6 6 7 7 11 8 8 9 10 10 9 11 12 12 14 13
REMARK SMILES IDX 13 14
REMARK H PARENT
REMARK Flexibility Score: inf
ROOT
ATOM      1  C   UNL     1       5.760   1.369  -0.281  1.00  0.00     0.080 C 
ENDROOT
BRANCH   1   2
ATOM      2  C   UNL     1       5.127   1.281   1.065  1.00  0.00     0.130 C 
ATOM      3  C   UNL     1       5.395   0.139   1.980  1.00  0.00     0.087 C 
ATOM      4  O   UNL     1       4.366   2.150   1.458  1.00  0.00    -0.300 OA
ENDBRANCH   1   2
BRANCH   1   5
ATOM      5  C   UNL     1       7.247   1.085  -0.210  1.00  0.00     0.043 C 
BRANCH   5   6
ATOM      6  C   UNL     1       7.587  -0.207  -0.833  1.00  0.00    -0.044 A 
ATOM      7  C   UNL     1       7.580  -0.375  -2.222  1.00  0.00     0.008 A 
ATOM      8  C   UNL     1       7.923  -1.279  -0.039  1.00  0.00     0.054 A 
ATOM      9  C   UNL     1       7.909  -1.610  -2.750  1.00  0.00     0.051 A 
ATOM     10  C   UNL     1       8.256  -2.526  -0.578  1.00  0.00     0.166 A 
ATOM     11  C   UNL     1       8.248  -2.693  -1.945  1.00  0.00     0.165 A 
ATOM     12  O   UNL     1       8.619  -3.728  -0.010  1.00  0.00    -0.454 OA
ATOM     13  O   UNL     1       8.611  -4.007  -2.190  1.00  0.00    -0.454 OA
ATOM     14  C   UNL     1       8.943  -4.674  -0.996  1.00  0.00     0.468 C 
ENDBRANCH   5   6
ENDBRANCH   1   5
TORSDOF 3
ENDMDL
MODEL 3
REMARK VINA RESULT:      -7.2      2.094      2.619
REMARK SMILES CC(=O)CCc1ccc2c(c1)OCO2
REMARK SMILES IDX 4 1 2 2 1 3 3 4 5 5 6 6 7 7 11 8 8 9 10 10 9 11 12 12 14 13
REMARK SMILES IDX 13 14
REMARK H PARENT
REMARK Flexibility Score: inf
ROOT
ATOM      1  C   UNL     1       5.651   0.067   1.944  1.00  0.00     0.080 C 
ENDROOT
BRANCH   1   2
ATOM      2  C   UNL     1       4.707   1.170   1.609  1.00  0.00     0.130 C 
ATOM      3  C   UNL     1       4.948   2.081   0.459  1.00  0.00     0.087 C 
ATOM      4  O   UNL     1       3.703   1.359   2.276  1.00  0.00    -0.300 OA
ENDBRANCH   1   2
BRANCH   1   5
ATOM      5  C   UNL     1       7.035   0.339   1.390  1.00  0.00     0.043 C 
BRANCH   5   6
ATOM      6  C   UNL     1       7.422  -0.656   0.373  1.00  0.00    -0.044 A 
ATOM      7  C   UNL     1       7.311  -0.386  -0.996  1.00  0.00     0.008 A 
ATOM      8  C   UNL     1       7.907  -1.882   0.768  1.00  0.00     0.054 A 
ATOM      9  C   UNL     1       7.690  -1.357  -1.904  1.00  0.00     0.051 A 
ATOM     10  C   UNL     1       8.290  -2.860  -0.154  1.00  0.00     0.166 A 
ATOM     11  C   UNL     1       8.180  -2.596  -1.501  1.00  0.00     0.165 A 
ATOM     12  O   UNL     1       8.793  -4.136  -0.016  1.00  0.00    -0.454 OA
ATOM     13  O   UNL     1       8.624  -3.726  -2.169  1.00  0.00    -0.454 OA
ATOM     14  C   UNL     1       9.107  -4.693  -1.267  1.00  0.00     0.468 C 
ENDBRANCH   5   6
ENDBRANCH   1   5
TORSDOF 3
ENDMDL
MODEL 4
REMARK VINA RESULT:      -7.0      1.242      1.449
REMARK SMILES CC(=O)CCc1ccc2c(c1)OCO2
REMARK SMILES IDX 4 1 2 2 1 3 3 4 5 5 6 6 7 7 11 8 8 9 10 10 9 11 12 12 14 13
REMARK SMILES IDX 13 14
REMARK H PARENT
REMARK Flexibility Score: inf
ROOT
ATOM      1  C   UNL     1       6.329   1.281   0.842  1.00  0.00     0.080 C 
ENDROOT
BRANCH   1   2
ATOM      2  C   UNL     1       5.659   0.468   1.895  1.00  0.00     0.130 C 
ATOM      3  C   UNL     1       6.296  -0.748   2.467  1.00  0.00     0.087 C 
ATOM      4  O   UNL     1       4.559   0.780   2.321  1.00  0.00    -0.300 OA
ENDBRANCH   1   2
BRANCH   1   5
ATOM      5  C   UNL     1       5.825   0.915  -0.540  1.00  0.00     0.043 C 
BRANCH   5   6
ATOM      6  C   UNL     1       6.804   0.100  -1.281  1.00  0.00    -0.044 A 
ATOM      7  C   UNL     1       7.531   0.625  -2.355  1.00  0.00     0.008 A 
ATOM      8  C   UNL     1       7.017  -1.210  -0.915  1.00  0.00     0.054 A 
ATOM      9  C   UNL     1       8.437  -0.187  -3.013  1.00  0.00     0.051 A 
ATOM     10  C   UNL     1       7.935  -2.027  -1.583  1.00  0.00     0.166 A 
ATOM     11  C   UNL     1       8.650  -1.511  -2.641  1.00  0.00     0.165 A 
ATOM     12  O   UNL     1       8.321  -3.339  -1.414  1.00  0.00    -0.454 OA
ATOM     13  O   UNL     1       9.470  -2.528  -3.104  1.00  0.00    -0.454 OA
ATOM     14  C   UNL     1       9.360  -3.677  -2.297  1.00  0.00     0.468 C 
ENDBRANCH   5   6
ENDBRANCH   1   5
TORSDOF 3
ENDMDL
MODEL 5
REMARK VINA RESULT:      -6.8      1.251      1.747
REMARK SMILES CC(=O)CCc1ccc2c(c1)OCO2
REMARK SMILES IDX 4 1 2 2 1 3 3 4 5 5 6 6 7 7 11 8 8 9 10 10 9 11 12 12 14 13
REMARK SMILES IDX 13 14
REMARK H PARENT
REMARK Flexibility Score: inf
ROOT
ATOM      1  C   UNL     1       5.331  -0.098   1.929  1.00  0.00     0.080 C 
ENDROOT
BRANCH   1   2
ATOM      2  C   UNL     1       4.457   1.099   1.776  1.00  0.00     0.130 C 
ATOM      3  C   UNL     1       4.742   2.150   0.762  1.00  0.00     0.087 C 
ATOM      4  O   UNL     1       3.476   1.253   2.485  1.00  0.00    -0.300 OA
ENDBRANCH   1   2
BRANCH   1   5
ATOM      5  C   UNL     1       6.798   0.282   1.882  1.00  0.00     0.043 C 
BRANCH   5   6
ATOM      6  C   UNL     1       7.412  -0.067   0.589  1.00  0.00    -0.044 A 
ATOM      7  C   UNL     1       7.928   0.913  -0.266  1.00  0.00     0.008 A 
ATOM      8  C   UNL     1       7.487  -1.386   0.203  1.00  0.00     0.054 A 
ATOM      9  C   UNL     1       8.494   0.526  -1.467  1.00  0.00     0.051 A 
ATOM     10  C   UNL     1       8.060  -1.773  -1.012  1.00  0.00     0.166 A 
ATOM     11  C   UNL     1       8.568  -0.809  -1.854  1.00  0.00     0.165 A 
ATOM     12  O   UNL     1       8.251  -2.999  -1.613  1.00  0.00    -0.454 OA
ATOM     13  O   UNL     1       9.065  -1.470  -2.966  1.00  0.00    -0.454 OA
ATOM     14  C   UNL     1       8.967  -2.866  -2.814  1.00  0.00     0.468 C 
ENDBRANCH   5   6
ENDBRANCH   1   5
TORSDOF 3
ENDMDL
