@<TRIPOS>MOLECULE
/home/cewinharhar/GITHUB/reincatalyze/data/processed/docking_pred/2023-May-24-1506_sub9_nm5_bs15_s42_ex16_mel10_mts10000_k50_ec02_g099_lra3e-4_lrc3e-3/ff0363d9ee1910d446632d9597fe578fef33cb13_ligand_9.pdbqt
 14 15 0 0 0
SMALL
GASTEIGER

@<TRIPOS>ATOM
      1  C          5.3310   -0.0980    1.9290 C.3     1  UNL1        0.0800
      2  C          4.4570    1.0990    1.7760 C.2     1  UNL1        0.1300
      3  C          4.7420    2.1500    0.7620 C.3     1  UNL1        0.0870
      4  O          3.4760    1.2530    2.4850 O.2     1  UNL1       -0.3000
      5  C          6.7980    0.2820    1.8820 C.3     1  UNL1        0.0430
      6  C          7.4120   -0.0670    0.5890 C.2     1  UNL1       -0.0440
      7  C          7.9280    0.9130   -0.2660 C.2     1  UNL1        0.0080
      8  C          7.4870   -1.3860    0.2030 C.2     1  UNL1        0.0540
      9  C          8.4940    0.5260   -1.4670 C.2     1  UNL1        0.0510
     10  C          8.0600   -1.7730   -1.0120 C.2     1  UNL1        0.1660
     11  C          8.5680   -0.8090   -1.8540 C.2     1  UNL1        0.1650
     12  O          8.2510   -2.9990   -1.6130 O.2     1  UNL1       -0.4540
     13  O          9.0650   -1.4700   -2.9660 O.2     1  UNL1       -0.4540
     14  C          8.9670   -2.8660   -2.8140 C.3     1  UNL1        0.4680
@<TRIPOS>BOND
     1    13    14    1
     2    13    11    1
     3    14    12    1
     4    11     9    2
     5    11    10    1
     6    12    10    1
     7     9     7    1
     8    10     8    2
     9     7     6    2
    10     8     6    1
    11     6     5    1
    12     3     2    1
    13     2     1    1
    14     2     4    2
    15     5     1    1
