@<TRIPOS>MOLECULE
/home/cewinharhar/GITHUB/reincatalyze/data/processed/docking_pred/2023-May-24-1506_sub9_nm5_bs15_s42_ex16_mel10_mts10000_k50_ec02_g099_lra3e-4_lrc3e-3/ff0363d9ee1910d446632d9597fe578fef33cb13_ligand_9.pdbqt
 14 15 0 0 0
SMALL
GASTEIGER

@<TRIPOS>ATOM
      1  C          6.3290    1.2810    0.8420 C.3     1  UNL1        0.0800
      2  C          5.6590    0.4680    1.8950 C.2     1  UNL1        0.1300
      3  C          6.2960   -0.7480    2.4670 C.3     1  UNL1        0.0870
      4  O          4.5590    0.7800    2.3210 O.2     1  UNL1       -0.3000
      5  C          5.8250    0.9150   -0.5400 C.3     1  UNL1        0.0430
      6  C          6.8040    0.1000   -1.2810 C.2     1  UNL1       -0.0440
      7  C          7.5310    0.6250   -2.3550 C.2     1  UNL1        0.0080
      8  C          7.0170   -1.2100   -0.9150 C.2     1  UNL1        0.0540
      9  C          8.4370   -0.1870   -3.0130 C.2     1  UNL1        0.0510
     10  C          7.9350   -2.0270   -1.5830 C.2     1  UNL1        0.1660
     11  C          8.6500   -1.5110   -2.6410 C.2     1  UNL1        0.1650
     12  O          8.3210   -3.3390   -1.4140 O.2     1  UNL1       -0.4540
     13  O          9.4700   -2.5280   -3.1040 O.2     1  UNL1       -0.4540
     14  C          9.3600   -3.6770   -2.2970 C.3     1  UNL1        0.4680
@<TRIPOS>BOND
     1    13    11    1
     2    13    14    1
     3     9    11    2
     4     9     7    1
     5    11    10    1
     6     7     6    2
     7    14    12    1
     8    10    12    1
     9    10     8    2
    10     6     8    1
    11     6     5    1
    12     5     1    1
    13     1     2    1
    14     2     4    2
    15     2     3    1
