@<TRIPOS>MOLECULE
/home/cewinharhar/GITHUB/reincatalyze/data/processed/docking_pred/2023-May-25-1902_sub9_nm5_bs15_s42_ex16_mel10_mts10000_k50_ec01_g099_lra3e-4_lrc3e-3/00fabcb6e86abbd64330e8a307762c5d347247e8_ligand_9.pdbqt
 14 15 0 0 0
SMALL
GASTEIGER

@<TRIPOS>ATOM
      1  C          8.7650   -4.7820   -0.3890 C.3     1  UNL1        0.0800
      2  C          9.5100   -4.6940   -1.6750 C.2     1  UNL1        0.1300
      3  C         10.3280   -5.8280   -2.1830 C.3     1  UNL1        0.0870
      4  O          9.4700   -3.6810   -2.3550 O.2     1  UNL1       -0.3000
      5  C          9.5060   -4.0700    0.7260 C.3     1  UNL1        0.0430
      6  C          8.8500   -2.8040    1.0970 C.2     1  UNL1       -0.0440
      7  C          9.5730   -1.6120    1.2180 C.2     1  UNL1        0.0080
      8  C          7.4940   -2.7810    1.3310 C.2     1  UNL1        0.0540
      9  C          8.9040   -0.4530    1.5680 C.2     1  UNL1        0.0510
     10  C          6.8210   -1.6070    1.6840 C.2     1  UNL1        0.1660
     11  C          7.5320   -0.4340    1.8040 C.2     1  UNL1        0.1650
     12  O          5.5010   -1.3290    1.9650 O.2     1  UNL1       -0.4540
     13  O          6.6240    0.5510    2.1590 O.2     1  UNL1       -0.4540
     14  C          5.3100    0.0460    2.1830 C.3     1  UNL1        0.4680
@<TRIPOS>BOND
     1     4     2    2
     2     3     2    1
     3     2     1    1
     4     1     5    1
     5     5     6    1
     6     6     7    2
     7     6     8    1
     8     7     9    1
     9     8    10    2
    10     9    11    2
    11    10    11    1
    12    10    12    1
    13    11    13    1
    14    12    14    1
    15    13    14    1
