@<TRIPOS>MOLECULE
/home/cewinharhar/GITHUB/reincatalyze/data/processed/docking_pred/2023-May-25-1902_sub9_nm5_bs15_s42_ex16_mel10_mts10000_k50_ec01_g099_lra3e-4_lrc3e-3/00fabcb6e86abbd64330e8a307762c5d347247e8_ligand_9.pdbqt
 14 15 0 0 0
SMALL
GASTEIGER

@<TRIPOS>ATOM
      1  C          8.9950   -2.5690    0.8660 C.3     1  UNL1        0.0800
      2  C          9.4260   -3.9710    0.6080 C.2     1  UNL1        0.1300
      3  C          8.9470   -4.7290   -0.5790 C.3     1  UNL1        0.0870
      4  O         10.1890   -4.5420    1.3700 O.2     1  UNL1       -0.3000
      5  C          7.9320   -2.5090    1.9460 C.3     1  UNL1        0.0430
      6  C          7.1980   -1.2320    1.9200 C.2     1  UNL1       -0.0440
      7  C          7.8490   -0.0170    1.6790 C.2     1  UNL1        0.0080
      8  C          5.8380   -1.2220    2.1340 C.2     1  UNL1        0.0540
      9  C          7.1070    1.1510    1.6660 C.2     1  UNL1        0.0510
     10  C          5.0930   -0.0390    2.1190 C.2     1  UNL1        0.1660
     11  C          5.7330    1.1570    1.8830 C.2     1  UNL1        0.1650
     12  O          3.7530    0.2290    2.3020 O.2     1  UNL1       -0.4540
     13  O          4.7620    2.1460    1.9250 O.2     1  UNL1       -0.4540
     14  C          3.4800    1.5920    2.0980 C.3     1  UNL1        0.4680
@<TRIPOS>BOND
     1     3     2    1
     2     2     1    1
     3     2     4    2
     4     1     5    1
     5     9     7    1
     6     9    11    2
     7     7     6    2
     8    11    13    1
     9    11    10    1
    10     6     5    1
    11     6     8    1
    12    13    14    1
    13    14    12    1
    14    10     8    2
    15    10    12    1
