@<TRIPOS>MOLECULE
/home/cewinharhar/GITHUB/reincatalyze/data/processed/docking_pred/2023-May-25-1902_sub9_nm5_bs15_s42_ex16_mel10_mts10000_k50_ec01_g099_lra3e-4_lrc3e-3/00fabcb6e86abbd64330e8a307762c5d347247e8_ligand_9.pdbqt
 14 15 0 0 0
SMALL
GASTEIGER

@<TRIPOS>ATOM
      1  C          2.0840   -7.6960   -0.5820 C.3     1  UNL1        0.0800
      2  C          2.3070   -6.2500   -0.3040 C.2     1  UNL1        0.1300
      3  C          2.1250   -5.2150   -1.3560 C.3     1  UNL1        0.0870
      4  O          2.6490   -5.8710    0.8050 O.2     1  UNL1       -0.3000
      5  C          2.7260   -8.5670    0.4800 C.3     1  UNL1        0.0430
      6  C          1.8680   -9.7090    0.8420 C.2     1  UNL1       -0.0440
      7  C          2.4080  -10.9100    1.3170 C.2     1  UNL1        0.0080
      8  C          0.5010   -9.6030    0.7160 C.2     1  UNL1        0.0540
      9  C          1.5530  -11.9480    1.6420 C.2     1  UNL1        0.0510
     10  C         -0.3580  -10.6550    1.0460 C.2     1  UNL1        0.1660
     11  C          0.1720  -11.8370    1.5130 C.2     1  UNL1        0.1650
     12  O         -1.7300  -10.7950    1.0090 O.2     1  UNL1       -0.4540
     13  O         -0.8960  -12.6870    1.7560 O.2     1  UNL1       -0.4540
     14  C         -2.1240  -12.0350    1.5370 C.3     1  UNL1        0.4680
@<TRIPOS>BOND
     1     3     2    1
     2     1     2    1
     3     1     5    1
     4     2     4    2
     5     5     6    1
     6     8     6    2
     7     8    10    1
     8     6     7    1
     9    12    10    1
    10    12    14    1
    11    10    11    2
    12     7     9    2
    13    11     9    1
    14    11    13    1
    15    14    13    1
