@<TRIPOS>MOLECULE
/home/cewinharhar/GITHUB/reincatalyze/data/processed/docking_pred/2023-May-25-1902_sub9_nm5_bs15_s42_ex16_mel10_mts10000_k50_ec01_g099_lra3e-4_lrc3e-3/00fabcb6e86abbd64330e8a307762c5d347247e8_ligand_9.pdbqt
 14 15 0 0 0
SMALL
GASTEIGER

@<TRIPOS>ATOM
      1  C          6.5410    2.1500    1.3970 C.3     1  UNL1        0.0800
      2  C          5.1730    2.0340    0.8190 C.2     1  UNL1        0.1300
      3  C          4.9320    2.1370   -0.6450 C.3     1  UNL1        0.0870
      4  O          4.2030    1.8490    1.5370 O.2     1  UNL1       -0.3000
      5  C          6.7280    1.2010    2.5640 C.3     1  UNL1        0.0430
      6  C          6.9990   -0.1750    2.1110 C.2     1  UNL1       -0.0440
      7  C          5.9700   -1.1080    1.9430 C.2     1  UNL1        0.0080
      8  C          8.2920   -0.5620    1.8410 C.2     1  UNL1        0.0540
      9  C          6.2840   -2.3850    1.5140 C.2     1  UNL1        0.0510
     10  C          8.6050   -1.8540    1.4070 C.2     1  UNL1        0.1660
     11  C          7.5930   -2.7730    1.2430 C.2     1  UNL1        0.1650
     12  O          9.7920   -2.4740    1.0800 O.2     1  UNL1       -0.4540
     13  O          8.1850   -3.9500    0.8120 O.2     1  UNL1       -0.4540
     14  C          9.5670   -3.7770    0.6080 C.3     1  UNL1        0.4680
@<TRIPOS>BOND
     1     3     2    1
     2    14    13    1
     3    14    12    1
     4    13    11    1
     5     2     1    1
     6     2     4    2
     7    12    10    1
     8    11    10    2
     9    11     9    1
    10     1     5    1
    11    10     8    1
    12     9     7    2
    13     8     6    2
    14     7     6    1
    15     6     5    1
