MODEL 1
REMARK VINA RESULT:       1.0      0.000      0.000
REMARK SMILES CC(=O)CCc1ccc2c(c1)OCO2
REMARK SMILES IDX 4 1 2 2 1 3 3 4 5 5 6 6 7 7 11 8 8 9 10 10 9 11 12 12 14 13
REMARK SMILES IDX 13 14
REMARK H PARENT
REMARK Flexibility Score: inf
ROOT
ATOM      1  C   UNL     1       6.541   2.150   1.397  1.00  0.00     0.080 C 
ENDROOT
BRANCH   1   2
ATOM      2  C   UNL     1       5.173   2.034   0.819  1.00  0.00     0.130 C 
ATOM      3  C   UNL     1       4.932   2.137  -0.645  1.00  0.00     0.087 C 
ATOM      4  O   UNL     1       4.203   1.849   1.537  1.00  0.00    -0.300 OA
ENDBRANCH   1   2
BRANCH   1   5
ATOM      5  C   UNL     1       6.728   1.201   2.564  1.00  0.00     0.043 C 
BRANCH   5   6
ATOM      6  C   UNL     1       6.999  -0.175   2.111  1.00  0.00    -0.044 A 
ATOM      7  C   UNL     1       5.970  -1.108   1.943  1.00  0.00     0.008 A 
ATOM      8  C   UNL     1       8.292  -0.562   1.841  1.00  0.00     0.054 A 
ATOM      9  C   UNL     1       6.284  -2.385   1.514  1.00  0.00     0.051 A 
ATOM     10  C   UNL     1       8.605  -1.854   1.407  1.00  0.00     0.166 A 
ATOM     11  C   UNL     1       7.593  -2.773   1.243  1.00  0.00     0.165 A 
ATOM     12  O   UNL     1       9.792  -2.474   1.080  1.00  0.00    -0.454 OA
ATOM     13  O   UNL     1       8.185  -3.950   0.812  1.00  0.00    -0.454 OA
ATOM     14  C   UNL     1       9.567  -3.777   0.608  1.00  0.00     0.468 C 
ENDBRANCH   5   6
ENDBRANCH   1   5
TORSDOF 3
ENDMDL
MODEL 2
REMARK VINA RESULT:       1.2      2.162      5.761
REMARK SMILES CC(=O)CCc1ccc2c(c1)OCO2
REMARK SMILES IDX 4 1 2 2 1 3 3 4 5 5 6 6 7 7 11 8 8 9 10 10 9 11 12 12 14 13
REMARK SMILES IDX 13 14
REMARK H PARENT
REMARK Flexibility Score: inf
ROOT
ATOM      1  C   UNL     1       8.765  -4.782  -0.389  1.00  0.00     0.080 C 
ENDROOT
BRANCH   1   2
ATOM      2  C   UNL     1       9.510  -4.694  -1.675  1.00  0.00     0.130 C 
ATOM      3  C   UNL     1      10.328  -5.828  -2.183  1.00  0.00     0.087 C 
ATOM      4  O   UNL     1       9.470  -3.681  -2.355  1.00  0.00    -0.300 OA
ENDBRANCH   1   2
BRANCH   1   5
ATOM      5  C   UNL     1       9.506  -4.070   0.726  1.00  0.00     0.043 C 
BRANCH   5   6
ATOM      6  C   UNL     1       8.850  -2.804   1.097  1.00  0.00    -0.044 A 
ATOM      7  C   UNL     1       9.573  -1.612   1.218  1.00  0.00     0.008 A 
ATOM      8  C   UNL     1       7.494  -2.781   1.331  1.00  0.00     0.054 A 
ATOM      9  C   UNL     1       8.904  -0.453   1.568  1.00  0.00     0.051 A 
ATOM     10  C   UNL     1       6.821  -1.607   1.684  1.00  0.00     0.166 A 
ATOM     11  C   UNL     1       7.532  -0.434   1.804  1.00  0.00     0.165 A 
ATOM     12  O   UNL     1       5.501  -1.329   1.965  1.00  0.00    -0.454 OA
ATOM     13  O   UNL     1       6.624   0.551   2.159  1.00  0.00    -0.454 OA
ATOM     14  C   UNL     1       5.310   0.046   2.183  1.00  0.00     0.468 C 
ENDBRANCH   5   6
ENDBRANCH   1   5
TORSDOF 3
ENDMDL
MODEL 3
REMARK VINA RESULT:       1.4      3.235      4.159
REMARK SMILES CC(=O)CCc1ccc2c(c1)OCO2
REMARK SMILES IDX 4 1 2 2 1 3 3 4 5 5 6 6 7 7 11 8 8 9 10 10 9 11 12 12 14 13
REMARK SMILES IDX 13 14
REMARK H PARENT
REMARK Flexibility Score: inf
ROOT
ATOM      1  C   UNL     1       1.955  -0.068   3.084  1.00  0.00     0.080 C 
ENDROOT
BRANCH   1   2
ATOM      2  C   UNL     1       0.478   0.123   3.102  1.00  0.00     0.130 C 
ATOM      3  C   UNL     1      -0.172   1.254   2.387  1.00  0.00     0.087 C 
ATOM      4  O   UNL     1      -0.246  -0.649   3.709  1.00  0.00    -0.300 OA
ENDBRANCH   1   2
BRANCH   1   5
ATOM      5  C   UNL     1       2.649   1.076   2.372  1.00  0.00     0.043 C 
BRANCH   5   6
ATOM      6  C   UNL     1       4.076   0.789   2.139  1.00  0.00    -0.044 A 
ATOM      7  C   UNL     1       4.989   1.807   1.840  1.00  0.00     0.008 A 
ATOM      8  C   UNL     1       4.533  -0.507   2.216  1.00  0.00     0.054 A 
ATOM      9  C   UNL     1       6.316   1.478   1.632  1.00  0.00     0.051 A 
ATOM     10  C   UNL     1       5.876  -0.834   2.006  1.00  0.00     0.166 A 
ATOM     11  C   UNL     1       6.775   0.166   1.711  1.00  0.00     0.165 A 
ATOM     12  O   UNL     1       6.566  -2.028   2.025  1.00  0.00    -0.454 OA
ATOM     13  O   UNL     1       8.012  -0.439   1.555  1.00  0.00    -0.454 OA
ATOM     14  C   UNL     1       7.942  -1.817   1.835  1.00  0.00     0.468 C 
ENDBRANCH   5   6
ENDBRANCH   1   5
TORSDOF 3
ENDMDL
MODEL 4
REMARK VINA RESULT:       1.7      1.400      5.751
REMARK SMILES CC(=O)CCc1ccc2c(c1)OCO2
REMARK SMILES IDX 4 1 2 2 1 3 3 4 5 5 6 6 7 7 11 8 8 9 10 10 9 11 12 12 14 13
REMARK SMILES IDX 13 14
REMARK H PARENT
REMARK Flexibility Score: inf
ROOT
ATOM      1  C   UNL     1       8.995  -2.569   0.866  1.00  0.00     0.080 C 
ENDROOT
BRANCH   1   2
ATOM      2  C   UNL     1       9.426  -3.971   0.608  1.00  0.00     0.130 C 
ATOM      3  C   UNL     1       8.947  -4.729  -0.579  1.00  0.00     0.087 C 
ATOM      4  O   UNL     1      10.189  -4.542   1.370  1.00  0.00    -0.300 OA
ENDBRANCH   1   2
BRANCH   1   5
ATOM      5  C   UNL     1       7.932  -2.509   1.946  1.00  0.00     0.043 C 
BRANCH   5   6
ATOM      6  C   UNL     1       7.198  -1.232   1.920  1.00  0.00    -0.044 A 
ATOM      7  C   UNL     1       7.849  -0.017   1.679  1.00  0.00     0.008 A 
ATOM      8  C   UNL     1       5.838  -1.222   2.134  1.00  0.00     0.054 A 
ATOM      9  C   UNL     1       7.107   1.151   1.666  1.00  0.00     0.051 A 
ATOM     10  C   UNL     1       5.093  -0.039   2.119  1.00  0.00     0.166 A 
ATOM     11  C   UNL     1       5.733   1.157   1.883  1.00  0.00     0.165 A 
ATOM     12  O   UNL     1       3.753   0.229   2.302  1.00  0.00    -0.454 OA
ATOM     13  O   UNL     1       4.762   2.146   1.925  1.00  0.00    -0.454 OA
ATOM     14  C   UNL     1       3.480   1.592   2.098  1.00  0.00     0.468 C 
ENDBRANCH   5   6
ENDBRANCH   1   5
TORSDOF 3
ENDMDL
MODEL 5
REMARK VINA RESULT:       1.7      9.538     11.300
REMARK SMILES CC(=O)CCc1ccc2c(c1)OCO2
REMARK SMILES IDX 4 1 2 2 1 3 3 4 5 5 6 6 7 7 11 8 8 9 10 10 9 11 12 12 14 13
REMARK SMILES IDX 13 14
REMARK H PARENT
REMARK Flexibility Score: inf
ROOT
ATOM      1  C   UNL     1       2.084  -7.696  -0.582  1.00  0.00     0.080 C 
ENDROOT
BRANCH   1   2
ATOM      2  C   UNL     1       2.307  -6.250  -0.304  1.00  0.00     0.130 C 
ATOM      3  C   UNL     1       2.125  -5.215  -1.356  1.00  0.00     0.087 C 
ATOM      4  O   UNL     1       2.649  -5.871   0.805  1.00  0.00    -0.300 OA
ENDBRANCH   1   2
BRANCH   1   5
ATOM      5  C   UNL     1       2.726  -8.567   0.480  1.00  0.00     0.043 C 
BRANCH   5   6
ATOM      6  C   UNL     1       1.868  -9.709   0.842  1.00  0.00    -0.044 A 
ATOM      7  C   UNL     1       2.408 -10.910   1.317  1.00  0.00     0.008 A 
ATOM      8  C   UNL     1       0.501  -9.603   0.716  1.00  0.00     0.054 A 
ATOM      9  C   UNL     1       1.553 -11.948   1.642  1.00  0.00     0.051 A 
ATOM     10  C   UNL     1      -0.358 -10.655   1.046  1.00  0.00     0.166 A 
ATOM     11  C   UNL     1       0.172 -11.837   1.513  1.00  0.00     0.165 A 
ATOM     12  O   UNL     1      -1.730 -10.795   1.009  1.00  0.00    -0.454 OA
ATOM     13  O   UNL     1      -0.896 -12.687   1.756  1.00  0.00    -0.454 OA
ATOM     14  C   UNL     1      -2.124 -12.035   1.537  1.00  0.00     0.468 C 
ENDBRANCH   5   6
ENDBRANCH   1   5
TORSDOF 3
ENDMDL
