@<TRIPOS>MOLECULE
/home/cewinharhar/GITHUB/reincatalyze/data/processed/docking_pred/2023-May-25-1902_sub9_nm5_bs15_s42_ex16_mel10_mts10000_k50_ec01_g099_lra3e-4_lrc3e-3/01f25cbd7413d58f388abe94d9cfceb48e05f66f_ligand_9.pdbqt
 14 15 0 0 0
SMALL
GASTEIGER

@<TRIPOS>ATOM
      1  C          5.4180   -0.0660    2.0020 C.3     1  UNL1        0.0800
      2  C          4.5570    1.1210    1.7410 C.2     1  UNL1        0.1300
      3  C          4.8960    2.1150    0.6880 C.3     1  UNL1        0.0870
      4  O          3.5410    1.3140    2.3900 O.2     1  UNL1       -0.3000
      5  C          6.8510    0.1900    1.5780 C.3     1  UNL1        0.0430
      6  C          7.2820   -0.7410    0.5200 C.2     1  UNL1       -0.0440
      7  C          7.1330   -0.4280   -0.8360 C.2     1  UNL1        0.0080
      8  C          7.8470   -1.9480    0.8610 C.2     1  UNL1        0.0540
      9  C          7.5570   -1.3400   -1.7860 C.2     1  UNL1        0.0510
     10  C          8.2740   -2.8660   -0.1020 C.2     1  UNL1        0.1660
     11  C          8.1270   -2.5600   -1.4370 C.2     1  UNL1        0.1650
     12  O          8.8570   -4.1130   -0.0190 O.2     1  UNL1       -0.4540
     13  O          8.6290   -3.6350   -2.1530 O.2     1  UNL1       -0.4540
     14  C          9.1840   -4.6030   -1.2940 C.3     1  UNL1        0.4680
@<TRIPOS>BOND
     1    13    11    1
     2    13    14    1
     3     9    11    2
     4     9     7    1
     5    11    10    1
     6    14    12    1
     7     7     6    2
     8    10    12    1
     9    10     8    2
    10     6     8    1
    11     6     5    1
    12     3     2    1
    13     5     1    1
    14     2     1    1
    15     2     4    2
