MODEL 1
REMARK VINA RESULT:      -7.6      0.000      0.000
REMARK SMILES CC(=O)CCc1ccc2c(c1)OCO2
REMARK SMILES IDX 4 1 2 2 1 3 3 4 5 5 6 6 7 7 11 8 8 9 10 10 9 11 12 12 14 13
REMARK SMILES IDX 13 14
REMARK H PARENT
REMARK Flexibility Score: inf
ROOT
ATOM      1  C   UNL     1       5.526   1.923   1.263  1.00  0.00     0.080 C 
ENDROOT
BRANCH   1   2
ATOM      2  C   UNL     1       5.089   0.707   2.004  1.00  0.00     0.130 C 
ATOM      3  C   UNL     1       5.985  -0.468   2.174  1.00  0.00     0.087 C 
ATOM      4  O   UNL     1       3.975   0.640   2.496  1.00  0.00    -0.300 OA
ENDBRANCH   1   2
BRANCH   1   5
ATOM      5  C   UNL     1       5.400   1.730  -0.235  1.00  0.00     0.043 C 
BRANCH   5   6
ATOM      6  C   UNL     1       6.570   1.031  -0.796  1.00  0.00    -0.044 A 
ATOM      7  C   UNL     1       7.876   1.463  -0.539  1.00  0.00     0.008 A 
ATOM      8  C   UNL     1       6.385  -0.078  -1.591  1.00  0.00     0.054 A 
ATOM      9  C   UNL     1       8.935   0.767  -1.092  1.00  0.00     0.051 A 
ATOM     10  C   UNL     1       7.459  -0.779  -2.148  1.00  0.00     0.166 A 
ATOM     11  C   UNL     1       8.744  -0.353  -1.896  1.00  0.00     0.165 A 
ATOM     12  O   UNL     1       7.536  -1.891  -2.959  1.00  0.00    -0.454 OA
ATOM     13  O   UNL     1       9.593  -1.222  -2.564  1.00  0.00    -0.454 OA
ATOM     14  C   UNL     1       8.872  -2.265  -3.176  1.00  0.00     0.468 C 
ENDBRANCH   5   6
ENDBRANCH   1   5
TORSDOF 3
ENDMDL
MODEL 2
REMARK VINA RESULT:      -7.4      1.922      2.400
REMARK SMILES CC(=O)CCc1ccc2c(c1)OCO2
REMARK SMILES IDX 4 1 2 2 1 3 3 4 5 5 6 6 7 7 11 8 8 9 10 10 9 11 12 12 14 13
REMARK SMILES IDX 13 14
REMARK H PARENT
REMARK Flexibility Score: inf
ROOT
ATOM      1  C   UNL     1       5.759   1.366  -0.306  1.00  0.00     0.080 C 
ENDROOT
BRANCH   1   2
ATOM      2  C   UNL     1       5.101   1.273   1.027  1.00  0.00     0.130 C 
ATOM      3  C   UNL     1       5.335   0.118   1.935  1.00  0.00     0.087 C 
ATOM      4  O   UNL     1       4.346   2.150   1.415  1.00  0.00    -0.300 OA
ENDBRANCH   1   2
BRANCH   1   5
ATOM      5  C   UNL     1       7.244   1.080  -0.208  1.00  0.00     0.043 C 
BRANCH   5   6
ATOM      6  C   UNL     1       7.597  -0.204  -0.840  1.00  0.00    -0.044 A 
ATOM      7  C   UNL     1       7.589  -0.364  -2.230  1.00  0.00     0.008 A 
ATOM      8  C   UNL     1       7.946  -1.278  -0.053  1.00  0.00     0.054 A 
ATOM      9  C   UNL     1       7.929  -1.592  -2.767  1.00  0.00     0.051 A 
ATOM     10  C   UNL     1       8.291  -2.518  -0.601  1.00  0.00     0.166 A 
ATOM     11  C   UNL     1       8.282  -2.676  -1.969  1.00  0.00     0.165 A 
ATOM     12  O   UNL     1       8.668  -3.720  -0.041  1.00  0.00    -0.454 OA
ATOM     13  O   UNL     1       8.659  -3.985  -2.223  1.00  0.00    -0.454 OA
ATOM     14  C   UNL     1       9.000  -4.656  -1.034  1.00  0.00     0.468 C 
ENDBRANCH   5   6
ENDBRANCH   1   5
TORSDOF 3
ENDMDL
MODEL 3
REMARK VINA RESULT:      -7.2      2.066      2.640
REMARK SMILES CC(=O)CCc1ccc2c(c1)OCO2
REMARK SMILES IDX 4 1 2 2 1 3 3 4 5 5 6 6 7 7 11 8 8 9 10 10 9 11 12 12 14 13
REMARK SMILES IDX 13 14
REMARK H PARENT
REMARK Flexibility Score: inf
ROOT
ATOM      1  C   UNL     1       5.418  -0.066   2.002  1.00  0.00     0.080 C 
ENDROOT
BRANCH   1   2
ATOM      2  C   UNL     1       4.557   1.121   1.741  1.00  0.00     0.130 C 
ATOM      3  C   UNL     1       4.896   2.115   0.688  1.00  0.00     0.087 C 
ATOM      4  O   UNL     1       3.541   1.314   2.390  1.00  0.00    -0.300 OA
ENDBRANCH   1   2
BRANCH   1   5
ATOM      5  C   UNL     1       6.851   0.190   1.578  1.00  0.00     0.043 C 
BRANCH   5   6
ATOM      6  C   UNL     1       7.282  -0.741   0.520  1.00  0.00    -0.044 A 
ATOM      7  C   UNL     1       7.133  -0.428  -0.836  1.00  0.00     0.008 A 
ATOM      8  C   UNL     1       7.847  -1.948   0.861  1.00  0.00     0.054 A 
ATOM      9  C   UNL     1       7.557  -1.340  -1.786  1.00  0.00     0.051 A 
ATOM     10  C   UNL     1       8.274  -2.866  -0.102  1.00  0.00     0.166 A 
ATOM     11  C   UNL     1       8.127  -2.560  -1.437  1.00  0.00     0.165 A 
ATOM     12  O   UNL     1       8.857  -4.113  -0.019  1.00  0.00    -0.454 OA
ATOM     13  O   UNL     1       8.629  -3.635  -2.153  1.00  0.00    -0.454 OA
ATOM     14  C   UNL     1       9.184  -4.603  -1.294  1.00  0.00     0.468 C 
ENDBRANCH   5   6
ENDBRANCH   1   5
TORSDOF 3
ENDMDL
MODEL 4
REMARK VINA RESULT:      -7.1      1.251      1.465
REMARK SMILES CC(=O)CCc1ccc2c(c1)OCO2
REMARK SMILES IDX 4 1 2 2 1 3 3 4 5 5 6 6 7 7 11 8 8 9 10 10 9 11 12 12 14 13
REMARK SMILES IDX 13 14
REMARK H PARENT
REMARK Flexibility Score: inf
ROOT
ATOM      1  C   UNL     1       6.366   1.237   0.891  1.00  0.00     0.080 C 
ENDROOT
BRANCH   1   2
ATOM      2  C   UNL     1       5.663   0.417   1.917  1.00  0.00     0.130 C 
ATOM      3  C   UNL     1       6.283  -0.804   2.499  1.00  0.00     0.087 C 
ATOM      4  O   UNL     1       4.550   0.725   2.312  1.00  0.00    -0.300 OA
ENDBRANCH   1   2
BRANCH   1   5
ATOM      5  C   UNL     1       5.859   0.927  -0.503  1.00  0.00     0.043 C 
BRANCH   5   6
ATOM      6  C   UNL     1       6.817   0.102  -1.262  1.00  0.00    -0.044 A 
ATOM      7  C   UNL     1       7.523   0.617  -2.354  1.00  0.00     0.008 A 
ATOM      8  C   UNL     1       7.031  -1.206  -0.893  1.00  0.00     0.054 A 
ATOM      9  C   UNL     1       8.410  -0.203  -3.028  1.00  0.00     0.051 A 
ATOM     10  C   UNL     1       7.929  -2.032  -1.577  1.00  0.00     0.166 A 
ATOM     11  C   UNL     1       8.624  -1.526  -2.653  1.00  0.00     0.165 A 
ATOM     12  O   UNL     1       8.312  -3.346  -1.409  1.00  0.00    -0.454 OA
ATOM     13  O   UNL     1       9.428  -2.550  -3.128  1.00  0.00    -0.454 OA
ATOM     14  C   UNL     1       9.329  -3.694  -2.313  1.00  0.00     0.468 C 
ENDBRANCH   5   6
ENDBRANCH   1   5
TORSDOF 3
ENDMDL
MODEL 5
REMARK VINA RESULT:      -6.7      1.186      5.163
REMARK SMILES CC(=O)CCc1ccc2c(c1)OCO2
REMARK SMILES IDX 4 1 2 2 1 3 3 4 5 5 6 6 7 7 11 8 8 9 10 10 9 11 12 12 14 13
REMARK SMILES IDX 13 14
REMARK H PARENT
REMARK Flexibility Score: inf
ROOT
ATOM      1  C   UNL     1       8.341   0.204  -2.666  1.00  0.00     0.080 C 
ENDROOT
BRANCH   1   2
ATOM      2  C   UNL     1       8.040  -1.252  -2.748  1.00  0.00     0.130 C 
ATOM      3  C   UNL     1       9.101  -2.254  -3.033  1.00  0.00     0.087 C 
ATOM      4  O   UNL     1       6.904  -1.668  -2.583  1.00  0.00    -0.300 OA
ENDBRANCH   1   2
BRANCH   1   5
ATOM      5  C   UNL     1       8.863   0.582  -1.294  1.00  0.00     0.043 C 
BRANCH   5   6
ATOM      6  C   UNL     1       7.827   0.436  -0.256  1.00  0.00    -0.044 A 
ATOM      7  C   UNL     1       7.934  -0.524   0.757  1.00  0.00     0.008 A 
ATOM      8  C   UNL     1       6.724   1.260  -0.272  1.00  0.00     0.054 A 
ATOM      9  C   UNL     1       6.931  -0.614   1.705  1.00  0.00     0.051 A 
ATOM     10  C   UNL     1       5.713   1.165   0.689  1.00  0.00     0.166 A 
ATOM     11  C   UNL     1       5.817   0.220   1.685  1.00  0.00     0.165 A 
ATOM     12  O   UNL     1       4.536   1.856   0.885  1.00  0.00    -0.454 OA
ATOM     13  O   UNL     1       4.691   0.353   2.482  1.00  0.00    -0.454 OA
ATOM     14  C   UNL     1       3.897   1.438   2.064  1.00  0.00     0.468 C 
ENDBRANCH   5   6
ENDBRANCH   1   5
TORSDOF 3
ENDMDL
