@<TRIPOS>MOLECULE
/home/cewinharhar/GITHUB/reincatalyze/data/processed/docking_pred/2023-May-25-1902_sub9_nm5_bs15_s42_ex16_mel10_mts10000_k50_ec01_g099_lra3e-4_lrc3e-3/035d1107efb5fe3e99d2a33353f0da4e413613a6_ligand_9.pdbqt
 14 15 0 0 0
SMALL
GASTEIGER

@<TRIPOS>ATOM
      1  C          5.4230   -0.2490    2.1710 C.3     1  UNL1        0.0800
      2  C          4.4800    0.8790    1.9330 C.2     1  UNL1        0.1300
      3  C          4.6860    1.8480    0.8240 C.3     1  UNL1        0.0870
      4  O          3.5040    1.0410    2.6480 O.2     1  UNL1       -0.3000
      5  C          6.8180    0.0850    1.6790 C.3     1  UNL1        0.0430
      6  C          7.2500   -0.8240    0.6030 C.2     1  UNL1       -0.0440
      7  C          7.0890   -0.4910   -0.7470 C.2     1  UNL1        0.0080
      8  C          7.8300   -2.0310    0.9220 C.2     1  UNL1        0.0540
      9  C          7.5150   -1.3840   -1.7130 C.2     1  UNL1        0.0510
     10  C          8.2590   -2.9300   -0.0590 C.2     1  UNL1        0.1660
     11  C          8.1000   -2.6030   -1.3880 C.2     1  UNL1        0.1650
     12  O          8.8540   -4.1720    0.0000 O.2     1  UNL1       -0.4540
     13  O          8.6070   -3.6630   -2.1240 O.2     1  UNL1       -0.4540
     14  C          9.1780   -4.6380   -1.2850 C.3     1  UNL1        0.4680
@<TRIPOS>BOND
     1    13    11    1
     2    13    14    1
     3     9    11    2
     4     9     7    1
     5    11    10    1
     6    14    12    1
     7     7     6    2
     8    10    12    1
     9    10     8    2
    10     6     8    1
    11     6     5    1
    12     3     2    1
    13     5     1    1
    14     2     1    1
    15     2     4    2
