@<TRIPOS>MOLECULE
/home/cewinharhar/GITHUB/reincatalyze/data/processed/docking_pred/2023-May-25-1902_sub9_nm5_bs15_s42_ex16_mel10_mts10000_k50_ec01_g099_lra3e-4_lrc3e-3/035d1107efb5fe3e99d2a33353f0da4e413613a6_ligand_9.pdbqt
 14 15 0 0 0
SMALL
GASTEIGER

@<TRIPOS>ATOM
      1  C          5.2820   -0.1740    2.3180 C.3     1  UNL1        0.0800
      2  C          4.3640    0.9560    2.0020 C.2     1  UNL1        0.1300
      3  C          4.6410    1.8950    0.8820 C.3     1  UNL1        0.0870
      4  O          3.3530    1.1440    2.6570 O.2     1  UNL1       -0.3000
      5  C          6.7180    0.1700    1.9770 C.3     1  UNL1        0.0430
      6  C          7.2630   -0.7260    0.9410 C.2     1  UNL1       -0.0440
      7  C          7.5780   -2.0610    1.2200 C.2     1  UNL1        0.0080
      8  C          7.4690   -0.2500   -0.3330 C.2     1  UNL1        0.0540
      9  C          8.0860   -2.8550    0.2080 C.2     1  UNL1        0.0510
     10  C          7.9820   -1.0570   -1.3530 C.2     1  UNL1        0.1660
     11  C          8.2940   -2.3710   -1.0800 C.2     1  UNL1        0.1650
     12  O          8.2740   -0.8230   -2.6800 O.2     1  UNL1       -0.4540
     13  O          8.7750   -2.9220   -2.2570 O.2     1  UNL1       -0.4540
     14  C          8.6940   -2.0010   -3.3190 C.3     1  UNL1        0.4680
@<TRIPOS>BOND
     1    14    12    1
     2    14    13    1
     3    12    10    1
     4    13    11    1
     5    10    11    2
     6    10     8    1
     7    11     9    1
     8     8     6    2
     9     9     7    2
    10     3     2    1
    11     6     7    1
    12     6     5    1
    13     5     1    1
    14     2     1    1
    15     2     4    2
