@<TRIPOS>MOLECULE
/home/cewinharhar/GITHUB/reincatalyze/data/processed/docking_pred/2023-May-25-1902_sub9_nm5_bs15_s42_ex16_mel10_mts10000_k50_ec01_g099_lra3e-4_lrc3e-3/035d1107efb5fe3e99d2a33353f0da4e413613a6_ligand_9.pdbqt
 14 15 0 0 0
SMALL
GASTEIGER

@<TRIPOS>ATOM
      1  C          5.6330    0.2590    2.5300 C.3     1  UNL1        0.0800
      2  C          4.5050    1.0710    1.9960 C.2     1  UNL1        0.1300
      3  C          4.6240    1.8320    0.7230 C.3     1  UNL1        0.0870
      4  O          3.4420    1.1360    2.5920 O.2     1  UNL1       -0.3000
      5  C          5.7760   -1.0480    1.7750 C.3     1  UNL1        0.0430
      6  C          6.7910   -0.9570    0.7100 C.2     1  UNL1       -0.0440
      7  C          8.0310   -0.3460    0.9300 C.2     1  UNL1        0.0080
      8  C          6.5240   -1.4830   -0.5330 C.2     1  UNL1        0.0540
      9  C          8.9440   -0.2900   -0.1070 C.2     1  UNL1        0.0510
     10  C          7.4510   -1.4240   -1.5780 C.2     1  UNL1        0.1660
     11  C          8.6710   -0.8220   -1.3630 C.2     1  UNL1        0.1650
     12  O          7.4240   -1.8660   -2.8840 O.2     1  UNL1       -0.4540
     13  O          9.3760   -0.9090   -2.5540 O.2     1  UNL1       -0.4540
     14  C          8.6580   -1.6430   -3.5170 C.3     1  UNL1        0.4680
@<TRIPOS>BOND
     1    14    12    1
     2    14    13    1
     3    12    10    1
     4    13    11    1
     5    10    11    2
     6    10     8    1
     7    11     9    1
     8     8     6    2
     9     9     7    2
    10     6     7    1
    11     6     5    1
    12     3     2    1
    13     5     1    1
    14     2     1    1
    15     2     4    2
