@<TRIPOS>MOLECULE
/home/cewinharhar/GITHUB/reincatalyze/data/processed/docking_pred/2023-May-25-1902_sub9_nm5_bs15_s42_ex16_mel10_mts10000_k50_ec01_g099_lra3e-4_lrc3e-3/035d1107efb5fe3e99d2a33353f0da4e413613a6_ligand_9.pdbqt
 14 15 0 0 0
SMALL
GASTEIGER

@<TRIPOS>ATOM
      1  C          7.9990   -1.7780   -2.3150 C.3     1  UNL1        0.0800
      2  C          8.7120   -0.4790   -2.4650 C.2     1  UNL1        0.1300
      3  C          8.1460    0.6330   -3.2750 C.3     1  UNL1        0.0870
      4  O          9.7890   -0.2890   -1.9240 O.2     1  UNL1       -0.3000
      5  C          8.1740   -2.3440   -0.9190 C.3     1  UNL1        0.0430
      6  C          7.3290   -1.6430    0.0640 C.2     1  UNL1       -0.0440
      7  C          7.2450   -2.0700    1.3950 C.2     1  UNL1        0.0080
      8  C          6.6030   -0.5400   -0.3230 C.2     1  UNL1        0.0540
      9  C          6.4360   -1.3730    2.2730 C.2     1  UNL1        0.0510
     10  C          5.7870    0.1620    0.5690 C.2     1  UNL1        0.1660
     11  C          5.7020   -0.2580    1.8780 C.2     1  UNL1        0.1650
     12  O          4.9780    1.2700    0.4300 O.2     1  UNL1       -0.4540
     13  O          4.8360    0.6100    2.5220 O.2     1  UNL1       -0.4540
     14  C          4.4240    1.6480    1.6640 C.3     1  UNL1        0.4680
@<TRIPOS>BOND
     1     3     2    1
     2     2     1    1
     3     2     4    2
     4     1     5    1
     5     5     6    1
     6     8     6    2
     7     8    10    1
     8     6     7    1
     9    12    10    1
    10    12    14    1
    11    10    11    2
    12     7     9    2
    13    14    13    1
    14    11     9    1
    15    11    13    1
