@<TRIPOS>MOLECULE
/home/cewinharhar/GITHUB/reincatalyze/data/processed/docking_pred/2023-May-25-1902_sub9_nm5_bs15_s42_ex16_mel10_mts10000_k50_ec01_g099_lra3e-4_lrc3e-3/035d1107efb5fe3e99d2a33353f0da4e413613a6_ligand_9.pdbqt
 14 15 0 0 0
SMALL
GASTEIGER

@<TRIPOS>ATOM
      1  C          8.7960   -3.8970   -0.3960 C.3     1  UNL1        0.0800
      2  C          9.3070   -4.8030   -1.4620 C.2     1  UNL1        0.1300
      3  C          8.9200   -6.2380   -1.5180 C.3     1  UNL1        0.0870
      4  O         10.0640   -4.3900   -2.3260 O.2     1  UNL1       -0.3000
      5  C          8.2830   -2.5960   -0.9790 C.3     1  UNL1        0.0430
      6  C          7.4570   -1.8510   -0.0120 C.2     1  UNL1       -0.0440
      7  C          7.3970   -2.2200    1.3370 C.2     1  UNL1        0.0080
      8  C          6.7260   -0.7640   -0.4330 C.2     1  UNL1        0.0540
      9  C          6.6050   -1.4830    2.1990 C.2     1  UNL1        0.0510
     10  C          5.9280   -0.0220    0.4430 C.2     1  UNL1        0.1660
     11  C          5.8670   -0.3850    1.7700 C.2     1  UNL1        0.1650
     12  O          5.1190    1.0820    0.2710 O.2     1  UNL1       -0.4540
     13  O          5.0140    0.5130    2.3920 O.2     1  UNL1       -0.4540
     14  C          4.5890    1.5140    1.4980 C.3     1  UNL1        0.4680
@<TRIPOS>BOND
     1     4     2    2
     2     3     2    1
     3     2     1    1
     4     5     1    1
     5     5     6    1
     6     8     6    2
     7     8    10    1
     8     6     7    1
     9    12    10    1
    10    12    14    1
    11    10    11    2
    12     7     9    2
    13    14    13    1
    14    11     9    1
    15    11    13    1
