@<TRIPOS>MOLECULE
/home/cewinharhar/GITHUB/reincatalyze/data/processed/docking_pred/2023-May-25-1902_sub9_nm5_bs15_s42_ex16_mel10_mts10000_k50_ec01_g099_lra3e-4_lrc3e-3/04093ca98f76925b46d8e425639cb467aa73d951_ligand_9.pdbqt
 14 15 0 0 0
SMALL
GASTEIGER

@<TRIPOS>ATOM
      1  C          5.7330    1.2850   -0.3240 C.3     1  UNL1        0.0800
      2  C          5.1320    1.2400    1.0380 C.2     1  UNL1        0.1300
      3  C          5.3660    0.0940    1.9570 C.3     1  UNL1        0.0870
      4  O          4.4230    2.1480    1.4410 O.2     1  UNL1       -0.3000
      5  C          7.2350    1.0880   -0.2700 C.3     1  UNL1        0.0430
      6  C          7.6410   -0.1940   -0.8740 C.2     1  UNL1       -0.0440
      7  C          7.7690   -0.3430   -2.2590 C.2     1  UNL1        0.0080
      8  C          7.9040   -1.2760   -0.0650 C.2     1  UNL1        0.0540
      9  C          8.1530   -1.5700   -2.7690 C.2     1  UNL1        0.0510
     10  C          8.2940   -2.5130   -0.5850 C.2     1  UNL1        0.1660
     11  C          8.4190   -2.6620   -1.9490 C.2     1  UNL1        0.1650
     12  O          8.6070   -3.7220   -0.0010 O.2     1  UNL1       -0.4540
     13  O          8.8110   -3.9720   -2.1750 O.2     1  UNL1       -0.4540
     14  C          9.0300   -4.6530   -0.9630 C.3     1  UNL1        0.4680
@<TRIPOS>BOND
     1     9     7    1
     2     9    11    2
     3     7     6    2
     4    13    11    1
     5    13    14    1
     6    11    10    1
     7    14    12    1
     8     6     5    1
     9     6     8    1
    10    10     8    2
    11    10    12    1
    12     1     5    1
    13     1     2    1
    14     2     4    2
    15     2     3    1
