MODEL 1
REMARK VINA RESULT:      -7.7      0.000      0.000
REMARK SMILES CC(=O)CCc1ccc2c(c1)OCO2
REMARK SMILES IDX 4 1 2 2 1 3 3 4 5 5 6 6 7 7 11 8 8 9 10 10 9 11 12 12 14 13
REMARK SMILES IDX 13 14
REMARK H PARENT
REMARK Flexibility Score: inf
ROOT
ATOM      1  C   UNL     1       5.516   1.885   1.281  1.00  0.00     0.080 C 
ENDROOT
BRANCH   1   2
ATOM      2  C   UNL     1       5.018   0.679   2.000  1.00  0.00     0.130 C 
ATOM      3  C   UNL     1       5.826  -0.567   2.087  1.00  0.00     0.087 C 
ATOM      4  O   UNL     1       3.925   0.680   2.543  1.00  0.00    -0.300 OA
ENDBRANCH   1   2
BRANCH   1   5
ATOM      5  C   UNL     1       5.398   1.717  -0.221  1.00  0.00     0.043 C 
BRANCH   5   6
ATOM      6  C   UNL     1       6.567   1.022  -0.788  1.00  0.00    -0.044 A 
ATOM      7  C   UNL     1       7.873   1.459  -0.536  1.00  0.00     0.008 A 
ATOM      8  C   UNL     1       6.383  -0.086  -1.583  1.00  0.00     0.054 A 
ATOM      9  C   UNL     1       8.932   0.766  -1.093  1.00  0.00     0.051 A 
ATOM     10  C   UNL     1       7.457  -0.784  -2.144  1.00  0.00     0.166 A 
ATOM     11  C   UNL     1       8.742  -0.354  -1.897  1.00  0.00     0.165 A 
ATOM     12  O   UNL     1       7.534  -1.896  -2.955  1.00  0.00    -0.454 OA
ATOM     13  O   UNL     1       9.590  -1.220  -2.569  1.00  0.00    -0.454 OA
ATOM     14  C   UNL     1       8.871  -2.265  -3.178  1.00  0.00     0.468 C 
ENDBRANCH   5   6
ENDBRANCH   1   5
TORSDOF 3
ENDMDL
MODEL 2
REMARK VINA RESULT:      -7.5      1.932      2.387
REMARK SMILES CC(=O)CCc1ccc2c(c1)OCO2
REMARK SMILES IDX 4 1 2 2 1 3 3 4 5 5 6 6 7 7 11 8 8 9 10 10 9 11 12 12 14 13
REMARK SMILES IDX 13 14
REMARK H PARENT
REMARK Flexibility Score: inf
ROOT
ATOM      1  C   UNL     1       5.733   1.285  -0.324  1.00  0.00     0.080 C 
ENDROOT
BRANCH   1   2
ATOM      2  C   UNL     1       5.132   1.240   1.038  1.00  0.00     0.130 C 
ATOM      3  C   UNL     1       5.366   0.094   1.957  1.00  0.00     0.087 C 
ATOM      4  O   UNL     1       4.423   2.148   1.441  1.00  0.00    -0.300 OA
ENDBRANCH   1   2
BRANCH   1   5
ATOM      5  C   UNL     1       7.235   1.088  -0.270  1.00  0.00     0.043 C 
BRANCH   5   6
ATOM      6  C   UNL     1       7.641  -0.194  -0.874  1.00  0.00    -0.044 A 
ATOM      7  C   UNL     1       7.769  -0.343  -2.259  1.00  0.00     0.008 A 
ATOM      8  C   UNL     1       7.904  -1.276  -0.065  1.00  0.00     0.054 A 
ATOM      9  C   UNL     1       8.153  -1.570  -2.769  1.00  0.00     0.051 A 
ATOM     10  C   UNL     1       8.294  -2.513  -0.585  1.00  0.00     0.166 A 
ATOM     11  C   UNL     1       8.419  -2.662  -1.949  1.00  0.00     0.165 A 
ATOM     12  O   UNL     1       8.607  -3.722  -0.001  1.00  0.00    -0.454 OA
ATOM     13  O   UNL     1       8.811  -3.972  -2.175  1.00  0.00    -0.454 OA
ATOM     14  C   UNL     1       9.030  -4.653  -0.963  1.00  0.00     0.468 C 
ENDBRANCH   5   6
ENDBRANCH   1   5
TORSDOF 3
ENDMDL
MODEL 3
REMARK VINA RESULT:      -7.2      2.068      2.601
REMARK SMILES CC(=O)CCc1ccc2c(c1)OCO2
REMARK SMILES IDX 4 1 2 2 1 3 3 4 5 5 6 6 7 7 11 8 8 9 10 10 9 11 12 12 14 13
REMARK SMILES IDX 13 14
REMARK H PARENT
REMARK Flexibility Score: inf
ROOT
ATOM      1  C   UNL     1       5.478  -0.017   1.973  1.00  0.00     0.080 C 
ENDROOT
BRANCH   1   2
ATOM      2  C   UNL     1       4.609   1.162   1.702  1.00  0.00     0.130 C 
ATOM      3  C   UNL     1       4.916   2.123   0.609  1.00  0.00     0.087 C 
ATOM      4  O   UNL     1       3.614   1.375   2.375  1.00  0.00    -0.300 OA
ENDBRANCH   1   2
BRANCH   1   5
ATOM      5  C   UNL     1       6.906   0.239   1.535  1.00  0.00     0.043 C 
BRANCH   5   6
ATOM      6  C   UNL     1       7.330  -0.698   0.480  1.00  0.00    -0.044 A 
ATOM      7  C   UNL     1       7.235  -0.366  -0.877  1.00  0.00     0.008 A 
ATOM      8  C   UNL     1       7.836  -1.931   0.825  1.00  0.00     0.054 A 
ATOM      9  C   UNL     1       7.650  -1.285  -1.823  1.00  0.00     0.051 A 
ATOM     10  C   UNL     1       8.255  -2.856  -0.136  1.00  0.00     0.166 A 
ATOM     11  C   UNL     1       8.160  -2.531  -1.471  1.00  0.00     0.165 A 
ATOM     12  O   UNL     1       8.784  -4.127  -0.049  1.00  0.00    -0.454 OA
ATOM     13  O   UNL     1       8.639  -3.619  -2.184  1.00  0.00    -0.454 OA
ATOM     14  C   UNL     1       9.129  -4.617  -1.320  1.00  0.00     0.468 C 
ENDBRANCH   5   6
ENDBRANCH   1   5
TORSDOF 3
ENDMDL
MODEL 4
REMARK VINA RESULT:      -7.1      1.267      1.482
REMARK SMILES CC(=O)CCc1ccc2c(c1)OCO2
REMARK SMILES IDX 4 1 2 2 1 3 3 4 5 5 6 6 7 7 11 8 8 9 10 10 9 11 12 12 14 13
REMARK SMILES IDX 13 14
REMARK H PARENT
REMARK Flexibility Score: inf
ROOT
ATOM      1  C   UNL     1       6.411   1.197   0.941  1.00  0.00     0.080 C 
ENDROOT
BRANCH   1   2
ATOM      2  C   UNL     1       5.677   0.361   1.931  1.00  0.00     0.130 C 
ATOM      3  C   UNL     1       6.273  -0.876   2.504  1.00  0.00     0.087 C 
ATOM      4  O   UNL     1       4.556   0.669   2.302  1.00  0.00    -0.300 OA
ENDBRANCH   1   2
BRANCH   1   5
ATOM      5  C   UNL     1       5.905   0.954  -0.468  1.00  0.00     0.043 C 
BRANCH   5   6
ATOM      6  C   UNL     1       6.835   0.116  -1.246  1.00  0.00    -0.044 A 
ATOM      7  C   UNL     1       7.512   0.616  -2.364  1.00  0.00     0.008 A 
ATOM      8  C   UNL     1       7.052  -1.190  -0.871  1.00  0.00     0.054 A 
ATOM      9  C   UNL     1       8.372  -0.217  -3.055  1.00  0.00     0.051 A 
ATOM     10  C   UNL     1       7.923  -2.029  -1.573  1.00  0.00     0.166 A 
ATOM     11  C   UNL     1       8.589  -1.538  -2.674  1.00  0.00     0.165 A 
ATOM     12  O   UNL     1       8.303  -3.343  -1.403  1.00  0.00    -0.454 OA
ATOM     13  O   UNL     1       9.372  -2.572  -3.163  1.00  0.00    -0.454 OA
ATOM     14  C   UNL     1       9.290  -3.707  -2.334  1.00  0.00     0.468 C 
ENDBRANCH   5   6
ENDBRANCH   1   5
TORSDOF 3
ENDMDL
MODEL 5
REMARK VINA RESULT:      -7.0      1.975      2.490
REMARK SMILES CC(=O)CCc1ccc2c(c1)OCO2
REMARK SMILES IDX 4 1 2 2 1 3 3 4 5 5 6 6 7 7 11 8 8 9 10 10 9 11 12 12 14 13
REMARK SMILES IDX 13 14
REMARK H PARENT
REMARK Flexibility Score: inf
ROOT
ATOM      1  C   UNL     1       6.829   0.949   1.354  1.00  0.00     0.080 C 
ENDROOT
BRANCH   1   2
ATOM      2  C   UNL     1       5.357   1.159   1.442  1.00  0.00     0.130 C 
ATOM      3  C   UNL     1       4.656   2.146   0.577  1.00  0.00     0.087 C 
ATOM      4  O   UNL     1       4.678   0.523   2.232  1.00  0.00    -0.300 OA
ENDBRANCH   1   2
BRANCH   1   5
ATOM      5  C   UNL     1       7.328   1.138  -0.065  1.00  0.00     0.043 C 
BRANCH   5   6
ATOM      6  C   UNL     1       7.674  -0.148  -0.698  1.00  0.00    -0.044 A 
ATOM      7  C   UNL     1       7.729  -0.288  -2.089  1.00  0.00     0.008 A 
ATOM      8  C   UNL     1       7.954  -1.242   0.089  1.00  0.00     0.054 A 
ATOM      9  C   UNL     1       8.060  -1.518  -2.627  1.00  0.00     0.051 A 
ATOM     10  C   UNL     1       8.289  -2.484  -0.460  1.00  0.00     0.166 A 
ATOM     11  C   UNL     1       8.342  -2.623  -1.829  1.00  0.00     0.165 A 
ATOM     12  O   UNL     1       8.605  -3.704   0.099  1.00  0.00    -0.454 OA
ATOM     13  O   UNL     1       8.694  -3.939  -2.084  1.00  0.00    -0.454 OA
ATOM     14  C   UNL     1       8.958  -4.636  -0.890  1.00  0.00     0.468 C 
ENDBRANCH   5   6
ENDBRANCH   1   5
TORSDOF 3
ENDMDL
