@<TRIPOS>MOLECULE
/home/cewinharhar/GITHUB/reincatalyze/data/processed/docking_pred/2023-May-25-1902_sub9_nm5_bs15_s42_ex16_mel10_mts10000_k50_ec01_g099_lra3e-4_lrc3e-3/04093ca98f76925b46d8e425639cb467aa73d951_ligand_9.pdbqt
 14 15 0 0 0
SMALL
GASTEIGER

@<TRIPOS>ATOM
      1  C          5.5160    1.8850    1.2810 C.3     1  UNL1        0.0800
      2  C          5.0180    0.6790    2.0000 C.2     1  UNL1        0.1300
      3  C          5.8260   -0.5670    2.0870 C.3     1  UNL1        0.0870
      4  O          3.9250    0.6800    2.5430 O.2     1  UNL1       -0.3000
      5  C          5.3980    1.7170   -0.2210 C.3     1  UNL1        0.0430
      6  C          6.5670    1.0220   -0.7880 C.2     1  UNL1       -0.0440
      7  C          7.8730    1.4590   -0.5360 C.2     1  UNL1        0.0080
      8  C          6.3830   -0.0860   -1.5830 C.2     1  UNL1        0.0540
      9  C          8.9320    0.7660   -1.0930 C.2     1  UNL1        0.0510
     10  C          7.4570   -0.7840   -2.1440 C.2     1  UNL1        0.1660
     11  C          8.7420   -0.3540   -1.8970 C.2     1  UNL1        0.1650
     12  O          7.5340   -1.8960   -2.9550 O.2     1  UNL1       -0.4540
     13  O          9.5900   -1.2200   -2.5690 O.2     1  UNL1       -0.4540
     14  C          8.8710   -2.2650   -3.1780 C.3     1  UNL1        0.4680
@<TRIPOS>BOND
     1    14    12    1
     2    14    13    1
     3    12    10    1
     4    13    11    1
     5    10    11    2
     6    10     8    1
     7    11     9    1
     8     8     6    2
     9     9     7    2
    10     6     7    1
    11     6     5    1
    12     5     1    1
    13     1     2    1
    14     2     3    1
    15     2     4    2
