@<TRIPOS>MOLECULE
/home/cewinharhar/GITHUB/reincatalyze/data/processed/docking_pred/2023-May-25-1902_sub9_nm5_bs15_s42_ex16_mel10_mts10000_k50_ec01_g099_lra3e-4_lrc3e-3/05fc2472135fbee8f2c0d268145bdd055e68f396_ligand_9.pdbqt
 14 15 0 0 0
SMALL
GASTEIGER

@<TRIPOS>ATOM
      1  C          5.4480   -0.0260    2.0480 C.3     1  UNL1        0.0800
      2  C          4.5630    1.1390    1.7720 C.2     1  UNL1        0.1300
      3  C          4.8760    2.1210    0.6990 C.3     1  UNL1        0.0870
      4  O          3.5470    1.3230    2.4240 O.2     1  UNL1       -0.3000
      5  C          6.8690    0.2410    1.5930 C.3     1  UNL1        0.0430
      6  C          7.2890   -0.6940    0.5350 C.2     1  UNL1       -0.0440
      7  C          7.1640   -0.3710   -0.8210 C.2     1  UNL1        0.0080
      8  C          7.8210   -1.9170    0.8770 C.2     1  UNL1        0.0540
      9  C          7.5760   -1.2880   -1.7700 C.2     1  UNL1        0.0510
     10  C          8.2370   -2.8410   -0.0870 C.2     1  UNL1        0.1660
     11  C          8.1130   -2.5240   -1.4210 C.2     1  UNL1        0.1650
     12  O          8.7870   -4.1020   -0.0030 O.2     1  UNL1       -0.4540
     13  O          8.5960   -3.6080   -2.1370 O.2     1  UNL1       -0.4540
     14  C          9.1170   -4.5930   -1.2770 C.3     1  UNL1        0.4680
@<TRIPOS>BOND
     1    13    11    1
     2    13    14    1
     3     9    11    2
     4     9     7    1
     5    11    10    1
     6    14    12    1
     7     7     6    2
     8    10    12    1
     9    10     8    2
    10     6     8    1
    11     6     5    1
    12     3     2    1
    13     5     1    1
    14     2     1    1
    15     2     4    2
