@<TRIPOS>MOLECULE
/home/cewinharhar/GITHUB/reincatalyze/data/processed/docking_pred/2023-May-25-1902_sub9_nm5_bs15_s42_ex16_mel10_mts10000_k50_ec01_g099_lra3e-4_lrc3e-3/05fc2472135fbee8f2c0d268145bdd055e68f396_ligand_9.pdbqt
 14 15 0 0 0
SMALL
GASTEIGER

@<TRIPOS>ATOM
      1  C          6.7960    0.6380    1.4210 C.3     1  UNL1        0.0800
      2  C          5.3850    1.1080    1.5060 C.2     1  UNL1        0.1300
      3  C          4.8520    2.1490    0.5880 C.3     1  UNL1        0.0870
      4  O          4.6210    0.6490    2.3400 O.2     1  UNL1       -0.3000
      5  C          7.3780    0.8930    0.0440 C.3     1  UNL1        0.0430
      6  C          7.7160   -0.3640   -0.6470 C.2     1  UNL1       -0.0440
      7  C          7.7510   -0.4460   -2.0440 C.2     1  UNL1        0.0080
      8  C          8.0080   -1.4900    0.0890 C.2     1  UNL1        0.0540
      9  C          8.0760   -1.6520   -2.6370 C.2     1  UNL1        0.0510
     10  C          8.3360   -2.7070   -0.5160 C.2     1  UNL1        0.1660
     11  C          8.3700   -2.7890   -1.8900 C.2     1  UNL1        0.1650
     12  O          8.6600   -3.9490   -0.0130 O.2     1  UNL1       -0.4540
     13  O          8.7180   -4.0930   -2.2060 O.2     1  UNL1       -0.4540
     14  C          9.0000   -4.8390   -1.0460 C.3     1  UNL1        0.4680
@<TRIPOS>BOND
     1     9     7    1
     2     9    11    2
     3    13    11    1
     4    13    14    1
     5     7     6    2
     6    11    10    1
     7    14    12    1
     8     6     5    1
     9     6     8    1
    10    10    12    1
    11    10     8    2
    12     5     1    1
    13     3     2    1
    14     1     2    1
    15     2     4    2
