MODEL 1
REMARK VINA RESULT:      -7.7      0.000      0.000
REMARK SMILES CC(=O)CCc1ccc2c(c1)OCO2
REMARK SMILES IDX 4 1 2 2 1 3 3 4 5 5 6 6 7 7 11 8 8 9 10 10 9 11 12 12 14 13
REMARK SMILES IDX 13 14
REMARK H PARENT
REMARK Flexibility Score: inf
ROOT
ATOM      1  C   UNL     1       5.516   1.894   1.264  1.00  0.00     0.080 C 
ENDROOT
BRANCH   1   2
ATOM      2  C   UNL     1       5.033   0.689   1.996  1.00  0.00     0.130 C 
ATOM      3  C   UNL     1       5.861  -0.541   2.106  1.00  0.00     0.087 C 
ATOM      4  O   UNL     1       3.936   0.678   2.529  1.00  0.00    -0.300 OA
ENDBRANCH   1   2
BRANCH   1   5
ATOM      5  C   UNL     1       5.394   1.712  -0.236  1.00  0.00     0.043 C 
BRANCH   5   6
ATOM      6  C   UNL     1       6.566   1.018  -0.800  1.00  0.00    -0.044 A 
ATOM      7  C   UNL     1       7.869   1.466  -0.558  1.00  0.00     0.008 A 
ATOM      8  C   UNL     1       6.385  -0.100  -1.582  1.00  0.00     0.054 A 
ATOM      9  C   UNL     1       8.930   0.774  -1.113  1.00  0.00     0.051 A 
ATOM     10  C   UNL     1       7.461  -0.797  -2.140  1.00  0.00     0.166 A 
ATOM     11  C   UNL     1       8.744  -0.356  -1.904  1.00  0.00     0.165 A 
ATOM     12  O   UNL     1       7.542  -1.916  -2.940  1.00  0.00    -0.454 OA
ATOM     13  O   UNL     1       9.595  -1.224  -2.570  1.00  0.00    -0.454 OA
ATOM     14  C   UNL     1       8.880  -2.280  -3.165  1.00  0.00     0.468 C 
ENDBRANCH   5   6
ENDBRANCH   1   5
TORSDOF 3
ENDMDL
MODEL 2
REMARK VINA RESULT:      -7.4      1.899      2.370
REMARK SMILES CC(=O)CCc1ccc2c(c1)OCO2
REMARK SMILES IDX 4 1 2 2 1 3 3 4 5 5 6 6 7 7 11 8 8 9 10 10 9 11 12 12 14 13
REMARK SMILES IDX 13 14
REMARK H PARENT
REMARK Flexibility Score: inf
ROOT
ATOM      1  C   UNL     1       5.769   1.268  -0.308  1.00  0.00     0.080 C 
ENDROOT
BRANCH   1   2
ATOM      2  C   UNL     1       5.270   1.206   1.094  1.00  0.00     0.130 C 
ATOM      3  C   UNL     1       5.473   0.002   1.943  1.00  0.00     0.087 C 
ATOM      4  O   UNL     1       4.676   2.150   1.590  1.00  0.00    -0.300 OA
ENDBRANCH   1   2
BRANCH   1   5
ATOM      5  C   UNL     1       7.276   1.118  -0.363  1.00  0.00     0.043 C 
BRANCH   5   6
ATOM      6  C   UNL     1       7.675  -0.175  -0.948  1.00  0.00    -0.044 A 
ATOM      7  C   UNL     1       7.836  -0.336  -2.329  1.00  0.00     0.008 A 
ATOM      8  C   UNL     1       7.901  -1.255  -0.126  1.00  0.00     0.054 A 
ATOM      9  C   UNL     1       8.213  -1.573  -2.821  1.00  0.00     0.051 A 
ATOM     10  C   UNL     1       8.283  -2.503  -0.628  1.00  0.00     0.166 A 
ATOM     11  C   UNL     1       8.439  -2.663  -1.987  1.00  0.00     0.165 A 
ATOM     12  O   UNL     1       8.561  -3.712  -0.027  1.00  0.00    -0.454 OA
ATOM     13  O   UNL     1       8.816  -3.981  -2.194  1.00  0.00    -0.454 OA
ATOM     14  C   UNL     1       8.993  -4.657  -0.973  1.00  0.00     0.468 C 
ENDBRANCH   5   6
ENDBRANCH   1   5
TORSDOF 3
ENDMDL
MODEL 3
REMARK VINA RESULT:      -7.3      2.049      2.609
REMARK SMILES CC(=O)CCc1ccc2c(c1)OCO2
REMARK SMILES IDX 4 1 2 2 1 3 3 4 5 5 6 6 7 7 11 8 8 9 10 10 9 11 12 12 14 13
REMARK SMILES IDX 13 14
REMARK H PARENT
REMARK Flexibility Score: inf
ROOT
ATOM      1  C   UNL     1       5.448  -0.026   2.048  1.00  0.00     0.080 C 
ENDROOT
BRANCH   1   2
ATOM      2  C   UNL     1       4.563   1.139   1.772  1.00  0.00     0.130 C 
ATOM      3  C   UNL     1       4.876   2.121   0.699  1.00  0.00     0.087 C 
ATOM      4  O   UNL     1       3.547   1.323   2.424  1.00  0.00    -0.300 OA
ENDBRANCH   1   2
BRANCH   1   5
ATOM      5  C   UNL     1       6.869   0.241   1.593  1.00  0.00     0.043 C 
BRANCH   5   6
ATOM      6  C   UNL     1       7.289  -0.694   0.535  1.00  0.00    -0.044 A 
ATOM      7  C   UNL     1       7.164  -0.371  -0.821  1.00  0.00     0.008 A 
ATOM      8  C   UNL     1       7.821  -1.917   0.877  1.00  0.00     0.054 A 
ATOM      9  C   UNL     1       7.576  -1.288  -1.770  1.00  0.00     0.051 A 
ATOM     10  C   UNL     1       8.237  -2.841  -0.087  1.00  0.00     0.166 A 
ATOM     11  C   UNL     1       8.113  -2.524  -1.421  1.00  0.00     0.165 A 
ATOM     12  O   UNL     1       8.787  -4.102  -0.003  1.00  0.00    -0.454 OA
ATOM     13  O   UNL     1       8.596  -3.608  -2.137  1.00  0.00    -0.454 OA
ATOM     14  C   UNL     1       9.117  -4.593  -1.277  1.00  0.00     0.468 C 
ENDBRANCH   5   6
ENDBRANCH   1   5
TORSDOF 3
ENDMDL
MODEL 4
REMARK VINA RESULT:      -7.1      1.268      1.480
REMARK SMILES CC(=O)CCc1ccc2c(c1)OCO2
REMARK SMILES IDX 4 1 2 2 1 3 3 4 5 5 6 6 7 7 11 8 8 9 10 10 9 11 12 12 14 13
REMARK SMILES IDX 13 14
REMARK H PARENT
REMARK Flexibility Score: inf
ROOT
ATOM      1  C   UNL     1       6.392   1.169   0.963  1.00  0.00     0.080 C 
ENDROOT
BRANCH   1   2
ATOM      2  C   UNL     1       5.645   0.343   1.952  1.00  0.00     0.130 C 
ATOM      3  C   UNL     1       6.234  -0.886   2.547  1.00  0.00     0.087 C 
ATOM      4  O   UNL     1       4.518   0.654   2.304  1.00  0.00    -0.300 OA
ENDBRANCH   1   2
BRANCH   1   5
ATOM      5  C   UNL     1       5.893   0.926  -0.447  1.00  0.00     0.043 C 
BRANCH   5   6
ATOM      6  C   UNL     1       6.830   0.093  -1.223  1.00  0.00    -0.044 A 
ATOM      7  C   UNL     1       7.494   0.592  -2.349  1.00  0.00     0.008 A 
ATOM      8  C   UNL     1       7.066  -1.207  -0.838  1.00  0.00     0.054 A 
ATOM      9  C   UNL     1       8.363  -0.235  -3.037  1.00  0.00     0.051 A 
ATOM     10  C   UNL     1       7.946  -2.039  -1.536  1.00  0.00     0.166 A 
ATOM     11  C   UNL     1       8.599  -1.549  -2.645  1.00  0.00     0.165 A 
ATOM     12  O   UNL     1       8.344  -3.347  -1.358  1.00  0.00    -0.454 OA
ATOM     13  O   UNL     1       9.394  -2.577  -3.129  1.00  0.00    -0.454 OA
ATOM     14  C   UNL     1       9.331  -3.706  -2.290  1.00  0.00     0.468 C 
ENDBRANCH   5   6
ENDBRANCH   1   5
TORSDOF 3
ENDMDL
MODEL 5
REMARK VINA RESULT:      -7.0      2.005      2.567
REMARK SMILES CC(=O)CCc1ccc2c(c1)OCO2
REMARK SMILES IDX 4 1 2 2 1 3 3 4 5 5 6 6 7 7 11 8 8 9 10 10 9 11 12 12 14 13
REMARK SMILES IDX 13 14
REMARK H PARENT
REMARK Flexibility Score: inf
ROOT
ATOM      1  C   UNL     1       6.796   0.638   1.421  1.00  0.00     0.080 C 
ENDROOT
BRANCH   1   2
ATOM      2  C   UNL     1       5.385   1.108   1.506  1.00  0.00     0.130 C 
ATOM      3  C   UNL     1       4.852   2.149   0.588  1.00  0.00     0.087 C 
ATOM      4  O   UNL     1       4.621   0.649   2.340  1.00  0.00    -0.300 OA
ENDBRANCH   1   2
BRANCH   1   5
ATOM      5  C   UNL     1       7.378   0.893   0.044  1.00  0.00     0.043 C 
BRANCH   5   6
ATOM      6  C   UNL     1       7.716  -0.364  -0.647  1.00  0.00    -0.044 A 
ATOM      7  C   UNL     1       7.751  -0.446  -2.044  1.00  0.00     0.008 A 
ATOM      8  C   UNL     1       8.008  -1.490   0.089  1.00  0.00     0.054 A 
ATOM      9  C   UNL     1       8.076  -1.652  -2.637  1.00  0.00     0.051 A 
ATOM     10  C   UNL     1       8.336  -2.707  -0.516  1.00  0.00     0.166 A 
ATOM     11  C   UNL     1       8.370  -2.789  -1.890  1.00  0.00     0.165 A 
ATOM     12  O   UNL     1       8.660  -3.949  -0.013  1.00  0.00    -0.454 OA
ATOM     13  O   UNL     1       8.718  -4.093  -2.206  1.00  0.00    -0.454 OA
ATOM     14  C   UNL     1       9.000  -4.839  -1.046  1.00  0.00     0.468 C 
ENDBRANCH   5   6
ENDBRANCH   1   5
TORSDOF 3
ENDMDL
