@<TRIPOS>MOLECULE
/home/cewinharhar/GITHUB/reincatalyze/data/processed/docking_pred/2023-May-25-1902_sub9_nm5_bs15_s42_ex16_mel10_mts10000_k50_ec01_g099_lra3e-4_lrc3e-3/088b63c47bd4d7a6949fea46fb2e227d24226938_ligand_9.pdbqt
 14 15 0 0 0
SMALL
GASTEIGER

@<TRIPOS>ATOM
      1  C          6.3850    1.2110    0.9170 C.3     1  UNL1        0.0800
      2  C          5.6730    0.3780    1.9260 C.2     1  UNL1        0.1300
      3  C          6.2940   -0.8400    2.5110 C.3     1  UNL1        0.0870
      4  O          4.5500    0.6740    2.3030 O.2     1  UNL1       -0.3000
      5  C          5.8750    0.9340   -0.4840 C.3     1  UNL1        0.0430
      6  C          6.8230    0.1120   -1.2570 C.2     1  UNL1       -0.0440
      7  C          7.5190    0.6330   -2.3540 C.2     1  UNL1        0.0080
      8  C          7.0390   -1.1990   -0.9000 C.2     1  UNL1        0.0540
      9  C          8.3970   -0.1850   -3.0420 C.2     1  UNL1        0.0510
     10  C          7.9280   -2.0220   -1.5980 C.2     1  UNL1        0.1660
     11  C          8.6120   -1.5110   -2.6780 C.2     1  UNL1        0.1650
     12  O          8.3100   -3.3380   -1.4430 O.2     1  UNL1       -0.4540
     13  O          9.4090   -2.5340   -3.1680 O.2     1  UNL1       -0.4540
     14  C          9.3170   -3.6820   -2.3600 C.3     1  UNL1        0.4680
@<TRIPOS>BOND
     1    13    11    1
     2    13    14    1
     3     9    11    2
     4     9     7    1
     5    11    10    1
     6    14    12    1
     7     7     6    2
     8    10    12    1
     9    10     8    2
    10     6     8    1
    11     6     5    1
    12     5     1    1
    13     1     2    1
    14     2     4    2
    15     2     3    1
