@<TRIPOS>MOLECULE
/home/cewinharhar/GITHUB/reincatalyze/data/processed/docking_pred/2023-May-25-1902_sub9_nm5_bs15_s42_ex16_mel10_mts10000_k50_ec01_g099_lra3e-4_lrc3e-3/088b63c47bd4d7a6949fea46fb2e227d24226938_ligand_9.pdbqt
 14 15 0 0 0
SMALL
GASTEIGER

@<TRIPOS>ATOM
      1  C          6.8450    0.8240    1.2610 C.3     1  UNL1        0.0800
      2  C          5.3990    1.1490    1.4150 C.2     1  UNL1        0.1300
      3  C          4.7270    2.1500    0.5440 C.3     1  UNL1        0.0870
      4  O          4.7210    0.5990    2.2670 O.2     1  UNL1       -0.3000
      5  C          7.3050    1.0240   -0.1700 C.3     1  UNL1        0.0430
      6  C          7.6680   -0.2520   -0.8110 C.2     1  UNL1       -0.0440
      7  C          7.7630   -0.3720   -2.2020 C.2     1  UNL1        0.0080
      8  C          7.9250   -1.3580   -0.0330 C.2     1  UNL1        0.0540
      9  C          8.1090   -1.5950   -2.7480 C.2     1  UNL1        0.0510
     10  C          8.2750   -2.5910   -0.5900 C.2     1  UNL1        0.1660
     11  C          8.3670   -2.7110   -1.9580 C.2     1  UNL1        0.1650
     12  O          8.5730   -3.8200   -0.0390 O.2     1  UNL1       -0.4540
     13  O          8.7250   -4.0240   -2.2230 O.2     1  UNL1       -0.4540
     14  C          8.9540   -4.7380   -1.0320 C.3     1  UNL1        0.4680
@<TRIPOS>BOND
     1     9     7    1
     2     9    11    2
     3    13    11    1
     4    13    14    1
     5     7     6    2
     6    11    10    1
     7    14    12    1
     8     6     5    1
     9     6     8    1
    10    10    12    1
    11    10     8    2
    12     5     1    1
    13     3     2    1
    14     1     2    1
    15     2     4    2
