@<TRIPOS>MOLECULE
/home/cewinharhar/GITHUB/reincatalyze/data/processed/docking_pred/2023-May-25-1902_sub9_nm5_bs15_s42_ex16_mel10_mts10000_k50_ec01_g099_lra3e-4_lrc3e-3/088b63c47bd4d7a6949fea46fb2e227d24226938_ligand_9.pdbqt
 14 15 0 0 0
SMALL
GASTEIGER

@<TRIPOS>ATOM
      1  C          5.5830    1.8670    1.3040 C.3     1  UNL1        0.0800
      2  C          5.1290    0.6480    2.0300 C.2     1  UNL1        0.1300
      3  C          6.0180   -0.5310    2.2080 C.3     1  UNL1        0.0870
      4  O          4.0060    0.5820    2.5030 O.2     1  UNL1       -0.3000
      5  C          5.4410    1.6990   -0.1960 C.3     1  UNL1        0.0430
      6  C          6.5970    0.9950   -0.7790 C.2     1  UNL1       -0.0440
      7  C          7.9090    1.4330   -0.5600 C.2     1  UNL1        0.0080
      8  C          6.3950   -0.1220   -1.5560 C.2     1  UNL1        0.0540
      9  C          8.9540    0.7320   -1.1330 C.2     1  UNL1        0.0510
     10  C          7.4550   -0.8280   -2.1320 C.2     1  UNL1        0.1660
     11  C          8.7460   -0.3970   -1.9180 C.2     1  UNL1        0.1650
     12  O          7.5130   -1.9500   -2.9310 O.2     1  UNL1       -0.4540
     13  O          9.5780   -1.2730   -2.5980 O.2     1  UNL1       -0.4540
     14  C          8.8440   -2.3240   -3.1790 C.3     1  UNL1        0.4680
@<TRIPOS>BOND
     1    14    12    1
     2    14    13    1
     3    12    10    1
     4    13    11    1
     5    10    11    2
     6    10     8    1
     7    11     9    1
     8     8     6    2
     9     9     7    2
    10     6     7    1
    11     6     5    1
    12     5     1    1
    13     1     2    1
    14     2     3    1
    15     2     4    2
