@<TRIPOS>MOLECULE
/home/cewinharhar/GITHUB/reincatalyze/data/processed/docking_pred/2023-May-25-1902_sub9_nm5_bs15_s42_ex16_mel10_mts10000_k50_ec01_g099_lra3e-4_lrc3e-3/088b63c47bd4d7a6949fea46fb2e227d24226938_ligand_9.pdbqt
 14 15 0 0 0
SMALL
GASTEIGER

@<TRIPOS>ATOM
      1  C          5.7570    1.5680   -0.2180 C.3     1  UNL1        0.0800
      2  C          4.9840    1.3700    1.0390 C.2     1  UNL1        0.1300
      3  C          5.3060    0.2710    1.9890 C.3     1  UNL1        0.0870
      4  O          4.0560    2.1080    1.3280 O.2     1  UNL1       -0.3000
      5  C          7.2120    1.1820   -0.0370 C.3     1  UNL1        0.0430
      6  C          7.5320   -0.0800   -0.7280 C.2     1  UNL1       -0.0440
      7  C          7.4430   -0.1960   -2.1200 C.2     1  UNL1        0.0080
      8  C          7.9320   -1.1750    0.0030 C.2     1  UNL1        0.0540
      9  C          7.7580   -1.4050   -2.7130 C.2     1  UNL1        0.0510
     10  C          8.2500   -2.3950   -0.6020 C.2     1  UNL1        0.1660
     11  C          8.1610   -2.5110   -1.9710 C.2     1  UNL1        0.1650
     12  O          8.6650   -3.6120   -0.1030 O.2     1  UNL1       -0.4540
     13  O          8.5290   -3.8100   -2.2880 O.2     1  UNL1       -0.4540
     14  C          8.9430   -4.5150   -1.1420 C.3     1  UNL1        0.4680
@<TRIPOS>BOND
     1     9     7    1
     2     9    11    2
     3    13    11    1
     4    13    14    1
     5     7     6    2
     6    11    10    1
     7    14    12    1
     8     6     5    1
     9     6     8    1
    10    10    12    1
    11    10     8    2
    12     1     5    1
    13     1     2    1
    14     2     4    2
    15     2     3    1
