MODEL 1
REMARK VINA RESULT:      -7.6      0.000      0.000
REMARK SMILES CC(=O)CCc1ccc2c(c1)OCO2
REMARK SMILES IDX 4 1 2 2 1 3 3 4 5 5 6 6 7 7 11 8 8 9 10 10 9 11 12 12 14 13
REMARK SMILES IDX 13 14
REMARK H PARENT
REMARK Flexibility Score: inf
ROOT
ATOM      1  C   UNL     1       5.583   1.867   1.304  1.00  0.00     0.080 C 
ENDROOT
BRANCH   1   2
ATOM      2  C   UNL     1       5.129   0.648   2.030  1.00  0.00     0.130 C 
ATOM      3  C   UNL     1       6.018  -0.531   2.208  1.00  0.00     0.087 C 
ATOM      4  O   UNL     1       4.006   0.582   2.503  1.00  0.00    -0.300 OA
ENDBRANCH   1   2
BRANCH   1   5
ATOM      5  C   UNL     1       5.441   1.699  -0.196  1.00  0.00     0.043 C 
BRANCH   5   6
ATOM      6  C   UNL     1       6.597   0.995  -0.779  1.00  0.00    -0.044 A 
ATOM      7  C   UNL     1       7.909   1.433  -0.560  1.00  0.00     0.008 A 
ATOM      8  C   UNL     1       6.395  -0.122  -1.556  1.00  0.00     0.054 A 
ATOM      9  C   UNL     1       8.954   0.732  -1.133  1.00  0.00     0.051 A 
ATOM     10  C   UNL     1       7.455  -0.828  -2.132  1.00  0.00     0.166 A 
ATOM     11  C   UNL     1       8.746  -0.397  -1.918  1.00  0.00     0.165 A 
ATOM     12  O   UNL     1       7.513  -1.950  -2.931  1.00  0.00    -0.454 OA
ATOM     13  O   UNL     1       9.578  -1.273  -2.598  1.00  0.00    -0.454 OA
ATOM     14  C   UNL     1       8.844  -2.324  -3.179  1.00  0.00     0.468 C 
ENDBRANCH   5   6
ENDBRANCH   1   5
TORSDOF 3
ENDMDL
MODEL 2
REMARK VINA RESULT:      -7.2      1.830      2.283
REMARK SMILES CC(=O)CCc1ccc2c(c1)OCO2
REMARK SMILES IDX 4 1 2 2 1 3 3 4 5 5 6 6 7 7 11 8 8 9 10 10 9 11 12 12 14 13
REMARK SMILES IDX 13 14
REMARK H PARENT
REMARK Flexibility Score: inf
ROOT
ATOM      1  C   UNL     1       5.757   1.568  -0.218  1.00  0.00     0.080 C 
ENDROOT
BRANCH   1   2
ATOM      2  C   UNL     1       4.984   1.370   1.039  1.00  0.00     0.130 C 
ATOM      3  C   UNL     1       5.306   0.271   1.989  1.00  0.00     0.087 C 
ATOM      4  O   UNL     1       4.056   2.108   1.328  1.00  0.00    -0.300 OA
ENDBRANCH   1   2
BRANCH   1   5
ATOM      5  C   UNL     1       7.212   1.182  -0.037  1.00  0.00     0.043 C 
BRANCH   5   6
ATOM      6  C   UNL     1       7.532  -0.080  -0.728  1.00  0.00    -0.044 A 
ATOM      7  C   UNL     1       7.443  -0.196  -2.120  1.00  0.00     0.008 A 
ATOM      8  C   UNL     1       7.932  -1.175   0.003  1.00  0.00     0.054 A 
ATOM      9  C   UNL     1       7.758  -1.405  -2.713  1.00  0.00     0.051 A 
ATOM     10  C   UNL     1       8.250  -2.395  -0.602  1.00  0.00     0.166 A 
ATOM     11  C   UNL     1       8.161  -2.511  -1.971  1.00  0.00     0.165 A 
ATOM     12  O   UNL     1       8.665  -3.612  -0.103  1.00  0.00    -0.454 OA
ATOM     13  O   UNL     1       8.529  -3.810  -2.288  1.00  0.00    -0.454 OA
ATOM     14  C   UNL     1       8.943  -4.515  -1.142  1.00  0.00     0.468 C 
ENDBRANCH   5   6
ENDBRANCH   1   5
TORSDOF 3
ENDMDL
MODEL 3
REMARK VINA RESULT:      -7.2      2.023      2.580
REMARK SMILES CC(=O)CCc1ccc2c(c1)OCO2
REMARK SMILES IDX 4 1 2 2 1 3 3 4 5 5 6 6 7 7 11 8 8 9 10 10 9 11 12 12 14 13
REMARK SMILES IDX 13 14
REMARK H PARENT
REMARK Flexibility Score: inf
ROOT
ATOM      1  C   UNL     1       5.453  -0.021   2.026  1.00  0.00     0.080 C 
ENDROOT
BRANCH   1   2
ATOM      2  C   UNL     1       4.579   1.154   1.756  1.00  0.00     0.130 C 
ATOM      3  C   UNL     1       4.890   2.126   0.674  1.00  0.00     0.087 C 
ATOM      4  O   UNL     1       3.575   1.355   2.420  1.00  0.00    -0.300 OA
ENDBRANCH   1   2
BRANCH   1   5
ATOM      5  C   UNL     1       6.877   0.237   1.575  1.00  0.00     0.043 C 
BRANCH   5   6
ATOM      6  C   UNL     1       7.290  -0.693   0.509  1.00  0.00    -0.044 A 
ATOM      7  C   UNL     1       7.151  -0.364  -0.844  1.00  0.00     0.008 A 
ATOM      8  C   UNL     1       7.828  -1.915   0.840  1.00  0.00     0.054 A 
ATOM      9  C   UNL     1       7.556  -1.276  -1.802  1.00  0.00     0.051 A 
ATOM     10  C   UNL     1       8.237  -2.834  -0.131  1.00  0.00     0.166 A 
ATOM     11  C   UNL     1       8.100  -2.512  -1.463  1.00  0.00     0.165 A 
ATOM     12  O   UNL     1       8.792  -4.094  -0.059  1.00  0.00    -0.454 OA
ATOM     13  O   UNL     1       8.579  -3.591  -2.188  1.00  0.00    -0.454 OA
ATOM     14  C   UNL     1       9.112  -4.578  -1.338  1.00  0.00     0.468 C 
ENDBRANCH   5   6
ENDBRANCH   1   5
TORSDOF 3
ENDMDL
MODEL 4
REMARK VINA RESULT:      -7.1      1.929      2.488
REMARK SMILES CC(=O)CCc1ccc2c(c1)OCO2
REMARK SMILES IDX 4 1 2 2 1 3 3 4 5 5 6 6 7 7 11 8 8 9 10 10 9 11 12 12 14 13
REMARK SMILES IDX 13 14
REMARK H PARENT
REMARK Flexibility Score: inf
ROOT
ATOM      1  C   UNL     1       6.845   0.824   1.261  1.00  0.00     0.080 C 
ENDROOT
BRANCH   1   2
ATOM      2  C   UNL     1       5.399   1.149   1.415  1.00  0.00     0.130 C 
ATOM      3  C   UNL     1       4.727   2.150   0.544  1.00  0.00     0.087 C 
ATOM      4  O   UNL     1       4.721   0.599   2.267  1.00  0.00    -0.300 OA
ENDBRANCH   1   2
BRANCH   1   5
ATOM      5  C   UNL     1       7.305   1.024  -0.170  1.00  0.00     0.043 C 
BRANCH   5   6
ATOM      6  C   UNL     1       7.668  -0.252  -0.811  1.00  0.00    -0.044 A 
ATOM      7  C   UNL     1       7.763  -0.372  -2.202  1.00  0.00     0.008 A 
ATOM      8  C   UNL     1       7.925  -1.358  -0.033  1.00  0.00     0.054 A 
ATOM      9  C   UNL     1       8.109  -1.595  -2.748  1.00  0.00     0.051 A 
ATOM     10  C   UNL     1       8.275  -2.591  -0.590  1.00  0.00     0.166 A 
ATOM     11  C   UNL     1       8.367  -2.711  -1.958  1.00  0.00     0.165 A 
ATOM     12  O   UNL     1       8.573  -3.820  -0.039  1.00  0.00    -0.454 OA
ATOM     13  O   UNL     1       8.725  -4.024  -2.223  1.00  0.00    -0.454 OA
ATOM     14  C   UNL     1       8.954  -4.738  -1.032  1.00  0.00     0.468 C 
ENDBRANCH   5   6
ENDBRANCH   1   5
TORSDOF 3
ENDMDL
MODEL 5
REMARK VINA RESULT:      -7.1      1.229      1.419
REMARK SMILES CC(=O)CCc1ccc2c(c1)OCO2
REMARK SMILES IDX 4 1 2 2 1 3 3 4 5 5 6 6 7 7 11 8 8 9 10 10 9 11 12 12 14 13
REMARK SMILES IDX 13 14
REMARK H PARENT
REMARK Flexibility Score: inf
ROOT
ATOM      1  C   UNL     1       6.385   1.211   0.917  1.00  0.00     0.080 C 
ENDROOT
BRANCH   1   2
ATOM      2  C   UNL     1       5.673   0.378   1.926  1.00  0.00     0.130 C 
ATOM      3  C   UNL     1       6.294  -0.840   2.511  1.00  0.00     0.087 C 
ATOM      4  O   UNL     1       4.550   0.674   2.303  1.00  0.00    -0.300 OA
ENDBRANCH   1   2
BRANCH   1   5
ATOM      5  C   UNL     1       5.875   0.934  -0.484  1.00  0.00     0.043 C 
BRANCH   5   6
ATOM      6  C   UNL     1       6.823   0.112  -1.257  1.00  0.00    -0.044 A 
ATOM      7  C   UNL     1       7.519   0.633  -2.354  1.00  0.00     0.008 A 
ATOM      8  C   UNL     1       7.039  -1.199  -0.900  1.00  0.00     0.054 A 
ATOM      9  C   UNL     1       8.397  -0.185  -3.042  1.00  0.00     0.051 A 
ATOM     10  C   UNL     1       7.928  -2.022  -1.598  1.00  0.00     0.166 A 
ATOM     11  C   UNL     1       8.612  -1.511  -2.678  1.00  0.00     0.165 A 
ATOM     12  O   UNL     1       8.310  -3.338  -1.443  1.00  0.00    -0.454 OA
ATOM     13  O   UNL     1       9.409  -2.534  -3.168  1.00  0.00    -0.454 OA
ATOM     14  C   UNL     1       9.317  -3.682  -2.360  1.00  0.00     0.468 C 
ENDBRANCH   5   6
ENDBRANCH   1   5
TORSDOF 3
ENDMDL
