@<TRIPOS>MOLECULE
/home/cewinharhar/GITHUB/reincatalyze/data/processed/docking_pred/2023-May-25-1902_sub9_nm5_bs15_s42_ex16_mel10_mts10000_k50_ec01_g099_lra3e-4_lrc3e-3/08d2e2d4a7c660d60546aaed77652d308bf13ce5_ligand_9.pdbqt
 14 15 0 0 0
SMALL
GASTEIGER

@<TRIPOS>ATOM
      1  C          5.5410   -0.0620    1.9690 C.3     1  UNL1        0.0800
      2  C          4.6970    1.1200    1.6370 C.2     1  UNL1        0.1300
      3  C          5.0570    2.0500    0.5330 C.3     1  UNL1        0.0870
      4  O          3.6800    1.3610    2.2660 O.2     1  UNL1       -0.3000
      5  C          6.9800    0.1530    1.5450 C.3     1  UNL1        0.0430
      6  C          7.3840   -0.7900    0.4870 C.2     1  UNL1       -0.0440
      7  C          7.2540   -0.4700   -0.8690 C.2     1  UNL1        0.0080
      8  C          7.9060   -2.0170    0.8290 C.2     1  UNL1        0.0540
      9  C          7.6500   -1.3940   -1.8180 C.2     1  UNL1        0.0510
     10  C          8.3070   -2.9480   -0.1340 C.2     1  UNL1        0.1660
     11  C          8.1770   -2.6340   -1.4690 C.2     1  UNL1        0.1650
     12  O          8.8460   -4.2140   -0.0500 O.2     1  UNL1       -0.4540
     13  O          8.6450   -3.7250   -2.1840 O.2     1  UNL1       -0.4540
     14  C          9.1630   -4.7120   -1.3250 C.3     1  UNL1        0.4680
@<TRIPOS>BOND
     1    13    11    1
     2    13    14    1
     3     9    11    2
     4     9     7    1
     5    11    10    1
     6    14    12    1
     7     7     6    2
     8    10    12    1
     9    10     8    2
    10     6     8    1
    11     6     5    1
    12     3     2    1
    13     5     1    1
    14     2     1    1
    15     2     4    2
