@<TRIPOS>MOLECULE
/home/cewinharhar/GITHUB/reincatalyze/data/processed/docking_pred/2023-May-25-1902_sub9_nm5_bs15_s42_ex16_mel10_mts10000_k50_ec01_g099_lra3e-4_lrc3e-3/08d2e2d4a7c660d60546aaed77652d308bf13ce5_ligand_9.pdbqt
 14 15 0 0 0
SMALL
GASTEIGER

@<TRIPOS>ATOM
      1  C          5.5260    1.9230    1.2630 C.3     1  UNL1        0.0800
      2  C          5.0890    0.7070    2.0040 C.2     1  UNL1        0.1300
      3  C          5.9850   -0.4680    2.1740 C.3     1  UNL1        0.0870
      4  O          3.9750    0.6400    2.4960 O.2     1  UNL1       -0.3000
      5  C          5.4000    1.7300   -0.2350 C.3     1  UNL1        0.0430
      6  C          6.5700    1.0310   -0.7960 C.2     1  UNL1       -0.0440
      7  C          7.8760    1.4630   -0.5390 C.2     1  UNL1        0.0080
      8  C          6.3850   -0.0780   -1.5910 C.2     1  UNL1        0.0540
      9  C          8.9350    0.7670   -1.0920 C.2     1  UNL1        0.0510
     10  C          7.4590   -0.7790   -2.1480 C.2     1  UNL1        0.1660
     11  C          8.7440   -0.3530   -1.8960 C.2     1  UNL1        0.1650
     12  O          7.5360   -1.8910   -2.9590 O.2     1  UNL1       -0.4540
     13  O          9.5930   -1.2220   -2.5640 O.2     1  UNL1       -0.4540
     14  C          8.8720   -2.2650   -3.1760 C.3     1  UNL1        0.4680
@<TRIPOS>BOND
     1    14    12    1
     2    14    13    1
     3    12    10    1
     4    13    11    1
     5    10    11    2
     6    10     8    1
     7    11     9    1
     8     8     6    2
     9     9     7    2
    10     6     7    1
    11     6     5    1
    12     5     1    1
    13     1     2    1
    14     2     3    1
    15     2     4    2
