@<TRIPOS>MOLECULE
/home/cewinharhar/GITHUB/reincatalyze/data/processed/docking_pred/2023-May-25-1902_sub9_nm5_bs15_s42_ex16_mel10_mts10000_k50_ec01_g099_lra3e-4_lrc3e-3/090474ec6ad34f6c7e6271970b3dfdf762d08d64_ligand_9.pdbqt
 14 15 0 0 0
SMALL
GASTEIGER

@<TRIPOS>ATOM
      1  C          5.5080    1.9220    1.2900 C.3     1  UNL1        0.0800
      2  C          5.0180    0.7080    2.0010 C.2     1  UNL1        0.1300
      3  C          5.8530   -0.5170    2.1220 C.3     1  UNL1        0.0870
      4  O          3.9080    0.6840    2.5080 O.2     1  UNL1       -0.3000
      5  C          5.4020    1.7600   -0.2130 C.3     1  UNL1        0.0430
      6  C          6.5680    1.0520   -0.7700 C.2     1  UNL1       -0.0440
      7  C          7.8770    1.4620   -0.4910 C.2     1  UNL1        0.0080
      8  C          6.3770   -0.0410   -1.5850 C.2     1  UNL1        0.0540
      9  C          8.9320    0.7590   -1.0420 C.2     1  UNL1        0.0510
     10  C          7.4480   -0.7490   -2.1380 C.2     1  UNL1        0.1660
     11  C          8.7360   -0.3460   -1.8650 C.2     1  UNL1        0.1650
     12  O          7.5190   -1.8500   -2.9650 O.2     1  UNL1       -0.4540
     13  O          9.5800   -1.2170   -2.5360 O.2     1  UNL1       -0.4540
     14  C          8.8530   -2.2410   -3.1720 C.3     1  UNL1        0.4680
@<TRIPOS>BOND
     1    14    12    1
     2    14    13    1
     3    12    10    1
     4    13    11    1
     5    10    11    2
     6    10     8    1
     7    11     9    1
     8     8     6    2
     9     9     7    2
    10     6     7    1
    11     6     5    1
    12     5     1    1
    13     1     2    1
    14     2     3    1
    15     2     4    2
