@<TRIPOS>MOLECULE
/home/cewinharhar/GITHUB/reincatalyze/data/processed/docking_pred/2023-May-25-1902_sub9_nm5_bs15_s42_ex16_mel10_mts10000_k50_ec01_g099_lra3e-4_lrc3e-3/090474ec6ad34f6c7e6271970b3dfdf762d08d64_ligand_9.pdbqt
 14 15 0 0 0
SMALL
GASTEIGER

@<TRIPOS>ATOM
      1  C          6.4050    0.2640   -0.8210 C.3     1  UNL1        0.0800
      2  C          7.0750   -0.4860   -1.9200 C.2     1  UNL1        0.1300
      3  C          8.1640    0.1230   -2.7290 C.3     1  UNL1        0.0870
      4  O          6.7460   -1.6290   -2.1890 O.2     1  UNL1       -0.3000
      5  C          6.6850   -0.3690    0.5280 C.3     1  UNL1        0.0430
      6  C          7.8620    0.2330    1.1800 C.2     1  UNL1       -0.0440
      7  C          7.7670    1.4230    1.9110 C.2     1  UNL1        0.0080
      8  C          9.0890   -0.3830    1.0760 C.2     1  UNL1        0.0540
      9  C          8.9060    1.9400    2.5010 C.2     1  UNL1        0.0510
     10  C         10.2370    0.1430    1.6750 C.2     1  UNL1        0.1660
     11  C         10.1450    1.3150    2.3940 C.2     1  UNL1        0.1650
     12  O         11.5500   -0.2730    1.7170 O.2     1  UNL1       -0.4540
     13  O         11.4170    1.5960    2.8670 O.2     1  UNL1       -0.4540
     14  C         12.3200    0.5680    2.5380 C.3     1  UNL1        0.4680
@<TRIPOS>BOND
     1     3     2    1
     2     4     2    2
     3     2     1    1
     4     1     5    1
     5     5     6    1
     6     8     6    2
     7     8    10    1
     8     6     7    1
     9    10    12    1
    10    10    11    2
    11    12    14    1
    12     7     9    2
    13    11     9    1
    14    11    13    1
    15    14    13    1
