MODEL 1
REMARK VINA RESULT:      -7.1      0.000      0.000
REMARK SMILES CC(=O)CCc1ccc2c(c1)OCO2
REMARK SMILES IDX 4 1 2 2 1 3 3 4 5 5 6 6 7 7 11 8 8 9 10 10 9 11 12 12 14 13
REMARK SMILES IDX 13 14
REMARK H PARENT
REMARK Flexibility Score: inf
ROOT
ATOM      1  C   UNL     1       5.508   1.922   1.290  1.00  0.00     0.080 C 
ENDROOT
BRANCH   1   2
ATOM      2  C   UNL     1       5.018   0.708   2.001  1.00  0.00     0.130 C 
ATOM      3  C   UNL     1       5.853  -0.517   2.122  1.00  0.00     0.087 C 
ATOM      4  O   UNL     1       3.908   0.684   2.508  1.00  0.00    -0.300 OA
ENDBRANCH   1   2
BRANCH   1   5
ATOM      5  C   UNL     1       5.402   1.760  -0.213  1.00  0.00     0.043 C 
BRANCH   5   6
ATOM      6  C   UNL     1       6.568   1.052  -0.770  1.00  0.00    -0.044 A 
ATOM      7  C   UNL     1       7.877   1.462  -0.491  1.00  0.00     0.008 A 
ATOM      8  C   UNL     1       6.377  -0.041  -1.585  1.00  0.00     0.054 A 
ATOM      9  C   UNL     1       8.932   0.759  -1.042  1.00  0.00     0.051 A 
ATOM     10  C   UNL     1       7.448  -0.749  -2.138  1.00  0.00     0.166 A 
ATOM     11  C   UNL     1       8.736  -0.346  -1.865  1.00  0.00     0.165 A 
ATOM     12  O   UNL     1       7.519  -1.850  -2.965  1.00  0.00    -0.454 OA
ATOM     13  O   UNL     1       9.580  -1.217  -2.536  1.00  0.00    -0.454 OA
ATOM     14  C   UNL     1       8.853  -2.241  -3.172  1.00  0.00     0.468 C 
ENDBRANCH   5   6
ENDBRANCH   1   5
TORSDOF 3
ENDMDL
MODEL 2
REMARK VINA RESULT:      -7.1      2.725      3.967
REMARK SMILES CC(=O)CCc1ccc2c(c1)OCO2
REMARK SMILES IDX 4 1 2 2 1 3 3 4 5 5 6 6 7 7 11 8 8 9 10 10 9 11 12 12 14 13
REMARK SMILES IDX 13 14
REMARK H PARENT
REMARK Flexibility Score: inf
ROOT
ATOM      1  C   UNL     1       9.675   1.314   2.657  1.00  0.00     0.080 C 
ENDROOT
BRANCH   1   2
ATOM      2  C   UNL     1      11.125   0.975   2.682  1.00  0.00     0.130 C 
ATOM      3  C   UNL     1      12.088   1.728   3.529  1.00  0.00     0.087 C 
ATOM      4  O   UNL     1      11.568   0.064   2.002  1.00  0.00    -0.300 OA
ENDBRANCH   1   2
BRANCH   1   5
ATOM      5  C   UNL     1       9.299   2.032   1.376  1.00  0.00     0.043 C 
BRANCH   5   6
ATOM      6  C   UNL     1       8.542   1.158   0.461  1.00  0.00    -0.044 A 
ATOM      7  C   UNL     1       7.149   1.048   0.537  1.00  0.00     0.008 A 
ATOM      8  C   UNL     1       9.212   0.429  -0.496  1.00  0.00     0.054 A 
ATOM      9  C   UNL     1       6.493   0.213  -0.348  1.00  0.00     0.051 A 
ATOM     10  C   UNL     1       8.543  -0.413  -1.389  1.00  0.00     0.166 A 
ATOM     11  C   UNL     1       7.173  -0.523  -1.314  1.00  0.00     0.165 A 
ATOM     12  O   UNL     1       8.975  -1.230  -2.413  1.00  0.00    -0.454 OA
ATOM     13  O   UNL     1       6.787  -1.412  -2.305  1.00  0.00    -0.454 OA
ATOM     14  C   UNL     1       7.888  -1.815  -3.083  1.00  0.00     0.468 C 
ENDBRANCH   5   6
ENDBRANCH   1   5
TORSDOF 3
ENDMDL
MODEL 3
REMARK VINA RESULT:      -7.0      3.413      4.396
REMARK SMILES CC(=O)CCc1ccc2c(c1)OCO2
REMARK SMILES IDX 4 1 2 2 1 3 3 4 5 5 6 6 7 7 11 8 8 9 10 10 9 11 12 12 14 13
REMARK SMILES IDX 13 14
REMARK H PARENT
REMARK Flexibility Score: inf
ROOT
ATOM      1  C   UNL     1       5.904  -0.026   1.524  1.00  0.00     0.080 C 
ENDROOT
BRANCH   1   2
ATOM      2  C   UNL     1       4.965   1.122   1.390  1.00  0.00     0.130 C 
ATOM      3  C   UNL     1       5.125   2.141   0.318  1.00  0.00     0.087 C 
ATOM      4  O   UNL     1       4.030   1.261   2.162  1.00  0.00    -0.300 OA
ENDBRANCH   1   2
BRANCH   1   5
ATOM      5  C   UNL     1       7.087   0.118   0.587  1.00  0.00     0.043 C 
BRANCH   5   6
ATOM      6  C   UNL     1       8.298   0.564   1.300  1.00  0.00    -0.044 A 
ATOM      7  C   UNL     1       8.287   1.692   2.128  1.00  0.00     0.008 A 
ATOM      8  C   UNL     1       9.471  -0.141   1.158  1.00  0.00     0.054 A 
ATOM      9  C   UNL     1       9.454   2.062   2.773  1.00  0.00     0.051 A 
ATOM     10  C   UNL     1      10.648   0.237   1.812  1.00  0.00     0.166 A 
ATOM     11  C   UNL     1      10.639   1.348   2.626  1.00  0.00     0.165 A 
ATOM     12  O   UNL     1      11.922  -0.289   1.833  1.00  0.00    -0.454 OA
ATOM     13  O   UNL     1      11.921   1.482   3.135  1.00  0.00    -0.454 OA
ATOM     14  C   UNL     1      12.743   0.414   2.730  1.00  0.00     0.468 C 
ENDBRANCH   5   6
ENDBRANCH   1   5
TORSDOF 3
ENDMDL
MODEL 4
REMARK VINA RESULT:      -6.9      1.960      2.408
REMARK SMILES CC(=O)CCc1ccc2c(c1)OCO2
REMARK SMILES IDX 4 1 2 2 1 3 3 4 5 5 6 6 7 7 11 8 8 9 10 10 9 11 12 12 14 13
REMARK SMILES IDX 13 14
REMARK H PARENT
REMARK Flexibility Score: inf
ROOT
ATOM      1  C   UNL     1       5.816   1.397  -0.152  1.00  0.00     0.080 C 
ENDROOT
BRANCH   1   2
ATOM      2  C   UNL     1       5.110   1.259   1.152  1.00  0.00     0.130 C 
ATOM      3  C   UNL     1       5.364   0.109   2.061  1.00  0.00     0.087 C 
ATOM      4  O   UNL     1       4.296   2.093   1.515  1.00  0.00    -0.300 OA
ENDBRANCH   1   2
BRANCH   1   5
ATOM      5  C   UNL     1       7.287   1.054  -0.020  1.00  0.00     0.043 C 
BRANCH   5   6
ATOM      6  C   UNL     1       7.613  -0.219  -0.688  1.00  0.00    -0.044 A 
ATOM      7  C   UNL     1       7.589  -0.343  -2.081  1.00  0.00     0.008 A 
ATOM      8  C   UNL     1       7.953  -1.318   0.068  1.00  0.00     0.054 A 
ATOM      9  C   UNL     1       7.905  -1.562  -2.653  1.00  0.00     0.051 A 
ATOM     10  C   UNL     1       8.272  -2.549  -0.514  1.00  0.00     0.166 A 
ATOM     11  C   UNL     1       8.248  -2.672  -1.886  1.00  0.00     0.165 A 
ATOM     12  O   UNL     1       8.635  -3.771   0.011  1.00  0.00    -0.454 OA
ATOM     13  O   UNL     1       8.602  -3.980  -2.177  1.00  0.00    -0.454 OA
ATOM     14  C   UNL     1       8.944  -4.686  -1.009  1.00  0.00     0.468 C 
ENDBRANCH   5   6
ENDBRANCH   1   5
TORSDOF 3
ENDMDL
MODEL 5
REMARK VINA RESULT:      -6.9      3.200      4.785
REMARK SMILES CC(=O)CCc1ccc2c(c1)OCO2
REMARK SMILES IDX 4 1 2 2 1 3 3 4 5 5 6 6 7 7 11 8 8 9 10 10 9 11 12 12 14 13
REMARK SMILES IDX 13 14
REMARK H PARENT
REMARK Flexibility Score: inf
ROOT
ATOM      1  C   UNL     1       6.405   0.264  -0.821  1.00  0.00     0.080 C 
ENDROOT
BRANCH   1   2
ATOM      2  C   UNL     1       7.075  -0.486  -1.920  1.00  0.00     0.130 C 
ATOM      3  C   UNL     1       8.164   0.123  -2.729  1.00  0.00     0.087 C 
ATOM      4  O   UNL     1       6.746  -1.629  -2.189  1.00  0.00    -0.300 OA
ENDBRANCH   1   2
BRANCH   1   5
ATOM      5  C   UNL     1       6.685  -0.369   0.528  1.00  0.00     0.043 C 
BRANCH   5   6
ATOM      6  C   UNL     1       7.862   0.233   1.180  1.00  0.00    -0.044 A 
ATOM      7  C   UNL     1       7.767   1.423   1.911  1.00  0.00     0.008 A 
ATOM      8  C   UNL     1       9.089  -0.383   1.076  1.00  0.00     0.054 A 
ATOM      9  C   UNL     1       8.906   1.940   2.501  1.00  0.00     0.051 A 
ATOM     10  C   UNL     1      10.237   0.143   1.675  1.00  0.00     0.166 A 
ATOM     11  C   UNL     1      10.145   1.315   2.394  1.00  0.00     0.165 A 
ATOM     12  O   UNL     1      11.550  -0.273   1.717  1.00  0.00    -0.454 OA
ATOM     13  O   UNL     1      11.417   1.596   2.867  1.00  0.00    -0.454 OA
ATOM     14  C   UNL     1      12.320   0.568   2.538  1.00  0.00     0.468 C 
ENDBRANCH   5   6
ENDBRANCH   1   5
TORSDOF 3
ENDMDL
