@<TRIPOS>MOLECULE
/home/cewinharhar/GITHUB/reincatalyze/data/processed/docking_pred/2023-May-25-1902_sub9_nm5_bs15_s42_ex16_mel10_mts10000_k50_ec01_g099_lra3e-4_lrc3e-3/090474ec6ad34f6c7e6271970b3dfdf762d08d64_ligand_9.pdbqt
 14 15 0 0 0
SMALL
GASTEIGER

@<TRIPOS>ATOM
      1  C          9.6750    1.3140    2.6570 C.3     1  UNL1        0.0800
      2  C         11.1250    0.9750    2.6820 C.2     1  UNL1        0.1300
      3  C         12.0880    1.7280    3.5290 C.3     1  UNL1        0.0870
      4  O         11.5680    0.0640    2.0020 O.2     1  UNL1       -0.3000
      5  C          9.2990    2.0320    1.3760 C.3     1  UNL1        0.0430
      6  C          8.5420    1.1580    0.4610 C.2     1  UNL1       -0.0440
      7  C          7.1490    1.0480    0.5370 C.2     1  UNL1        0.0080
      8  C          9.2120    0.4290   -0.4960 C.2     1  UNL1        0.0540
      9  C          6.4930    0.2130   -0.3480 C.2     1  UNL1        0.0510
     10  C          8.5430   -0.4130   -1.3890 C.2     1  UNL1        0.1660
     11  C          7.1730   -0.5230   -1.3140 C.2     1  UNL1        0.1650
     12  O          8.9750   -1.2300   -2.4130 O.2     1  UNL1       -0.4540
     13  O          6.7870   -1.4120   -2.3050 O.2     1  UNL1       -0.4540
     14  C          7.8880   -1.8150   -3.0830 C.3     1  UNL1        0.4680
@<TRIPOS>BOND
     1    14    12    1
     2    14    13    1
     3    12    10    1
     4    13    11    1
     5    10    11    2
     6    10     8    1
     7    11     9    1
     8     8     6    2
     9     9     7    2
    10     6     7    1
    11     6     5    1
    12     5     1    1
    13     4     2    2
    14     1     2    1
    15     2     3    1
