@<TRIPOS>MOLECULE
/home/cewinharhar/GITHUB/reincatalyze/data/processed/docking_pred/2023-May-25-1902_sub9_nm5_bs15_s42_ex16_mel10_mts10000_k50_ec01_g099_lra3e-4_lrc3e-3/090474ec6ad34f6c7e6271970b3dfdf762d08d64_ligand_9.pdbqt
 14 15 0 0 0
SMALL
GASTEIGER

@<TRIPOS>ATOM
      1  C          5.9040   -0.0260    1.5240 C.3     1  UNL1        0.0800
      2  C          4.9650    1.1220    1.3900 C.2     1  UNL1        0.1300
      3  C          5.1250    2.1410    0.3180 C.3     1  UNL1        0.0870
      4  O          4.0300    1.2610    2.1620 O.2     1  UNL1       -0.3000
      5  C          7.0870    0.1180    0.5870 C.3     1  UNL1        0.0430
      6  C          8.2980    0.5640    1.3000 C.2     1  UNL1       -0.0440
      7  C          8.2870    1.6920    2.1280 C.2     1  UNL1        0.0080
      8  C          9.4710   -0.1410    1.1580 C.2     1  UNL1        0.0540
      9  C          9.4540    2.0620    2.7730 C.2     1  UNL1        0.0510
     10  C         10.6480    0.2370    1.8120 C.2     1  UNL1        0.1660
     11  C         10.6390    1.3480    2.6260 C.2     1  UNL1        0.1650
     12  O         11.9220   -0.2890    1.8330 O.2     1  UNL1       -0.4540
     13  O         11.9210    1.4820    3.1350 O.2     1  UNL1       -0.4540
     14  C         12.7430    0.4140    2.7300 C.3     1  UNL1        0.4680
@<TRIPOS>BOND
     1     3     2    1
     2     5     6    1
     3     5     1    1
     4     8     6    2
     5     8    10    1
     6     6     7    1
     7     2     1    1
     8     2     4    2
     9    10    12    1
    10    10    11    2
    11    12    14    1
    12     7     9    2
    13    11     9    1
    14    11    13    1
    15    14    13    1
