@<TRIPOS>MOLECULE
/home/cewinharhar/GITHUB/reincatalyze/data/processed/docking_pred/2023-May-25-1902_sub9_nm5_bs15_s42_ex16_mel10_mts10000_k50_ec01_g099_lra3e-4_lrc3e-3/090474ec6ad34f6c7e6271970b3dfdf762d08d64_ligand_9.pdbqt
 14 15 0 0 0
SMALL
GASTEIGER

@<TRIPOS>ATOM
      1  C          5.8160    1.3970   -0.1520 C.3     1  UNL1        0.0800
      2  C          5.1100    1.2590    1.1520 C.2     1  UNL1        0.1300
      3  C          5.3640    0.1090    2.0610 C.3     1  UNL1        0.0870
      4  O          4.2960    2.0930    1.5150 O.2     1  UNL1       -0.3000
      5  C          7.2870    1.0540   -0.0200 C.3     1  UNL1        0.0430
      6  C          7.6130   -0.2190   -0.6880 C.2     1  UNL1       -0.0440
      7  C          7.5890   -0.3430   -2.0810 C.2     1  UNL1        0.0080
      8  C          7.9530   -1.3180    0.0680 C.2     1  UNL1        0.0540
      9  C          7.9050   -1.5620   -2.6530 C.2     1  UNL1        0.0510
     10  C          8.2720   -2.5490   -0.5140 C.2     1  UNL1        0.1660
     11  C          8.2480   -2.6720   -1.8860 C.2     1  UNL1        0.1650
     12  O          8.6350   -3.7710    0.0110 O.2     1  UNL1       -0.4540
     13  O          8.6020   -3.9800   -2.1770 O.2     1  UNL1       -0.4540
     14  C          8.9440   -4.6860   -1.0090 C.3     1  UNL1        0.4680
@<TRIPOS>BOND
     1     9     7    1
     2     9    11    2
     3    13    11    1
     4    13    14    1
     5     7     6    2
     6    11    10    1
     7    14    12    1
     8     6     5    1
     9     6     8    1
    10    10    12    1
    11    10     8    2
    12     1     5    1
    13     1     2    1
    14     2     4    2
    15     2     3    1
