MODEL 1
REMARK VINA RESULT:      -8.2      0.000      0.000
REMARK SMILES CC(=O)CCc1ccc2c(c1)OCO2
REMARK SMILES IDX 4 1 2 2 1 3 3 4 5 5 6 6 7 7 11 8 8 9 10 10 9 11 12 12 14 13
REMARK SMILES IDX 13 14
REMARK H PARENT
REMARK Flexibility Score: inf
ROOT
ATOM      1  C   UNL     1       5.974   1.519   0.911  1.00  0.00     0.080 C 
ENDROOT
BRANCH   1   2
ATOM      2  C   UNL     1       5.441   0.513   1.872  1.00  0.00     0.130 C 
ATOM      3  C   UNL     1       6.208  -0.711   2.227  1.00  0.00     0.087 C 
ATOM      4  O   UNL     1       4.350   0.666   2.398  1.00  0.00    -0.300 OA
ENDBRANCH   1   2
BRANCH   1   5
ATOM      5  C   UNL     1       5.808   1.054  -0.522  1.00  0.00     0.043 C 
BRANCH   5   6
ATOM      6  C   UNL     1       7.006   0.345  -1.008  1.00  0.00    -0.044 A 
ATOM      7  C   UNL     1       8.293   0.856  -0.804  1.00  0.00     0.008 A 
ATOM      8  C   UNL     1       6.867  -0.850  -1.677  1.00  0.00     0.054 A 
ATOM      9  C   UNL     1       9.379   0.146  -1.282  1.00  0.00     0.051 A 
ATOM     10  C   UNL     1       7.969  -1.563  -2.158  1.00  0.00     0.166 A 
ATOM     11  C   UNL     1       9.235  -1.061  -1.959  1.00  0.00     0.165 A 
ATOM     12  O   UNL     1       8.091  -2.753  -2.843  1.00  0.00    -0.454 OA
ATOM     13  O   UNL     1      10.119  -1.963  -2.531  1.00  0.00    -0.454 OA
ATOM     14  C   UNL     1       9.441  -3.095  -3.023  1.00  0.00     0.468 C 
ENDBRANCH   5   6
ENDBRANCH   1   5
TORSDOF 3
ENDMDL
MODEL 2
REMARK VINA RESULT:      -7.6      0.863      1.012
REMARK SMILES CC(=O)CCc1ccc2c(c1)OCO2
REMARK SMILES IDX 4 1 2 2 1 3 3 4 5 5 6 6 7 7 11 8 8 9 10 10 9 11 12 12 14 13
REMARK SMILES IDX 13 14
REMARK H PARENT
REMARK Flexibility Score: inf
ROOT
ATOM      1  C   UNL     1       5.670   1.227  -0.288  1.00  0.00     0.080 C 
ENDROOT
BRANCH   1   2
ATOM      2  C   UNL     1       5.166   1.100   1.108  1.00  0.00     0.130 C 
ATOM      3  C   UNL     1       5.552  -0.044   1.977  1.00  0.00     0.087 C 
ATOM      4  O   UNL     1       4.416   1.938   1.582  1.00  0.00    -0.300 OA
ENDBRANCH   1   2
BRANCH   1   5
ATOM      5  C   UNL     1       7.151   1.549  -0.312  1.00  0.00     0.043 C 
BRANCH   5   6
ATOM      6  C   UNL     1       7.934   0.471  -0.942  1.00  0.00    -0.044 A 
ATOM      7  C   UNL     1       9.302   0.315  -0.689  1.00  0.00     0.008 A 
ATOM      8  C   UNL     1       7.316  -0.409  -1.800  1.00  0.00     0.054 A 
ATOM      9  C   UNL     1       9.986  -0.715  -1.309  1.00  0.00     0.051 A 
ATOM     10  C   UNL     1       8.011  -1.450  -2.424  1.00  0.00     0.166 A 
ATOM     11  C   UNL     1       9.357  -1.604  -2.176  1.00  0.00     0.165 A 
ATOM     12  O   UNL     1       7.630  -2.440  -3.304  1.00  0.00    -0.454 OA
ATOM     13  O   UNL     1       9.779  -2.697  -2.916  1.00  0.00    -0.454 OA
ATOM     14  C   UNL     1       8.697  -3.312  -3.575  1.00  0.00     0.468 C 
ENDBRANCH   5   6
ENDBRANCH   1   5
TORSDOF 3
ENDMDL
MODEL 3
REMARK VINA RESULT:      -7.4      1.200      1.839
REMARK SMILES CC(=O)CCc1ccc2c(c1)OCO2
REMARK SMILES IDX 4 1 2 2 1 3 3 4 5 5 6 6 7 7 11 8 8 9 10 10 9 11 12 12 14 13
REMARK SMILES IDX 13 14
REMARK H PARENT
REMARK Flexibility Score: inf
ROOT
ATOM      1  C   UNL     1       5.849   1.211  -0.286  1.00  0.00     0.080 C 
ENDROOT
BRANCH   1   2
ATOM      2  C   UNL     1       5.284   1.071   1.085  1.00  0.00     0.130 C 
ATOM      3  C   UNL     1       5.618  -0.090   1.952  1.00  0.00     0.087 C 
ATOM      4  O   UNL     1       4.524   1.911   1.538  1.00  0.00    -0.300 OA
ENDBRANCH   1   2
BRANCH   1   5
ATOM      5  C   UNL     1       7.356   1.375  -0.246  1.00  0.00     0.043 C 
BRANCH   5   6
ATOM      6  C   UNL     1       8.042   0.309  -0.999  1.00  0.00    -0.044 A 
ATOM      7  C   UNL     1       7.661  -0.028  -2.303  1.00  0.00     0.008 A 
ATOM      8  C   UNL     1       9.084  -0.375  -0.416  1.00  0.00     0.054 A 
ATOM      9  C   UNL     1       8.342  -1.037  -2.960  1.00  0.00     0.051 A 
ATOM     10  C   UNL     1       9.769  -1.393  -1.085  1.00  0.00     0.166 A 
ATOM     11  C   UNL     1       9.395  -1.727  -2.368  1.00  0.00     0.165 A 
ATOM     12  O   UNL     1      10.821  -2.210  -0.729  1.00  0.00    -0.454 OA
ATOM     13  O   UNL     1      10.234  -2.752  -2.777  1.00  0.00    -0.454 OA
ATOM     14  C   UNL     1      11.212  -3.027  -1.802  1.00  0.00     0.468 C 
ENDBRANCH   5   6
ENDBRANCH   1   5
TORSDOF 3
ENDMDL
MODEL 4
REMARK VINA RESULT:      -7.4      1.266      1.855
REMARK SMILES CC(=O)CCc1ccc2c(c1)OCO2
REMARK SMILES IDX 4 1 2 2 1 3 3 4 5 5 6 6 7 7 11 8 8 9 10 10 9 11 12 12 14 13
REMARK SMILES IDX 13 14
REMARK H PARENT
REMARK Flexibility Score: inf
ROOT
ATOM      1  C   UNL     1       6.103  -0.859   1.497  1.00  0.00     0.080 C 
ENDROOT
BRANCH   1   2
ATOM      2  C   UNL     1       5.298   0.391   1.579  1.00  0.00     0.130 C 
ATOM      3  C   UNL     1       5.436   1.477   0.572  1.00  0.00     0.087 C 
ATOM      4  O   UNL     1       4.497   0.562   2.484  1.00  0.00    -0.300 OA
ENDBRANCH   1   2
BRANCH   1   5
ATOM      5  C   UNL     1       7.584  -0.571   1.635  1.00  0.00     0.043 C 
BRANCH   5   6
ATOM      6  C   UNL     1       8.350  -1.082   0.484  1.00  0.00    -0.044 A 
ATOM      7  C   UNL     1       9.750  -1.057   0.466  1.00  0.00     0.008 A 
ATOM      8  C   UNL     1       7.684  -1.600  -0.603  1.00  0.00     0.054 A 
ATOM      9  C   UNL     1      10.415  -1.552  -0.641  1.00  0.00     0.051 A 
ATOM     10  C   UNL     1       8.362  -2.099  -1.720  1.00  0.00     0.166 A 
ATOM     11  C   UNL     1       9.738  -2.074  -1.739  1.00  0.00     0.165 A 
ATOM     12  O   UNL     1       7.934  -2.656  -2.906  1.00  0.00    -0.454 OA
ATOM     13  O   UNL     1      10.132  -2.624  -2.949  1.00  0.00    -0.454 OA
ATOM     14  C   UNL     1       9.023  -3.089  -3.681  1.00  0.00     0.468 C 
ENDBRANCH   5   6
ENDBRANCH   1   5
TORSDOF 3
ENDMDL
MODEL 5
REMARK VINA RESULT:      -7.2      1.052      1.502
REMARK SMILES CC(=O)CCc1ccc2c(c1)OCO2
REMARK SMILES IDX 4 1 2 2 1 3 3 4 5 5 6 6 7 7 11 8 8 9 10 10 9 11 12 12 14 13
REMARK SMILES IDX 13 14
REMARK H PARENT
REMARK Flexibility Score: inf
ROOT
ATOM      1  C   UNL     1       6.760   0.310   1.075  1.00  0.00     0.080 C 
ENDROOT
BRANCH   1   2
ATOM      2  C   UNL     1       5.450   0.966   1.345  1.00  0.00     0.130 C 
ATOM      3  C   UNL     1       4.943   2.076   0.495  1.00  0.00     0.087 C 
ATOM      4  O   UNL     1       4.751   0.608   2.279  1.00  0.00    -0.300 OA
ENDBRANCH   1   2
BRANCH   1   5
ATOM      5  C   UNL     1       7.415   0.879  -0.168  1.00  0.00     0.043 C 
BRANCH   5   6
ATOM      6  C   UNL     1       8.287  -0.109  -0.828  1.00  0.00    -0.044 A 
ATOM      7  C   UNL     1       9.609  -0.311  -0.414  1.00  0.00     0.008 A 
ATOM      8  C   UNL     1       7.800  -0.858  -1.874  1.00  0.00     0.054 A 
ATOM      9  C   UNL     1      10.380  -1.253  -1.070  1.00  0.00     0.051 A 
ATOM     10  C   UNL     1       8.584  -1.809  -2.534  1.00  0.00     0.166 A 
ATOM     11  C   UNL     1       9.885  -2.008  -2.129  1.00  0.00     0.165 A 
ATOM     12  O   UNL     1       8.335  -2.666  -3.585  1.00  0.00    -0.454 OA
ATOM     13  O   UNL     1      10.413  -2.994  -2.947  1.00  0.00    -0.454 OA
ATOM     14  C   UNL     1       9.437  -3.503  -3.825  1.00  0.00     0.468 C 
ENDBRANCH   5   6
ENDBRANCH   1   5
TORSDOF 3
ENDMDL
