@<TRIPOS>MOLECULE
/home/cewinharhar/GITHUB/reincatalyze/data/processed/docking_pred/2023-May-25-1902_sub9_nm5_bs15_s42_ex16_mel10_mts10000_k50_ec01_g099_lra3e-4_lrc3e-3/09c0e00cbaa22f287e1ef7d21129eabb08ea3244_ligand_9.pdbqt
 14 15 0 0 0
SMALL
GASTEIGER

@<TRIPOS>ATOM
      1  C          6.1030   -0.8590    1.4970 C.3     1  UNL1        0.0800
      2  C          5.2980    0.3910    1.5790 C.2     1  UNL1        0.1300
      3  C          5.4360    1.4770    0.5720 C.3     1  UNL1        0.0870
      4  O          4.4970    0.5620    2.4840 O.2     1  UNL1       -0.3000
      5  C          7.5840   -0.5710    1.6350 C.3     1  UNL1        0.0430
      6  C          8.3500   -1.0820    0.4840 C.2     1  UNL1       -0.0440
      7  C          9.7500   -1.0570    0.4660 C.2     1  UNL1        0.0080
      8  C          7.6840   -1.6000   -0.6030 C.2     1  UNL1        0.0540
      9  C         10.4150   -1.5520   -0.6410 C.2     1  UNL1        0.0510
     10  C          8.3620   -2.0990   -1.7200 C.2     1  UNL1        0.1660
     11  C          9.7380   -2.0740   -1.7390 C.2     1  UNL1        0.1650
     12  O          7.9340   -2.6560   -2.9060 O.2     1  UNL1       -0.4540
     13  O         10.1320   -2.6240   -2.9490 O.2     1  UNL1       -0.4540
     14  C          9.0230   -3.0890   -3.6810 C.3     1  UNL1        0.4680
@<TRIPOS>BOND
     1    14    13    1
     2    14    12    1
     3    13    11    1
     4    12    10    1
     5    11    10    2
     6    11     9    1
     7    10     8    1
     8     9     7    2
     9     8     6    2
    10     7     6    1
    11     6     5    1
    12     3     2    1
    13     1     2    1
    14     1     5    1
    15     2     4    2
