@<TRIPOS>MOLECULE
/home/cewinharhar/GITHUB/reincatalyze/data/processed/docking_pred/2023-May-25-1902_sub9_nm5_bs15_s42_ex16_mel10_mts10000_k50_ec01_g099_lra3e-4_lrc3e-3/09c0e00cbaa22f287e1ef7d21129eabb08ea3244_ligand_9.pdbqt
 14 15 0 0 0
SMALL
GASTEIGER

@<TRIPOS>ATOM
      1  C          6.7600    0.3100    1.0750 C.3     1  UNL1        0.0800
      2  C          5.4500    0.9660    1.3450 C.2     1  UNL1        0.1300
      3  C          4.9430    2.0760    0.4950 C.3     1  UNL1        0.0870
      4  O          4.7510    0.6080    2.2790 O.2     1  UNL1       -0.3000
      5  C          7.4150    0.8790   -0.1680 C.3     1  UNL1        0.0430
      6  C          8.2870   -0.1090   -0.8280 C.2     1  UNL1       -0.0440
      7  C          9.6090   -0.3110   -0.4140 C.2     1  UNL1        0.0080
      8  C          7.8000   -0.8580   -1.8740 C.2     1  UNL1        0.0540
      9  C         10.3800   -1.2530   -1.0700 C.2     1  UNL1        0.0510
     10  C          8.5840   -1.8090   -2.5340 C.2     1  UNL1        0.1660
     11  C          9.8850   -2.0080   -2.1290 C.2     1  UNL1        0.1650
     12  O          8.3350   -2.6660   -3.5850 O.2     1  UNL1       -0.4540
     13  O         10.4130   -2.9940   -2.9470 O.2     1  UNL1       -0.4540
     14  C          9.4370   -3.5030   -3.8250 C.3     1  UNL1        0.4680
@<TRIPOS>BOND
     1    14    12    1
     2    14    13    1
     3    12    10    1
     4    13    11    1
     5    10    11    2
     6    10     8    1
     7    11     9    1
     8     8     6    2
     9     9     7    2
    10     6     7    1
    11     6     5    1
    12     5     1    1
    13     3     2    1
    14     1     2    1
    15     2     4    2
