@<TRIPOS>MOLECULE
/home/cewinharhar/GITHUB/reincatalyze/data/processed/docking_pred/2023-May-25-1902_sub9_nm5_bs15_s42_ex16_mel10_mts10000_k50_ec01_g099_lra3e-4_lrc3e-3/0bc78f1071f374665515956646110ea4a2a90639_ligand_9.pdbqt
 14 15 0 0 0
SMALL
GASTEIGER

@<TRIPOS>ATOM
      1  C          5.5130    1.8990    1.2570 C.3     1  UNL1        0.0800
      2  C          5.0410    0.6940    1.9950 C.2     1  UNL1        0.1300
      3  C          5.8830   -0.5260    2.1170 C.3     1  UNL1        0.0870
      4  O          3.9420    0.6750    2.5250 O.2     1  UNL1       -0.3000
      5  C          5.3900    1.7090   -0.2420 C.3     1  UNL1        0.0430
      6  C          6.5640    1.0150   -0.8030 C.2     1  UNL1       -0.0440
      7  C          7.8670    1.4630   -0.5590 C.2     1  UNL1        0.0080
      8  C          6.3850   -0.1040   -1.5840 C.2     1  UNL1        0.0540
      9  C          8.9290    0.7710   -1.1100 C.2     1  UNL1        0.0510
     10  C          7.4630   -0.8010   -2.1390 C.2     1  UNL1        0.1660
     11  C          8.7450   -0.3590   -1.9010 C.2     1  UNL1        0.1650
     12  O          7.5460   -1.9210   -2.9380 O.2     1  UNL1       -0.4540
     13  O          9.5980   -1.2270   -2.5640 O.2     1  UNL1       -0.4540
     14  C          8.8850   -2.2850   -3.1590 C.3     1  UNL1        0.4680
@<TRIPOS>BOND
     1    14    12    1
     2    14    13    1
     3    12    10    1
     4    13    11    1
     5    10    11    2
     6    10     8    1
     7    11     9    1
     8     8     6    2
     9     9     7    2
    10     6     7    1
    11     6     5    1
    12     5     1    1
    13     1     2    1
    14     2     3    1
    15     2     4    2
