@<TRIPOS>MOLECULE
/home/cewinharhar/GITHUB/reincatalyze/data/processed/docking_pred/2023-May-25-1902_sub9_nm5_bs15_s42_ex16_mel10_mts10000_k50_ec01_g099_lra3e-4_lrc3e-3/0df60b8790b800bbceb9ee276e91b409308b6f54_ligand_9.pdbqt
 14 15 0 0 0
SMALL
GASTEIGER

@<TRIPOS>ATOM
      1  C          5.7210    1.3530   -0.3030 C.3     1  UNL1        0.0800
      2  C          5.1160    1.2830    1.0570 C.2     1  UNL1        0.1300
      3  C          5.4160    0.1620    1.9880 C.3     1  UNL1        0.0870
      4  O          4.3510    2.1490    1.4470 O.2     1  UNL1       -0.3000
      5  C          7.2180    1.1180   -0.2510 C.3     1  UNL1        0.0430
      6  C          7.5900   -0.1740   -0.8550 C.2     1  UNL1       -0.0440
      7  C          7.6480   -0.3450   -2.2430 C.2     1  UNL1        0.0080
      8  C          7.8930   -1.2440   -0.0440 C.2     1  UNL1        0.0540
      9  C          8.0040   -1.5800   -2.7520 C.2     1  UNL1        0.0510
     10  C          8.2530   -2.4910   -0.5640 C.2     1  UNL1        0.1660
     11  C          8.3090   -2.6600   -1.9290 C.2     1  UNL1        0.1650
     12  O          8.5930   -3.6910    0.0230 O.2     1  UNL1       -0.4540
     13  O          8.6870   -3.9750   -2.1550 O.2     1  UNL1       -0.4540
     14  C          8.9650   -4.6380   -0.9450 C.3     1  UNL1        0.4680
@<TRIPOS>BOND
     1     9     7    1
     2     9    11    2
     3     7     6    2
     4    13    11    1
     5    13    14    1
     6    11    10    1
     7    14    12    1
     8     6     5    1
     9     6     8    1
    10    10     8    2
    11    10    12    1
    12     1     5    1
    13     1     2    1
    14     2     4    2
    15     2     3    1
