@<TRIPOS>MOLECULE
/home/cewinharhar/GITHUB/reincatalyze/data/processed/docking_pred/2023-May-25-1902_sub9_nm5_bs15_s42_ex16_mel10_mts10000_k50_ec01_g099_lra3e-4_lrc3e-3/107d9fe849eadfc4c8ef3d04203b28ca0debfaf3_ligand_9.pdbqt
 14 15 0 0 0
SMALL
GASTEIGER

@<TRIPOS>ATOM
      1  C          5.5330    1.9060    1.2730 C.3     1  UNL1        0.0800
      2  C          5.0940    0.6860    2.0060 C.2     1  UNL1        0.1300
      3  C          5.9890   -0.4900    2.1730 C.3     1  UNL1        0.0870
      4  O          3.9780    0.6160    2.4950 O.2     1  UNL1       -0.3000
      5  C          5.4070    1.7220   -0.2260 C.3     1  UNL1        0.0430
      6  C          6.5730    1.0200   -0.7910 C.2     1  UNL1       -0.0440
      7  C          7.8810    1.4490   -0.5380 C.2     1  UNL1        0.0080
      8  C          6.3830   -0.0880   -1.5850 C.2     1  UNL1        0.0540
      9  C          8.9360    0.7500   -1.0940 C.2     1  UNL1        0.0510
     10  C          7.4540   -0.7920   -2.1450 C.2     1  UNL1        0.1660
     11  C          8.7410   -0.3700   -1.8970 C.2     1  UNL1        0.1650
     12  O          7.5250   -1.9050   -2.9550 O.2     1  UNL1       -0.4540
     13  O          9.5850   -1.2410   -2.5680 O.2     1  UNL1       -0.4540
     14  C          8.8600   -2.2830   -3.1770 C.3     1  UNL1        0.4680
@<TRIPOS>BOND
     1    14    12    1
     2    14    13    1
     3    12    10    1
     4    13    11    1
     5    10    11    2
     6    10     8    1
     7    11     9    1
     8     8     6    2
     9     9     7    2
    10     6     7    1
    11     6     5    1
    12     5     1    1
    13     1     2    1
    14     2     3    1
    15     2     4    2
