@<TRIPOS>MOLECULE
/home/cewinharhar/GITHUB/reincatalyze/data/processed/docking_pred/2023-May-25-1902_sub9_nm5_bs15_s42_ex16_mel10_mts10000_k50_ec01_g099_lra3e-4_lrc3e-3/107d9fe849eadfc4c8ef3d04203b28ca0debfaf3_ligand_9.pdbqt
 14 15 0 0 0
SMALL
GASTEIGER

@<TRIPOS>ATOM
      1  C          5.7300    1.1630   -0.3040 C.3     1  UNL1        0.0800
      2  C          5.1870    1.1760    1.0830 C.2     1  UNL1        0.1300
      3  C          5.4170    0.0460    2.0230 C.3     1  UNL1        0.0870
      4  O          4.5320    2.1220    1.4910 O.2     1  UNL1       -0.3000
      5  C          7.2380    1.0060   -0.3020 C.3     1  UNL1        0.0430
      6  C          7.6540   -0.2840   -0.8820 C.2     1  UNL1       -0.0440
      7  C          7.8020   -0.4520   -2.2640 C.2     1  UNL1        0.0080
      8  C          7.9070   -1.3540   -0.0550 C.2     1  UNL1        0.0540
      9  C          8.1950   -1.6860   -2.7510 C.2     1  UNL1        0.0510
     10  C          8.3060   -2.5980   -0.5520 C.2     1  UNL1        0.1660
     11  C          8.4500   -2.7660   -1.9110 C.2     1  UNL1        0.1650
     12  O          8.6120   -3.7980    0.0540 O.2     1  UNL1       -0.4540
     13  O          8.8480   -4.0780   -2.1130 O.2     1  UNL1       -0.4540
     14  C          9.0500   -4.7420   -0.8890 C.3     1  UNL1        0.4680
@<TRIPOS>BOND
     1     9     7    1
     2     9    11    2
     3     7     6    2
     4    13    11    1
     5    13    14    1
     6    11    10    1
     7    14    12    1
     8     6     5    1
     9     6     8    1
    10    10     8    2
    11    10    12    1
    12     1     5    1
    13     1     2    1
    14     2     4    2
    15     2     3    1
