@<TRIPOS>MOLECULE
/home/cewinharhar/GITHUB/reincatalyze/data/processed/docking_pred/2023-May-25-1902_sub9_nm5_bs15_s42_ex16_mel10_mts10000_k50_ec01_g099_lra3e-4_lrc3e-3/107d9fe849eadfc4c8ef3d04203b28ca0debfaf3_ligand_9.pdbqt
 14 15 0 0 0
SMALL
GASTEIGER

@<TRIPOS>ATOM
      1  C          6.8150    0.7610    1.3150 C.3     1  UNL1        0.0800
      2  C          5.3730    1.0690    1.5250 C.2     1  UNL1        0.1300
      3  C          4.6860    2.1490    0.7670 C.3     1  UNL1        0.0870
      4  O          4.7090    0.4400    2.3330 O.2     1  UNL1       -0.3000
      5  C          7.2150    0.9640   -0.1330 C.3     1  UNL1        0.0430
      6  C          7.6100   -0.3030   -0.7730 C.2     1  UNL1       -0.0440
      7  C          7.6600   -0.4370   -2.1650 C.2     1  UNL1        0.0080
      8  C          7.9430   -1.3870    0.0070 C.2     1  UNL1        0.0540
      9  C          8.0380   -1.6510   -2.7100 C.2     1  UNL1        0.0510
     10  C          8.3260   -2.6120   -0.5480 C.2     1  UNL1        0.1660
     11  C          8.3740   -2.7450   -1.9180 C.2     1  UNL1        0.1650
     12  O          8.6970   -3.8190    0.0050 O.2     1  UNL1       -0.4540
     13  O          8.7780   -4.0440   -2.1810 O.2     1  UNL1       -0.4540
     14  C          9.0820   -4.7320   -0.9910 C.3     1  UNL1        0.4680
@<TRIPOS>BOND
     1     9     7    1
     2     9    11    2
     3    13    11    1
     4    13    14    1
     5     7     6    2
     6    11    10    1
     7    14    12    1
     8     6     5    1
     9     6     8    1
    10    10    12    1
    11    10     8    2
    12     5     1    1
    13     3     2    1
    14     1     2    1
    15     2     4    2
