@<TRIPOS>MOLECULE
/home/cewinharhar/GITHUB/reincatalyze/data/processed/docking_pred/2023-May-25-1902_sub9_nm5_bs15_s42_ex16_mel10_mts10000_k50_ec01_g099_lra3e-4_lrc3e-3/107d9fe849eadfc4c8ef3d04203b28ca0debfaf3_ligand_9.pdbqt
 14 15 0 0 0
SMALL
GASTEIGER

@<TRIPOS>ATOM
      1  C          5.4410   -0.0230    2.0030 C.3     1  UNL1        0.0800
      2  C          4.6120    1.1780    1.7030 C.2     1  UNL1        0.1300
      3  C          4.9990    2.1490    0.6450 C.3     1  UNL1        0.0870
      4  O          3.5850    1.4010    2.3230 O.2     1  UNL1       -0.3000
      5  C          6.8890    0.1960    1.6130 C.3     1  UNL1        0.0430
      6  C          7.3030   -0.7050    0.5220 C.2     1  UNL1       -0.0440
      7  C          7.1690   -0.3380   -0.8220 C.2     1  UNL1        0.0080
      8  C          7.8380   -1.9370    0.8210 C.2     1  UNL1        0.0540
      9  C          7.5760   -1.2240   -1.8030 C.2     1  UNL1        0.0510
     10  C          8.2480   -2.8290   -0.1740 C.2     1  UNL1        0.1660
     11  C          8.1160   -2.4700   -1.4970 C.2     1  UNL1        0.1650
     12  O          8.8010   -4.0920   -0.1350 O.2     1  UNL1       -0.4540
     13  O          8.5950   -3.5300   -2.2500 O.2     1  UNL1       -0.4540
     14  C          9.1230   -4.5420   -1.4260 C.3     1  UNL1        0.4680
@<TRIPOS>BOND
     1    13    11    1
     2    13    14    1
     3     9    11    2
     4     9     7    1
     5    11    10    1
     6    14    12    1
     7     7     6    2
     8    10    12    1
     9    10     8    2
    10     6     8    1
    11     6     5    1
    12     3     2    1
    13     5     1    1
    14     2     1    1
    15     2     4    2
