MODEL 1
REMARK VINA RESULT:      -7.6      0.000      0.000
REMARK SMILES CC(=O)CCc1ccc2c(c1)OCO2
REMARK SMILES IDX 4 1 2 2 1 3 3 4 5 5 6 6 7 7 11 8 8 9 10 10 9 11 12 12 14 13
REMARK SMILES IDX 13 14
REMARK H PARENT
REMARK Flexibility Score: inf
ROOT
ATOM      1  C   UNL     1       5.533   1.906   1.273  1.00  0.00     0.080 C 
ENDROOT
BRANCH   1   2
ATOM      2  C   UNL     1       5.094   0.686   2.006  1.00  0.00     0.130 C 
ATOM      3  C   UNL     1       5.989  -0.490   2.173  1.00  0.00     0.087 C 
ATOM      4  O   UNL     1       3.978   0.616   2.495  1.00  0.00    -0.300 OA
ENDBRANCH   1   2
BRANCH   1   5
ATOM      5  C   UNL     1       5.407   1.722  -0.226  1.00  0.00     0.043 C 
BRANCH   5   6
ATOM      6  C   UNL     1       6.573   1.020  -0.791  1.00  0.00    -0.044 A 
ATOM      7  C   UNL     1       7.881   1.449  -0.538  1.00  0.00     0.008 A 
ATOM      8  C   UNL     1       6.383  -0.088  -1.585  1.00  0.00     0.054 A 
ATOM      9  C   UNL     1       8.936   0.750  -1.094  1.00  0.00     0.051 A 
ATOM     10  C   UNL     1       7.454  -0.792  -2.145  1.00  0.00     0.166 A 
ATOM     11  C   UNL     1       8.741  -0.370  -1.897  1.00  0.00     0.165 A 
ATOM     12  O   UNL     1       7.525  -1.905  -2.955  1.00  0.00    -0.454 OA
ATOM     13  O   UNL     1       9.585  -1.241  -2.568  1.00  0.00    -0.454 OA
ATOM     14  C   UNL     1       8.860  -2.283  -3.177  1.00  0.00     0.468 C 
ENDBRANCH   5   6
ENDBRANCH   1   5
TORSDOF 3
ENDMDL
MODEL 2
REMARK VINA RESULT:      -7.4      1.977      2.443
REMARK SMILES CC(=O)CCc1ccc2c(c1)OCO2
REMARK SMILES IDX 4 1 2 2 1 3 3 4 5 5 6 6 7 7 11 8 8 9 10 10 9 11 12 12 14 13
REMARK SMILES IDX 13 14
REMARK H PARENT
REMARK Flexibility Score: inf
ROOT
ATOM      1  C   UNL     1       5.730   1.163  -0.304  1.00  0.00     0.080 C 
ENDROOT
BRANCH   1   2
ATOM      2  C   UNL     1       5.187   1.176   1.083  1.00  0.00     0.130 C 
ATOM      3  C   UNL     1       5.417   0.046   2.023  1.00  0.00     0.087 C 
ATOM      4  O   UNL     1       4.532   2.122   1.491  1.00  0.00    -0.300 OA
ENDBRANCH   1   2
BRANCH   1   5
ATOM      5  C   UNL     1       7.238   1.006  -0.302  1.00  0.00     0.043 C 
BRANCH   5   6
ATOM      6  C   UNL     1       7.654  -0.284  -0.882  1.00  0.00    -0.044 A 
ATOM      7  C   UNL     1       7.802  -0.452  -2.264  1.00  0.00     0.008 A 
ATOM      8  C   UNL     1       7.907  -1.354  -0.055  1.00  0.00     0.054 A 
ATOM      9  C   UNL     1       8.195  -1.686  -2.751  1.00  0.00     0.051 A 
ATOM     10  C   UNL     1       8.306  -2.598  -0.552  1.00  0.00     0.166 A 
ATOM     11  C   UNL     1       8.450  -2.766  -1.911  1.00  0.00     0.165 A 
ATOM     12  O   UNL     1       8.612  -3.798   0.054  1.00  0.00    -0.454 OA
ATOM     13  O   UNL     1       8.848  -4.078  -2.113  1.00  0.00    -0.454 OA
ATOM     14  C   UNL     1       9.050  -4.742  -0.889  1.00  0.00     0.468 C 
ENDBRANCH   5   6
ENDBRANCH   1   5
TORSDOF 3
ENDMDL
MODEL 3
REMARK VINA RESULT:      -7.1      2.011      2.577
REMARK SMILES CC(=O)CCc1ccc2c(c1)OCO2
REMARK SMILES IDX 4 1 2 2 1 3 3 4 5 5 6 6 7 7 11 8 8 9 10 10 9 11 12 12 14 13
REMARK SMILES IDX 13 14
REMARK H PARENT
REMARK Flexibility Score: inf
ROOT
ATOM      1  C   UNL     1       5.441  -0.023   2.003  1.00  0.00     0.080 C 
ENDROOT
BRANCH   1   2
ATOM      2  C   UNL     1       4.612   1.178   1.703  1.00  0.00     0.130 C 
ATOM      3  C   UNL     1       4.999   2.149   0.645  1.00  0.00     0.087 C 
ATOM      4  O   UNL     1       3.585   1.401   2.323  1.00  0.00    -0.300 OA
ENDBRANCH   1   2
BRANCH   1   5
ATOM      5  C   UNL     1       6.889   0.196   1.613  1.00  0.00     0.043 C 
BRANCH   5   6
ATOM      6  C   UNL     1       7.303  -0.705   0.522  1.00  0.00    -0.044 A 
ATOM      7  C   UNL     1       7.169  -0.338  -0.822  1.00  0.00     0.008 A 
ATOM      8  C   UNL     1       7.838  -1.937   0.821  1.00  0.00     0.054 A 
ATOM      9  C   UNL     1       7.576  -1.224  -1.803  1.00  0.00     0.051 A 
ATOM     10  C   UNL     1       8.248  -2.829  -0.174  1.00  0.00     0.166 A 
ATOM     11  C   UNL     1       8.116  -2.470  -1.497  1.00  0.00     0.165 A 
ATOM     12  O   UNL     1       8.801  -4.092  -0.135  1.00  0.00    -0.454 OA
ATOM     13  O   UNL     1       8.595  -3.530  -2.250  1.00  0.00    -0.454 OA
ATOM     14  C   UNL     1       9.123  -4.542  -1.426  1.00  0.00     0.468 C 
ENDBRANCH   5   6
ENDBRANCH   1   5
TORSDOF 3
ENDMDL
MODEL 4
REMARK VINA RESULT:      -7.1      1.238      1.437
REMARK SMILES CC(=O)CCc1ccc2c(c1)OCO2
REMARK SMILES IDX 4 1 2 2 1 3 3 4 5 5 6 6 7 7 11 8 8 9 10 10 9 11 12 12 14 13
REMARK SMILES IDX 13 14
REMARK H PARENT
REMARK Flexibility Score: inf
ROOT
ATOM      1  C   UNL     1       6.336   1.272   0.853  1.00  0.00     0.080 C 
ENDROOT
BRANCH   1   2
ATOM      2  C   UNL     1       5.653   0.467   1.904  1.00  0.00     0.130 C 
ATOM      3  C   UNL     1       6.272  -0.760   2.473  1.00  0.00     0.087 C 
ATOM      4  O   UNL     1       4.558   0.794   2.331  1.00  0.00    -0.300 OA
ENDBRANCH   1   2
BRANCH   1   5
ATOM      5  C   UNL     1       5.824   0.920  -0.529  1.00  0.00     0.043 C 
BRANCH   5   6
ATOM      6  C   UNL     1       6.796   0.106  -1.281  1.00  0.00    -0.044 A 
ATOM      7  C   UNL     1       7.522   0.636  -2.354  1.00  0.00     0.008 A 
ATOM      8  C   UNL     1       7.004  -1.208  -0.926  1.00  0.00     0.054 A 
ATOM      9  C   UNL     1       8.421  -0.175  -3.021  1.00  0.00     0.051 A 
ATOM     10  C   UNL     1       7.915  -2.024  -1.604  1.00  0.00     0.166 A 
ATOM     11  C   UNL     1       8.629  -1.503  -2.661  1.00  0.00     0.165 A 
ATOM     12  O   UNL     1       8.295  -3.340  -1.448  1.00  0.00    -0.454 OA
ATOM     13  O   UNL     1       9.442  -2.521  -3.135  1.00  0.00    -0.454 OA
ATOM     14  C   UNL     1       9.329  -3.675  -2.338  1.00  0.00     0.468 C 
ENDBRANCH   5   6
ENDBRANCH   1   5
TORSDOF 3
ENDMDL
MODEL 5
REMARK VINA RESULT:      -6.9      1.977      2.523
REMARK SMILES CC(=O)CCc1ccc2c(c1)OCO2
REMARK SMILES IDX 4 1 2 2 1 3 3 4 5 5 6 6 7 7 11 8 8 9 10 10 9 11 12 12 14 13
REMARK SMILES IDX 13 14
REMARK H PARENT
REMARK Flexibility Score: inf
ROOT
ATOM      1  C   UNL     1       6.815   0.761   1.315  1.00  0.00     0.080 C 
ENDROOT
BRANCH   1   2
ATOM      2  C   UNL     1       5.373   1.069   1.525  1.00  0.00     0.130 C 
ATOM      3  C   UNL     1       4.686   2.149   0.767  1.00  0.00     0.087 C 
ATOM      4  O   UNL     1       4.709   0.440   2.333  1.00  0.00    -0.300 OA
ENDBRANCH   1   2
BRANCH   1   5
ATOM      5  C   UNL     1       7.215   0.964  -0.133  1.00  0.00     0.043 C 
BRANCH   5   6
ATOM      6  C   UNL     1       7.610  -0.303  -0.773  1.00  0.00    -0.044 A 
ATOM      7  C   UNL     1       7.660  -0.437  -2.165  1.00  0.00     0.008 A 
ATOM      8  C   UNL     1       7.943  -1.387   0.007  1.00  0.00     0.054 A 
ATOM      9  C   UNL     1       8.038  -1.651  -2.710  1.00  0.00     0.051 A 
ATOM     10  C   UNL     1       8.326  -2.612  -0.548  1.00  0.00     0.166 A 
ATOM     11  C   UNL     1       8.374  -2.745  -1.918  1.00  0.00     0.165 A 
ATOM     12  O   UNL     1       8.697  -3.819   0.005  1.00  0.00    -0.454 OA
ATOM     13  O   UNL     1       8.778  -4.044  -2.181  1.00  0.00    -0.454 OA
ATOM     14  C   UNL     1       9.082  -4.732  -0.991  1.00  0.00     0.468 C 
ENDBRANCH   5   6
ENDBRANCH   1   5
TORSDOF 3
ENDMDL
