@<TRIPOS>MOLECULE
/home/cewinharhar/GITHUB/reincatalyze/data/processed/docking_pred/2023-May-25-1902_sub9_nm5_bs15_s42_ex16_mel10_mts10000_k50_ec01_g099_lra3e-4_lrc3e-3/10ef791c1764d6d7d99274693c0e95c254b80295_ligand_9.pdbqt
 14 15 0 0 0
SMALL
GASTEIGER

@<TRIPOS>ATOM
      1  C          9.6500    1.3820    2.6440 C.3     1  UNL1        0.0800
      2  C         11.0920    1.0110    2.6750 C.2     1  UNL1        0.1300
      3  C         12.0680    1.7450    3.5240 C.3     1  UNL1        0.0870
      4  O         11.5160    0.0870    2.0000 O.2     1  UNL1       -0.3000
      5  C          9.2880    2.0740    1.3440 C.3     1  UNL1        0.0430
      6  C          8.5380    1.1820    0.4410 C.2     1  UNL1       -0.0440
      7  C          7.1480    1.0440    0.5350 C.2     1  UNL1        0.0080
      8  C          9.2100    0.4660   -0.5230 C.2     1  UNL1        0.0540
      9  C          6.4980    0.1930   -0.3400 C.2     1  UNL1        0.0510
     10  C          8.5480   -0.3920   -1.4060 C.2     1  UNL1        0.1660
     11  C          7.1810   -0.5300   -1.3130 C.2     1  UNL1        0.1650
     12  O          8.9840   -1.2020   -2.4340 O.2     1  UNL1       -0.4540
     13  O          6.8010   -1.4300   -2.2970 O.2     1  UNL1       -0.4540
     14  C          7.9010   -1.8110   -3.0890 C.3     1  UNL1        0.4680
@<TRIPOS>BOND
     1    14    12    1
     2    14    13    1
     3    12    10    1
     4    13    11    1
     5    10    11    2
     6    10     8    1
     7    11     9    1
     8     8     6    2
     9     9     7    2
    10     6     7    1
    11     6     5    1
    12     5     1    1
    13     4     2    2
    14     1     2    1
    15     2     3    1
