@<TRIPOS>MOLECULE
/home/cewinharhar/GITHUB/reincatalyze/data/processed/docking_pred/2023-May-25-1902_sub9_nm5_bs15_s42_ex16_mel10_mts10000_k50_ec01_g099_lra3e-4_lrc3e-3/10ef791c1764d6d7d99274693c0e95c254b80295_ligand_9.pdbqt
 14 15 0 0 0
SMALL
GASTEIGER

@<TRIPOS>ATOM
      1  C          5.7750    0.2360    1.5530 C.3     1  UNL1        0.0800
      2  C          5.0430    1.4210    1.0250 C.2     1  UNL1        0.1300
      3  C          5.3310    1.9790   -0.3230 C.3     1  UNL1        0.0870
      4  O          4.1810    1.9720    1.6900 O.2     1  UNL1       -0.3000
      5  C          7.0200   -0.0510    0.7370 C.3     1  UNL1        0.0430
      6  C          8.2360    0.4530    1.4000 C.2     1  UNL1       -0.0440
      7  C          8.2060    1.5830    2.2260 C.2     1  UNL1        0.0080
      8  C          9.4350   -0.1960    1.2110 C.2     1  UNL1        0.0540
      9  C          9.3790    2.0090    2.8220 C.2     1  UNL1        0.0510
     10  C         10.6180    0.2390    1.8170 C.2     1  UNL1        0.1660
     11  C         10.5890    1.3510    2.6290 C.2     1  UNL1        0.1650
     12  O         11.9150   -0.2270    1.7860 O.2     1  UNL1       -0.4540
     13  O         11.8830    1.5470    3.0850 O.2     1  UNL1       -0.4540
     14  C         12.7380    0.5170    2.6490 C.3     1  UNL1        0.4680
@<TRIPOS>BOND
     1     3     2    1
     2     5     6    1
     3     5     1    1
     4     2     1    1
     5     2     4    2
     6     8     6    2
     7     8    10    1
     8     6     7    1
     9    12    10    1
    10    12    14    1
    11    10    11    2
    12     7     9    2
    13    11     9    1
    14    11    13    1
    15    14    13    1
