MODEL 1
REMARK VINA RESULT:      -7.6      0.000      0.000
REMARK SMILES CC(=O)CCc1ccc2c(c1)OCO2
REMARK SMILES IDX 4 1 2 2 1 3 3 4 5 5 6 6 7 7 11 8 8 9 10 10 9 11 12 12 14 13
REMARK SMILES IDX 13 14
REMARK H PARENT
REMARK Flexibility Score: inf
ROOT
ATOM      1  C   UNL     1       5.554   1.904   1.297  1.00  0.00     0.080 C 
ENDROOT
BRANCH   1   2
ATOM      2  C   UNL     1       5.100   0.688   2.028  1.00  0.00     0.130 C 
ATOM      3  C   UNL     1       5.987  -0.493   2.205  1.00  0.00     0.087 C 
ATOM      4  O   UNL     1       3.979   0.627   2.505  1.00  0.00    -0.300 OA
ENDBRANCH   1   2
BRANCH   1   5
ATOM      5  C   UNL     1       5.418   1.728  -0.203  1.00  0.00     0.043 C 
BRANCH   5   6
ATOM      6  C   UNL     1       6.581   1.029  -0.779  1.00  0.00    -0.044 A 
ATOM      7  C   UNL     1       7.889   1.467  -0.545  1.00  0.00     0.008 A 
ATOM      8  C   UNL     1       6.387  -0.085  -1.564  1.00  0.00     0.054 A 
ATOM      9  C   UNL     1       8.941   0.770  -1.111  1.00  0.00     0.051 A 
ATOM     10  C   UNL     1       7.454  -0.786  -2.134  1.00  0.00     0.166 A 
ATOM     11  C   UNL     1       8.742  -0.355  -1.905  1.00  0.00     0.165 A 
ATOM     12  O   UNL     1       7.521  -1.903  -2.940  1.00  0.00    -0.454 OA
ATOM     13  O   UNL     1       9.582  -1.225  -2.582  1.00  0.00    -0.454 OA
ATOM     14  C   UNL     1       8.855  -2.274  -3.176  1.00  0.00     0.468 C 
ENDBRANCH   5   6
ENDBRANCH   1   5
TORSDOF 3
ENDMDL
MODEL 2
REMARK VINA RESULT:      -7.5      1.925      2.381
REMARK SMILES CC(=O)CCc1ccc2c(c1)OCO2
REMARK SMILES IDX 4 1 2 2 1 3 3 4 5 5 6 6 7 7 11 8 8 9 10 10 9 11 12 12 14 13
REMARK SMILES IDX 13 14
REMARK H PARENT
REMARK Flexibility Score: inf
ROOT
ATOM      1  C   UNL     1       5.743   1.361  -0.300  1.00  0.00     0.080 C 
ENDROOT
BRANCH   1   2
ATOM      2  C   UNL     1       5.109   1.267   1.045  1.00  0.00     0.130 C 
ATOM      3  C   UNL     1       5.347   0.104   1.941  1.00  0.00     0.087 C 
ATOM      4  O   UNL     1       4.371   2.149   1.453  1.00  0.00    -0.300 OA
ENDBRANCH   1   2
BRANCH   1   5
ATOM      5  C   UNL     1       7.236   1.113  -0.223  1.00  0.00     0.043 C 
BRANCH   5   6
ATOM      6  C   UNL     1       7.608  -0.174  -0.837  1.00  0.00    -0.044 A 
ATOM      7  C   UNL     1       7.680  -0.330  -2.226  1.00  0.00     0.008 A 
ATOM      8  C   UNL     1       7.897  -1.254  -0.035  1.00  0.00     0.054 A 
ATOM      9  C   UNL     1       8.036  -1.561  -2.745  1.00  0.00     0.051 A 
ATOM     10  C   UNL     1       8.257  -2.497  -0.565  1.00  0.00     0.166 A 
ATOM     11  C   UNL     1       8.326  -2.652  -1.931  1.00  0.00     0.165 A 
ATOM     12  O   UNL     1       8.584  -3.705   0.013  1.00  0.00    -0.454 OA
ATOM     13  O   UNL     1       8.700  -3.965  -2.167  1.00  0.00    -0.454 OA
ATOM     14  C   UNL     1       8.963  -4.644  -0.962  1.00  0.00     0.468 C 
ENDBRANCH   5   6
ENDBRANCH   1   5
TORSDOF 3
ENDMDL
MODEL 3
REMARK VINA RESULT:      -7.2      2.064      2.621
REMARK SMILES CC(=O)CCc1ccc2c(c1)OCO2
REMARK SMILES IDX 4 1 2 2 1 3 3 4 5 5 6 6 7 7 11 8 8 9 10 10 9 11 12 12 14 13
REMARK SMILES IDX 13 14
REMARK H PARENT
REMARK Flexibility Score: inf
ROOT
ATOM      1  C   UNL     1       5.454  -0.020   1.998  1.00  0.00     0.080 C 
ENDROOT
BRANCH   1   2
ATOM      2  C   UNL     1       4.581   1.157   1.731  1.00  0.00     0.130 C 
ATOM      3  C   UNL     1       4.883   2.123   0.642  1.00  0.00     0.087 C 
ATOM      4  O   UNL     1       3.585   1.363   2.406  1.00  0.00    -0.300 OA
ENDBRANCH   1   2
BRANCH   1   5
ATOM      5  C   UNL     1       6.878   0.237   1.545  1.00  0.00     0.043 C 
BRANCH   5   6
ATOM      6  C   UNL     1       7.296  -0.707   0.493  1.00  0.00    -0.044 A 
ATOM      7  C   UNL     1       7.162  -0.397  -0.865  1.00  0.00     0.008 A 
ATOM      8  C   UNL     1       7.834  -1.924   0.843  1.00  0.00     0.054 A 
ATOM      9  C   UNL     1       7.573  -1.322  -1.808  1.00  0.00     0.051 A 
ATOM     10  C   UNL     1       8.248  -2.856  -0.114  1.00  0.00     0.166 A 
ATOM     11  C   UNL     1       8.115  -2.552  -1.450  1.00  0.00     0.165 A 
ATOM     12  O   UNL     1       8.803  -4.114  -0.021  1.00  0.00    -0.454 OA
ATOM     13  O   UNL     1       8.599  -3.641  -2.158  1.00  0.00    -0.454 OA
ATOM     14  C   UNL     1       9.128  -4.616  -1.292  1.00  0.00     0.468 C 
ENDBRANCH   5   6
ENDBRANCH   1   5
TORSDOF 3
ENDMDL
MODEL 4
REMARK VINA RESULT:      -7.1      1.256      1.479
REMARK SMILES CC(=O)CCc1ccc2c(c1)OCO2
REMARK SMILES IDX 4 1 2 2 1 3 3 4 5 5 6 6 7 7 11 8 8 9 10 10 9 11 12 12 14 13
REMARK SMILES IDX 13 14
REMARK H PARENT
REMARK Flexibility Score: inf
ROOT
ATOM      1  C   UNL     1       6.381   1.181   0.907  1.00  0.00     0.080 C 
ENDROOT
BRANCH   1   2
ATOM      2  C   UNL     1       5.669   0.365   1.929  1.00  0.00     0.130 C 
ATOM      3  C   UNL     1       6.272  -0.867   2.503  1.00  0.00     0.087 C 
ATOM      4  O   UNL     1       4.561   0.687   2.327  1.00  0.00    -0.300 OA
ENDBRANCH   1   2
BRANCH   1   5
ATOM      5  C   UNL     1       5.869   0.885  -0.489  1.00  0.00     0.043 C 
BRANCH   5   6
ATOM      6  C   UNL     1       6.822   0.067  -1.259  1.00  0.00    -0.044 A 
ATOM      7  C   UNL     1       7.513   0.587  -2.359  1.00  0.00     0.008 A 
ATOM      8  C   UNL     1       7.049  -1.241  -0.894  1.00  0.00     0.054 A 
ATOM      9  C   UNL     1       8.396  -0.227  -3.044  1.00  0.00     0.051 A 
ATOM     10  C   UNL     1       7.943  -2.060  -1.589  1.00  0.00     0.166 A 
ATOM     11  C   UNL     1       8.622  -1.549  -2.673  1.00  0.00     0.165 A 
ATOM     12  O   UNL     1       8.336  -3.372  -1.427  1.00  0.00    -0.454 OA
ATOM     13  O   UNL     1       9.427  -2.568  -3.158  1.00  0.00    -0.454 OA
ATOM     14  C   UNL     1       9.344  -3.713  -2.344  1.00  0.00     0.468 C 
ENDBRANCH   5   6
ENDBRANCH   1   5
TORSDOF 3
ENDMDL
MODEL 5
REMARK VINA RESULT:      -6.9      1.939      2.491
REMARK SMILES CC(=O)CCc1ccc2c(c1)OCO2
REMARK SMILES IDX 4 1 2 2 1 3 3 4 5 5 6 6 7 7 11 8 8 9 10 10 9 11 12 12 14 13
REMARK SMILES IDX 13 14
REMARK H PARENT
REMARK Flexibility Score: inf
ROOT
ATOM      1  C   UNL     1       6.982   1.024   1.187  1.00  0.00     0.080 C 
ENDROOT
BRANCH   1   2
ATOM      2  C   UNL     1       5.514   1.151   1.403  1.00  0.00     0.130 C 
ATOM      3  C   UNL     1       4.699   2.147   0.657  1.00  0.00     0.087 C 
ATOM      4  O   UNL     1       4.934   0.437   2.204  1.00  0.00    -0.300 OA
ENDBRANCH   1   2
BRANCH   1   5
ATOM      5  C   UNL     1       7.336   1.153  -0.281  1.00  0.00     0.043 C 
BRANCH   5   6
ATOM      6  C   UNL     1       7.695  -0.148  -0.874  1.00  0.00    -0.044 A 
ATOM      7  C   UNL     1       7.815  -0.314  -2.258  1.00  0.00     0.008 A 
ATOM      8  C   UNL     1       7.922  -1.231  -0.055  1.00  0.00     0.054 A 
ATOM      9  C   UNL     1       8.155  -1.558  -2.757  1.00  0.00     0.051 A 
ATOM     10  C   UNL     1       8.266  -2.486  -0.565  1.00  0.00     0.166 A 
ATOM     11  C   UNL     1       8.383  -2.652  -1.927  1.00  0.00     0.165 A 
ATOM     12  O   UNL     1       8.537  -3.700   0.031  1.00  0.00    -0.454 OA
ATOM     13  O   UNL     1       8.728  -3.977  -2.142  1.00  0.00    -0.454 OA
ATOM     14  C   UNL     1       8.925  -4.654  -0.924  1.00  0.00     0.468 C 
ENDBRANCH   5   6
ENDBRANCH   1   5
TORSDOF 3
ENDMDL
