@<TRIPOS>MOLECULE
/home/cewinharhar/GITHUB/reincatalyze/data/processed/docking_pred/2023-May-25-1902_sub9_nm5_bs15_s42_ex16_mel10_mts10000_k50_ec01_g099_lra3e-4_lrc3e-3/12a677e1fc1355f2f00deb0d8e94f00822fba38d_ligand_9.pdbqt
 14 15 0 0 0
SMALL
GASTEIGER

@<TRIPOS>ATOM
      1  C          6.9820    1.0240    1.1870 C.3     1  UNL1        0.0800
      2  C          5.5140    1.1510    1.4030 C.2     1  UNL1        0.1300
      3  C          4.6990    2.1470    0.6570 C.3     1  UNL1        0.0870
      4  O          4.9340    0.4370    2.2040 O.2     1  UNL1       -0.3000
      5  C          7.3360    1.1530   -0.2810 C.3     1  UNL1        0.0430
      6  C          7.6950   -0.1480   -0.8740 C.2     1  UNL1       -0.0440
      7  C          7.8150   -0.3140   -2.2580 C.2     1  UNL1        0.0080
      8  C          7.9220   -1.2310   -0.0550 C.2     1  UNL1        0.0540
      9  C          8.1550   -1.5580   -2.7570 C.2     1  UNL1        0.0510
     10  C          8.2660   -2.4860   -0.5650 C.2     1  UNL1        0.1660
     11  C          8.3830   -2.6520   -1.9270 C.2     1  UNL1        0.1650
     12  O          8.5370   -3.7000    0.0310 O.2     1  UNL1       -0.4540
     13  O          8.7280   -3.9770   -2.1420 O.2     1  UNL1       -0.4540
     14  C          8.9250   -4.6540   -0.9240 C.3     1  UNL1        0.4680
@<TRIPOS>BOND
     1     9     7    1
     2     9    11    2
     3     7     6    2
     4    13    11    1
     5    13    14    1
     6    11    10    1
     7    14    12    1
     8     6     5    1
     9     6     8    1
    10    10     8    2
    11    10    12    1
    12     5     1    1
    13     3     2    1
    14     1     2    1
    15     2     4    2
