@<TRIPOS>MOLECULE
/home/cewinharhar/GITHUB/reincatalyze/data/processed/docking_pred/2023-May-25-1902_sub9_nm5_bs15_s42_ex16_mel10_mts10000_k50_ec01_g099_lra3e-4_lrc3e-3/12a677e1fc1355f2f00deb0d8e94f00822fba38d_ligand_9.pdbqt
 14 15 0 0 0
SMALL
GASTEIGER

@<TRIPOS>ATOM
      1  C          5.5540    1.9040    1.2970 C.3     1  UNL1        0.0800
      2  C          5.1000    0.6880    2.0280 C.2     1  UNL1        0.1300
      3  C          5.9870   -0.4930    2.2050 C.3     1  UNL1        0.0870
      4  O          3.9790    0.6270    2.5050 O.2     1  UNL1       -0.3000
      5  C          5.4180    1.7280   -0.2030 C.3     1  UNL1        0.0430
      6  C          6.5810    1.0290   -0.7790 C.2     1  UNL1       -0.0440
      7  C          7.8890    1.4670   -0.5450 C.2     1  UNL1        0.0080
      8  C          6.3870   -0.0850   -1.5640 C.2     1  UNL1        0.0540
      9  C          8.9410    0.7700   -1.1110 C.2     1  UNL1        0.0510
     10  C          7.4540   -0.7860   -2.1340 C.2     1  UNL1        0.1660
     11  C          8.7420   -0.3550   -1.9050 C.2     1  UNL1        0.1650
     12  O          7.5210   -1.9030   -2.9400 O.2     1  UNL1       -0.4540
     13  O          9.5820   -1.2250   -2.5820 O.2     1  UNL1       -0.4540
     14  C          8.8550   -2.2740   -3.1760 C.3     1  UNL1        0.4680
@<TRIPOS>BOND
     1    14    12    1
     2    14    13    1
     3    12    10    1
     4    13    11    1
     5    10    11    2
     6    10     8    1
     7    11     9    1
     8     8     6    2
     9     9     7    2
    10     6     7    1
    11     6     5    1
    12     5     1    1
    13     1     2    1
    14     2     3    1
    15     2     4    2
