@<TRIPOS>MOLECULE
/home/cewinharhar/GITHUB/reincatalyze/data/processed/docking_pred/2023-May-25-1902_sub9_nm5_bs15_s42_ex16_mel10_mts10000_k50_ec01_g099_lra3e-4_lrc3e-3/12a677e1fc1355f2f00deb0d8e94f00822fba38d_ligand_9.pdbqt
 14 15 0 0 0
SMALL
GASTEIGER

@<TRIPOS>ATOM
      1  C          5.7430    1.3610   -0.3000 C.3     1  UNL1        0.0800
      2  C          5.1090    1.2670    1.0450 C.2     1  UNL1        0.1300
      3  C          5.3470    0.1040    1.9410 C.3     1  UNL1        0.0870
      4  O          4.3710    2.1490    1.4530 O.2     1  UNL1       -0.3000
      5  C          7.2360    1.1130   -0.2230 C.3     1  UNL1        0.0430
      6  C          7.6080   -0.1740   -0.8370 C.2     1  UNL1       -0.0440
      7  C          7.6800   -0.3300   -2.2260 C.2     1  UNL1        0.0080
      8  C          7.8970   -1.2540   -0.0350 C.2     1  UNL1        0.0540
      9  C          8.0360   -1.5610   -2.7450 C.2     1  UNL1        0.0510
     10  C          8.2570   -2.4970   -0.5650 C.2     1  UNL1        0.1660
     11  C          8.3260   -2.6520   -1.9310 C.2     1  UNL1        0.1650
     12  O          8.5840   -3.7050    0.0130 O.2     1  UNL1       -0.4540
     13  O          8.7000   -3.9650   -2.1670 O.2     1  UNL1       -0.4540
     14  C          8.9630   -4.6440   -0.9620 C.3     1  UNL1        0.4680
@<TRIPOS>BOND
     1     9     7    1
     2     9    11    2
     3     7     6    2
     4    13    11    1
     5    13    14    1
     6    11    10    1
     7    14    12    1
     8     6     5    1
     9     6     8    1
    10    10     8    2
    11    10    12    1
    12     1     5    1
    13     1     2    1
    14     2     4    2
    15     2     3    1
