@<TRIPOS>MOLECULE
/home/cewinharhar/GITHUB/reincatalyze/data/processed/docking_pred/2023-May-25-1902_sub9_nm5_bs15_s42_ex16_mel10_mts10000_k50_ec01_g099_lra3e-4_lrc3e-3/12e5788d749ca0b681d4f032b25b6d257325d045_ligand_9.pdbqt
 14 15 0 0 0
SMALL
GASTEIGER

@<TRIPOS>ATOM
      1  C          5.6860    1.3770   -0.2820 C.3     1  UNL1        0.0800
      2  C          5.0170    1.2510    1.0430 C.2     1  UNL1        0.1300
      3  C          5.2990    0.1100    1.9550 C.3     1  UNL1        0.0870
      4  O          4.2120    2.0870    1.4210 O.2     1  UNL1       -0.3000
      5  C          7.1750    1.1160   -0.1730 C.3     1  UNL1        0.0430
      6  C          7.5530   -0.1650   -0.7960 C.2     1  UNL1       -0.0440
      7  C          7.5920   -0.3210   -2.1860 C.2     1  UNL1        0.0080
      8  C          7.8790   -1.2400   -0.0000 C.2     1  UNL1        0.0540
      9  C          7.9550   -1.5470   -2.7140 C.2     1  UNL1        0.0510
     10  C          8.2460   -2.4770   -0.5390 C.2     1  UNL1        0.1660
     11  C          8.2830   -2.6320   -1.9070 C.2     1  UNL1        0.1650
     12  O          8.6080   -3.6790    0.0300 O.2     1  UNL1       -0.4540
     13  O          8.6730   -3.9390   -2.1510 O.2     1  UNL1       -0.4540
     14  C          8.9770   -4.6120   -0.9530 C.3     1  UNL1        0.4680
@<TRIPOS>BOND
     1     9     7    1
     2     9    11    2
     3     7     6    2
     4    13    11    1
     5    13    14    1
     6    11    10    1
     7    14    12    1
     8     6     5    1
     9     6     8    1
    10    10     8    2
    11    10    12    1
    12     1     5    1
    13     1     2    1
    14     2     4    2
    15     2     3    1
