@<TRIPOS>MOLECULE
/home/cewinharhar/GITHUB/reincatalyze/data/processed/docking_pred/2023-May-25-1902_sub9_nm5_bs15_s42_ex16_mel10_mts10000_k50_ec01_g099_lra3e-4_lrc3e-3/13c3a96d7f073914410e4f6d6c0e2190084e407e_ligand_9.pdbqt
 14 15 0 0 0
SMALL
GASTEIGER

@<TRIPOS>ATOM
      1  C          5.7450    1.3570   -0.2810 C.3     1  UNL1        0.0800
      2  C          5.1180    1.2640    1.0670 C.2     1  UNL1        0.1300
      3  C          5.3530    0.0980    1.9590 C.3     1  UNL1        0.0870
      4  O          4.3860    2.1500    1.4800 O.2     1  UNL1       -0.3000
      5  C          7.2390    1.1100   -0.2110 C.3     1  UNL1        0.0430
      6  C          7.6090   -0.1770   -0.8270 C.2     1  UNL1       -0.0440
      7  C          7.6700   -0.3340   -2.2160 C.2     1  UNL1        0.0080
      8  C          7.9060   -1.2560   -0.0260 C.2     1  UNL1        0.0540
      9  C          8.0240   -1.5650   -2.7370 C.2     1  UNL1        0.0510
     10  C          8.2650   -2.4980   -0.5570 C.2     1  UNL1        0.1660
     11  C          8.3240   -2.6540   -1.9250 C.2     1  UNL1        0.1650
     12  O          8.6000   -3.7050    0.0180 O.2     1  UNL1       -0.4540
     13  O          8.6990   -3.9670   -2.1620 O.2     1  UNL1       -0.4540
     14  C          8.9730   -4.6440   -0.9580 C.3     1  UNL1        0.4680
@<TRIPOS>BOND
     1     9     7    1
     2     9    11    2
     3     7     6    2
     4    13    11    1
     5    13    14    1
     6    11    10    1
     7    14    12    1
     8     6     5    1
     9     6     8    1
    10    10     8    2
    11    10    12    1
    12     1     5    1
    13     1     2    1
    14     2     4    2
    15     2     3    1
