@<TRIPOS>MOLECULE
/home/cewinharhar/GITHUB/reincatalyze/data/processed/docking_pred/2023-May-25-1902_sub9_nm5_bs15_s42_ex16_mel10_mts10000_k50_ec01_g099_lra3e-4_lrc3e-3/13c3a96d7f073914410e4f6d6c0e2190084e407e_ligand_9.pdbqt
 14 15 0 0 0
SMALL
GASTEIGER

@<TRIPOS>ATOM
      1  C          5.6180    0.0270    1.8800 C.3     1  UNL1        0.0800
      2  C          4.7080    1.1660    1.5740 C.2     1  UNL1        0.1300
      3  C          4.9830    2.1070    0.4560 C.3     1  UNL1        0.0870
      4  O          3.7030    1.3610    2.2390 O.2     1  UNL1       -0.3000
      5  C          7.0170    0.2850    1.3570 C.3     1  UNL1        0.0430
      6  C          7.4140   -0.7110    0.3450 C.2     1  UNL1       -0.0440
      7  C          7.3180   -0.4420   -1.0250 C.2     1  UNL1        0.0080
      8  C          7.8960   -1.9360    0.7470 C.2     1  UNL1        0.0540
      9  C          7.7060   -1.4150   -1.9280 C.2     1  UNL1        0.0510
     10  C          8.2890   -2.9160   -0.1710 C.2     1  UNL1        0.1660
     11  C          8.1920   -2.6530   -1.5190 C.2     1  UNL1        0.1650
     12  O          8.7910   -4.1910   -0.0250 O.2     1  UNL1       -0.4540
     13  O          8.6430   -3.7840   -2.1810 O.2     1  UNL1       -0.4540
     14  C          9.1180   -4.7490   -1.2720 C.3     1  UNL1        0.4680
@<TRIPOS>BOND
     1    13    11    1
     2    13    14    1
     3     9    11    2
     4     9     7    1
     5    11    10    1
     6    14    12    1
     7     7     6    2
     8    10    12    1
     9    10     8    2
    10     6     8    1
    11     6     5    1
    12     3     2    1
    13     5     1    1
    14     2     1    1
    15     2     4    2
