@<TRIPOS>MOLECULE
/home/cewinharhar/GITHUB/reincatalyze/data/processed/docking_pred/2023-May-25-1902_sub9_nm5_bs15_s42_ex16_mel10_mts10000_k50_ec01_g099_lra3e-4_lrc3e-3/13c3a96d7f073914410e4f6d6c0e2190084e407e_ligand_9.pdbqt
 14 15 0 0 0
SMALL
GASTEIGER

@<TRIPOS>ATOM
      1  C          8.5160    0.2730   -2.5600 C.3     1  UNL1        0.0800
      2  C          8.4480   -1.2060   -2.7310 C.2     1  UNL1        0.1300
      3  C          7.1490   -1.9200   -2.8430 C.3     1  UNL1        0.0870
      4  O          9.4660   -1.8770   -2.7840 O.2     1  UNL1       -0.3000
      5  C          8.9610    0.6450   -1.1600 C.3     1  UNL1        0.0430
      6  C          7.8830    0.4500   -0.1740 C.2     1  UNL1       -0.0440
      7  C          7.9110   -0.6080    0.7430 C.2     1  UNL1        0.0080
      8  C          6.8200    1.3240   -0.1430 C.2     1  UNL1        0.0540
      9  C          6.8710   -0.7400    1.6450 C.2     1  UNL1        0.0510
     10  C          5.7720    1.1860    0.7730 C.2     1  UNL1        0.1660
     11  C          5.7980    0.1450    1.6740 C.2     1  UNL1        0.1650
     12  O          4.6220    1.9110    1.0000 O.2     1  UNL1       -0.4540
     13  O          4.6520    0.2540    2.4450 O.2     1  UNL1       -0.4540
     14  C          3.9230    1.4120    2.1120 C.3     1  UNL1        0.4680
@<TRIPOS>BOND
     1     3     2    1
     2     4     2    2
     3     2     1    1
     4     1     5    1
     5     5     6    1
     6     6     8    2
     7     6     7    1
     8     8    10    1
     9     7     9    2
    10    10    12    1
    11    10    11    2
    12    12    14    1
    13     9    11    1
    14    11    13    1
    15    14    13    1
