@<TRIPOS>MOLECULE
/home/cewinharhar/GITHUB/reincatalyze/data/processed/docking_pred/2023-May-25-1902_sub9_nm5_bs15_s42_ex16_mel10_mts10000_k50_ec01_g099_lra3e-4_lrc3e-3/13c3a96d7f073914410e4f6d6c0e2190084e407e_ligand_9.pdbqt
 14 15 0 0 0
SMALL
GASTEIGER

@<TRIPOS>ATOM
      1  C          6.3350    1.3160    0.8940 C.3     1  UNL1        0.0800
      2  C          5.6920    0.4390    1.9110 C.2     1  UNL1        0.1300
      3  C          6.4030   -0.7280    2.4970 C.3     1  UNL1        0.0870
      4  O          4.5540    0.6550    2.2950 O.2     1  UNL1       -0.3000
      5  C          5.8250    1.0090   -0.5000 C.3     1  UNL1        0.0430
      6  C          6.7760    0.1790   -1.2600 C.2     1  UNL1       -0.0440
      7  C          7.4850    0.6910   -2.3530 C.2     1  UNL1        0.0080
      8  C          6.9830   -1.1310   -0.8940 C.2     1  UNL1        0.0540
      9  C          8.3650   -0.1350   -3.0280 C.2     1  UNL1        0.0510
     10  C          7.8750   -1.9620   -1.5790 C.2     1  UNL1        0.1660
     11  C          8.5710   -1.4590   -2.6560 C.2     1  UNL1        0.1650
     12  O          8.2490   -3.2780   -1.4140 O.2     1  UNL1       -0.4540
     13  O          9.3680   -2.4880   -3.1330 O.2     1  UNL1       -0.4540
     14  C          9.2630   -3.6320   -2.3190 C.3     1  UNL1        0.4680
@<TRIPOS>BOND
     1    13    11    1
     2    13    14    1
     3     9    11    2
     4     9     7    1
     5    11    10    1
     6     7     6    2
     7    14    12    1
     8    10    12    1
     9    10     8    2
    10     6     8    1
    11     6     5    1
    12     5     1    1
    13     1     2    1
    14     2     4    2
    15     2     3    1
