@<TRIPOS>MOLECULE
/home/cewinharhar/GITHUB/reincatalyze/data/processed/docking_pred/2023-May-25-1902_sub9_nm5_bs15_s42_ex16_mel10_mts10000_k50_ec01_g099_lra3e-4_lrc3e-3/13c3a96d7f073914410e4f6d6c0e2190084e407e_ligand_9.pdbqt
 14 15 0 0 0
SMALL
GASTEIGER

@<TRIPOS>ATOM
      1  C          5.5660    1.8790    1.3020 C.3     1  UNL1        0.0800
      2  C          5.1160    0.6570    2.0250 C.2     1  UNL1        0.1300
      3  C          6.0080   -0.5210    2.1990 C.3     1  UNL1        0.0870
      4  O          3.9930    0.5860    2.4970 O.2     1  UNL1       -0.3000
      5  C          5.4320    1.7120   -0.1980 C.3     1  UNL1        0.0430
      6  C          6.5900    1.0070   -0.7750 C.2     1  UNL1       -0.0440
      7  C          7.9010    1.4380   -0.5440 C.2     1  UNL1        0.0080
      8  C          6.3890   -0.1060   -1.5610 C.2     1  UNL1        0.0540
      9  C          8.9490    0.7360   -1.1110 C.2     1  UNL1        0.0510
     10  C          7.4520   -0.8130   -2.1310 C.2     1  UNL1        0.1660
     11  C          8.7420   -0.3880   -1.9050 C.2     1  UNL1        0.1650
     12  O          7.5120   -1.9300   -2.9370 O.2     1  UNL1       -0.4540
     13  O          9.5770   -1.2630   -2.5820 O.2     1  UNL1       -0.4540
     14  C          8.8440   -2.3090   -3.1750 C.3     1  UNL1        0.4680
@<TRIPOS>BOND
     1    14    12    1
     2    14    13    1
     3    12    10    1
     4    13    11    1
     5    10    11    2
     6    10     8    1
     7    11     9    1
     8     8     6    2
     9     9     7    2
    10     6     7    1
    11     6     5    1
    12     5     1    1
    13     1     2    1
    14     2     3    1
    15     2     4    2
