MODEL 1
REMARK VINA RESULT:      -7.6      0.000      0.000
REMARK SMILES CC(=O)CCc1ccc2c(c1)OCO2
REMARK SMILES IDX 4 1 2 2 1 3 3 4 5 5 6 6 7 7 11 8 8 9 10 10 9 11 12 12 14 13
REMARK SMILES IDX 13 14
REMARK H PARENT
REMARK Flexibility Score: inf
ROOT
ATOM      1  C   UNL     1       5.566   1.879   1.302  1.00  0.00     0.080 C 
ENDROOT
BRANCH   1   2
ATOM      2  C   UNL     1       5.116   0.657   2.025  1.00  0.00     0.130 C 
ATOM      3  C   UNL     1       6.008  -0.521   2.199  1.00  0.00     0.087 C 
ATOM      4  O   UNL     1       3.993   0.586   2.497  1.00  0.00    -0.300 OA
ENDBRANCH   1   2
BRANCH   1   5
ATOM      5  C   UNL     1       5.432   1.712  -0.198  1.00  0.00     0.043 C 
BRANCH   5   6
ATOM      6  C   UNL     1       6.590   1.007  -0.775  1.00  0.00    -0.044 A 
ATOM      7  C   UNL     1       7.901   1.438  -0.544  1.00  0.00     0.008 A 
ATOM      8  C   UNL     1       6.389  -0.106  -1.561  1.00  0.00     0.054 A 
ATOM      9  C   UNL     1       8.949   0.736  -1.111  1.00  0.00     0.051 A 
ATOM     10  C   UNL     1       7.452  -0.813  -2.131  1.00  0.00     0.166 A 
ATOM     11  C   UNL     1       8.742  -0.388  -1.905  1.00  0.00     0.165 A 
ATOM     12  O   UNL     1       7.512  -1.930  -2.937  1.00  0.00    -0.454 OA
ATOM     13  O   UNL     1       9.577  -1.263  -2.582  1.00  0.00    -0.454 OA
ATOM     14  C   UNL     1       8.844  -2.309  -3.175  1.00  0.00     0.468 C 
ENDBRANCH   5   6
ENDBRANCH   1   5
TORSDOF 3
ENDMDL
MODEL 2
REMARK VINA RESULT:      -7.5      1.918      2.367
REMARK SMILES CC(=O)CCc1ccc2c(c1)OCO2
REMARK SMILES IDX 4 1 2 2 1 3 3 4 5 5 6 6 7 7 11 8 8 9 10 10 9 11 12 12 14 13
REMARK SMILES IDX 13 14
REMARK H PARENT
REMARK Flexibility Score: inf
ROOT
ATOM      1  C   UNL     1       5.745   1.357  -0.281  1.00  0.00     0.080 C 
ENDROOT
BRANCH   1   2
ATOM      2  C   UNL     1       5.118   1.264   1.067  1.00  0.00     0.130 C 
ATOM      3  C   UNL     1       5.353   0.098   1.959  1.00  0.00     0.087 C 
ATOM      4  O   UNL     1       4.386   2.150   1.480  1.00  0.00    -0.300 OA
ENDBRANCH   1   2
BRANCH   1   5
ATOM      5  C   UNL     1       7.239   1.110  -0.211  1.00  0.00     0.043 C 
BRANCH   5   6
ATOM      6  C   UNL     1       7.609  -0.177  -0.827  1.00  0.00    -0.044 A 
ATOM      7  C   UNL     1       7.670  -0.334  -2.216  1.00  0.00     0.008 A 
ATOM      8  C   UNL     1       7.906  -1.256  -0.026  1.00  0.00     0.054 A 
ATOM      9  C   UNL     1       8.024  -1.565  -2.737  1.00  0.00     0.051 A 
ATOM     10  C   UNL     1       8.265  -2.498  -0.557  1.00  0.00     0.166 A 
ATOM     11  C   UNL     1       8.324  -2.654  -1.925  1.00  0.00     0.165 A 
ATOM     12  O   UNL     1       8.600  -3.705   0.018  1.00  0.00    -0.454 OA
ATOM     13  O   UNL     1       8.699  -3.967  -2.162  1.00  0.00    -0.454 OA
ATOM     14  C   UNL     1       8.973  -4.644  -0.958  1.00  0.00     0.468 C 
ENDBRANCH   5   6
ENDBRANCH   1   5
TORSDOF 3
ENDMDL
MODEL 3
REMARK VINA RESULT:      -7.1      2.101      2.628
REMARK SMILES CC(=O)CCc1ccc2c(c1)OCO2
REMARK SMILES IDX 4 1 2 2 1 3 3 4 5 5 6 6 7 7 11 8 8 9 10 10 9 11 12 12 14 13
REMARK SMILES IDX 13 14
REMARK H PARENT
REMARK Flexibility Score: inf
ROOT
ATOM      1  C   UNL     1       5.618   0.027   1.880  1.00  0.00     0.080 C 
ENDROOT
BRANCH   1   2
ATOM      2  C   UNL     1       4.708   1.166   1.574  1.00  0.00     0.130 C 
ATOM      3  C   UNL     1       4.983   2.107   0.456  1.00  0.00     0.087 C 
ATOM      4  O   UNL     1       3.703   1.361   2.239  1.00  0.00    -0.300 OA
ENDBRANCH   1   2
BRANCH   1   5
ATOM      5  C   UNL     1       7.017   0.285   1.357  1.00  0.00     0.043 C 
BRANCH   5   6
ATOM      6  C   UNL     1       7.414  -0.711   0.345  1.00  0.00    -0.044 A 
ATOM      7  C   UNL     1       7.318  -0.442  -1.025  1.00  0.00     0.008 A 
ATOM      8  C   UNL     1       7.896  -1.936   0.747  1.00  0.00     0.054 A 
ATOM      9  C   UNL     1       7.706  -1.415  -1.928  1.00  0.00     0.051 A 
ATOM     10  C   UNL     1       8.289  -2.916  -0.171  1.00  0.00     0.166 A 
ATOM     11  C   UNL     1       8.192  -2.653  -1.519  1.00  0.00     0.165 A 
ATOM     12  O   UNL     1       8.791  -4.191  -0.025  1.00  0.00    -0.454 OA
ATOM     13  O   UNL     1       8.643  -3.784  -2.181  1.00  0.00    -0.454 OA
ATOM     14  C   UNL     1       9.118  -4.749  -1.272  1.00  0.00     0.468 C 
ENDBRANCH   5   6
ENDBRANCH   1   5
TORSDOF 3
ENDMDL
MODEL 4
REMARK VINA RESULT:      -7.1      1.221      1.393
REMARK SMILES CC(=O)CCc1ccc2c(c1)OCO2
REMARK SMILES IDX 4 1 2 2 1 3 3 4 5 5 6 6 7 7 11 8 8 9 10 10 9 11 12 12 14 13
REMARK SMILES IDX 13 14
REMARK H PARENT
REMARK Flexibility Score: inf
ROOT
ATOM      1  C   UNL     1       6.335   1.316   0.894  1.00  0.00     0.080 C 
ENDROOT
BRANCH   1   2
ATOM      2  C   UNL     1       5.692   0.439   1.911  1.00  0.00     0.130 C 
ATOM      3  C   UNL     1       6.403  -0.728   2.497  1.00  0.00     0.087 C 
ATOM      4  O   UNL     1       4.554   0.655   2.295  1.00  0.00    -0.300 OA
ENDBRANCH   1   2
BRANCH   1   5
ATOM      5  C   UNL     1       5.825   1.009  -0.500  1.00  0.00     0.043 C 
BRANCH   5   6
ATOM      6  C   UNL     1       6.776   0.179  -1.260  1.00  0.00    -0.044 A 
ATOM      7  C   UNL     1       7.485   0.691  -2.353  1.00  0.00     0.008 A 
ATOM      8  C   UNL     1       6.983  -1.131  -0.894  1.00  0.00     0.054 A 
ATOM      9  C   UNL     1       8.365  -0.135  -3.028  1.00  0.00     0.051 A 
ATOM     10  C   UNL     1       7.875  -1.962  -1.579  1.00  0.00     0.166 A 
ATOM     11  C   UNL     1       8.571  -1.459  -2.656  1.00  0.00     0.165 A 
ATOM     12  O   UNL     1       8.249  -3.278  -1.414  1.00  0.00    -0.454 OA
ATOM     13  O   UNL     1       9.368  -2.488  -3.133  1.00  0.00    -0.454 OA
ATOM     14  C   UNL     1       9.263  -3.632  -2.319  1.00  0.00     0.468 C 
ENDBRANCH   5   6
ENDBRANCH   1   5
TORSDOF 3
ENDMDL
MODEL 5
REMARK VINA RESULT:      -6.7      1.243      5.281
REMARK SMILES CC(=O)CCc1ccc2c(c1)OCO2
REMARK SMILES IDX 4 1 2 2 1 3 3 4 5 5 6 6 7 7 11 8 8 9 10 10 9 11 12 12 14 13
REMARK SMILES IDX 13 14
REMARK H PARENT
REMARK Flexibility Score: inf
ROOT
ATOM      1  C   UNL     1       8.516   0.273  -2.560  1.00  0.00     0.080 C 
ENDROOT
BRANCH   1   2
ATOM      2  C   UNL     1       8.448  -1.206  -2.731  1.00  0.00     0.130 C 
ATOM      3  C   UNL     1       7.149  -1.920  -2.843  1.00  0.00     0.087 C 
ATOM      4  O   UNL     1       9.466  -1.877  -2.784  1.00  0.00    -0.300 OA
ENDBRANCH   1   2
BRANCH   1   5
ATOM      5  C   UNL     1       8.961   0.645  -1.160  1.00  0.00     0.043 C 
BRANCH   5   6
ATOM      6  C   UNL     1       7.883   0.450  -0.174  1.00  0.00    -0.044 A 
ATOM      7  C   UNL     1       7.911  -0.608   0.743  1.00  0.00     0.008 A 
ATOM      8  C   UNL     1       6.820   1.324  -0.143  1.00  0.00     0.054 A 
ATOM      9  C   UNL     1       6.871  -0.740   1.645  1.00  0.00     0.051 A 
ATOM     10  C   UNL     1       5.772   1.186   0.773  1.00  0.00     0.166 A 
ATOM     11  C   UNL     1       5.798   0.145   1.674  1.00  0.00     0.165 A 
ATOM     12  O   UNL     1       4.622   1.911   1.000  1.00  0.00    -0.454 OA
ATOM     13  O   UNL     1       4.652   0.254   2.445  1.00  0.00    -0.454 OA
ATOM     14  C   UNL     1       3.923   1.412   2.112  1.00  0.00     0.468 C 
ENDBRANCH   5   6
ENDBRANCH   1   5
TORSDOF 3
ENDMDL
