MODEL 1
REMARK VINA RESULT:      -7.6      0.000      0.000
REMARK SMILES CC(=O)CCc1ccc2c(c1)OCO2
REMARK SMILES IDX 4 1 2 2 1 3 3 4 5 5 6 6 7 7 11 8 8 9 10 10 9 11 12 12 14 13
REMARK SMILES IDX 13 14
REMARK H PARENT
REMARK Flexibility Score: inf
ROOT
ATOM      1  C   UNL     1       5.525   1.927   1.252  1.00  0.00     0.080 C 
ENDROOT
BRANCH   1   2
ATOM      2  C   UNL     1       5.092   0.714   2.000  1.00  0.00     0.130 C 
ATOM      3  C   UNL     1       5.995  -0.454   2.184  1.00  0.00     0.087 C 
ATOM      4  O   UNL     1       3.975   0.643   2.487  1.00  0.00    -0.300 OA
ENDBRANCH   1   2
BRANCH   1   5
ATOM      5  C   UNL     1       5.398   1.725  -0.245  1.00  0.00     0.043 C 
BRANCH   5   6
ATOM      6  C   UNL     1       6.566   1.020  -0.803  1.00  0.00    -0.044 A 
ATOM      7  C   UNL     1       7.873   1.453  -0.549  1.00  0.00     0.008 A 
ATOM      8  C   UNL     1       6.379  -0.092  -1.591  1.00  0.00     0.054 A 
ATOM      9  C   UNL     1       8.930   0.751  -1.099  1.00  0.00     0.051 A 
ATOM     10  C   UNL     1       7.452  -0.799  -2.144  1.00  0.00     0.166 A 
ATOM     11  C   UNL     1       8.738  -0.373  -1.896  1.00  0.00     0.165 A 
ATOM     12  O   UNL     1       7.527  -1.916  -2.948  1.00  0.00    -0.454 OA
ATOM     13  O   UNL     1       9.585  -1.248  -2.559  1.00  0.00    -0.454 OA
ATOM     14  C   UNL     1       8.862  -2.294  -3.164  1.00  0.00     0.468 C 
ENDBRANCH   5   6
ENDBRANCH   1   5
TORSDOF 3
ENDMDL
MODEL 2
REMARK VINA RESULT:      -7.5      1.914      2.370
REMARK SMILES CC(=O)CCc1ccc2c(c1)OCO2
REMARK SMILES IDX 4 1 2 2 1 3 3 4 5 5 6 6 7 7 11 8 8 9 10 10 9 11 12 12 14 13
REMARK SMILES IDX 13 14
REMARK H PARENT
REMARK Flexibility Score: inf
ROOT
ATOM      1  C   UNL     1       5.753   1.399  -0.324  1.00  0.00     0.080 C 
ENDROOT
BRANCH   1   2
ATOM      2  C   UNL     1       5.098   1.309   1.011  1.00  0.00     0.130 C 
ATOM      3  C   UNL     1       5.401   0.202   1.957  1.00  0.00     0.087 C 
ATOM      4  O   UNL     1       4.288   2.149   1.369  1.00  0.00    -0.300 OA
ENDBRANCH   1   2
BRANCH   1   5
ATOM      5  C   UNL     1       7.242   1.133  -0.225  1.00  0.00     0.043 C 
BRANCH   5   6
ATOM      6  C   UNL     1       7.608  -0.157  -0.838  1.00  0.00    -0.044 A 
ATOM      7  C   UNL     1       7.671  -0.317  -2.227  1.00  0.00     0.008 A 
ATOM      8  C   UNL     1       7.901  -1.235  -0.034  1.00  0.00     0.054 A 
ATOM      9  C   UNL     1       8.021  -1.551  -2.744  1.00  0.00     0.051 A 
ATOM     10  C   UNL     1       8.255  -2.480  -0.562  1.00  0.00     0.166 A 
ATOM     11  C   UNL     1       8.316  -2.639  -1.929  1.00  0.00     0.165 A 
ATOM     12  O   UNL     1       8.586  -3.687   0.017  1.00  0.00    -0.454 OA
ATOM     13  O   UNL     1       8.687  -3.954  -2.163  1.00  0.00    -0.454 OA
ATOM     14  C   UNL     1       8.956  -4.628  -0.957  1.00  0.00     0.468 C 
ENDBRANCH   5   6
ENDBRANCH   1   5
TORSDOF 3
ENDMDL
MODEL 3
REMARK VINA RESULT:      -7.2      2.043      2.624
REMARK SMILES CC(=O)CCc1ccc2c(c1)OCO2
REMARK SMILES IDX 4 1 2 2 1 3 3 4 5 5 6 6 7 7 11 8 8 9 10 10 9 11 12 12 14 13
REMARK SMILES IDX 13 14
REMARK H PARENT
REMARK Flexibility Score: inf
ROOT
ATOM      1  C   UNL     1       5.396  -0.080   2.020  1.00  0.00     0.080 C 
ENDROOT
BRANCH   1   2
ATOM      2  C   UNL     1       4.550   1.121   1.773  1.00  0.00     0.130 C 
ATOM      3  C   UNL     1       4.901   2.122   0.729  1.00  0.00     0.087 C 
ATOM      4  O   UNL     1       3.538   1.320   2.424  1.00  0.00    -0.300 OA
ENDBRANCH   1   2
BRANCH   1   5
ATOM      5  C   UNL     1       6.835   0.167   1.615  1.00  0.00     0.043 C 
BRANCH   5   6
ATOM      6  C   UNL     1       7.267  -0.750   0.545  1.00  0.00    -0.044 A 
ATOM      7  C   UNL     1       7.133  -0.412  -0.807  1.00  0.00     0.008 A 
ATOM      8  C   UNL     1       7.817  -1.968   0.871  1.00  0.00     0.054 A 
ATOM      9  C   UNL     1       7.557  -1.312  -1.768  1.00  0.00     0.051 A 
ATOM     10  C   UNL     1       8.244  -2.874  -0.104  1.00  0.00     0.166 A 
ATOM     11  C   UNL     1       8.112  -2.544  -1.435  1.00  0.00     0.165 A 
ATOM     12  O   UNL     1       8.813  -4.128  -0.037  1.00  0.00    -0.454 OA
ATOM     13  O   UNL     1       8.610  -3.612  -2.164  1.00  0.00    -0.454 OA
ATOM     14  C   UNL     1       9.148  -4.600  -1.317  1.00  0.00     0.468 C 
ENDBRANCH   5   6
ENDBRANCH   1   5
TORSDOF 3
ENDMDL
MODEL 4
REMARK VINA RESULT:      -7.1      1.242      1.442
REMARK SMILES CC(=O)CCc1ccc2c(c1)OCO2
REMARK SMILES IDX 4 1 2 2 1 3 3 4 5 5 6 6 7 7 11 8 8 9 10 10 9 11 12 12 14 13
REMARK SMILES IDX 13 14
REMARK H PARENT
REMARK Flexibility Score: inf
ROOT
ATOM      1  C   UNL     1       6.349   1.246   0.867  1.00  0.00     0.080 C 
ENDROOT
BRANCH   1   2
ATOM      2  C   UNL     1       5.661   0.434   1.909  1.00  0.00     0.130 C 
ATOM      3  C   UNL     1       6.279  -0.794   2.476  1.00  0.00     0.087 C 
ATOM      4  O   UNL     1       4.562   0.757   2.330  1.00  0.00    -0.300 OA
ENDBRANCH   1   2
BRANCH   1   5
ATOM      5  C   UNL     1       5.836   0.911  -0.520  1.00  0.00     0.043 C 
BRANCH   5   6
ATOM      6  C   UNL     1       6.803   0.097  -1.278  1.00  0.00    -0.044 A 
ATOM      7  C   UNL     1       7.520   0.628  -2.357  1.00  0.00     0.008 A 
ATOM      8  C   UNL     1       7.016  -1.215  -0.924  1.00  0.00     0.054 A 
ATOM      9  C   UNL     1       8.415  -0.183  -3.031  1.00  0.00     0.051 A 
ATOM     10  C   UNL     1       7.923  -2.031  -1.608  1.00  0.00     0.166 A 
ATOM     11  C   UNL     1       8.627  -1.510  -2.671  1.00  0.00     0.165 A 
ATOM     12  O   UNL     1       8.306  -3.346  -1.453  1.00  0.00    -0.454 OA
ATOM     13  O   UNL     1       9.438  -2.527  -3.151  1.00  0.00    -0.454 OA
ATOM     14  C   UNL     1       9.333  -3.681  -2.351  1.00  0.00     0.468 C 
ENDBRANCH   5   6
ENDBRANCH   1   5
TORSDOF 3
ENDMDL
MODEL 5
REMARK VINA RESULT:      -7.0      1.989      2.608
REMARK SMILES CC(=O)CCc1ccc2c(c1)OCO2
REMARK SMILES IDX 4 1 2 2 1 3 3 4 5 5 6 6 7 7 11 8 8 9 10 10 9 11 12 12 14 13
REMARK SMILES IDX 13 14
REMARK H PARENT
REMARK Flexibility Score: inf
ROOT
ATOM      1  C   UNL     1       6.792   0.698   1.245  1.00  0.00     0.080 C 
ENDROOT
BRANCH   1   2
ATOM      2  C   UNL     1       5.418   1.273   1.264  1.00  0.00     0.130 C 
ATOM      3  C   UNL     1       4.924   2.150   0.168  1.00  0.00     0.087 C 
ATOM      4  O   UNL     1       4.654   1.041   2.186  1.00  0.00    -0.300 OA
ENDBRANCH   1   2
BRANCH   1   5
ATOM      5  C   UNL     1       7.463   0.916  -0.097  1.00  0.00     0.043 C 
BRANCH   5   6
ATOM      6  C   UNL     1       7.804  -0.359  -0.751  1.00  0.00    -0.044 A 
ATOM      7  C   UNL     1       7.876  -0.472  -2.144  1.00  0.00     0.008 A 
ATOM      8  C   UNL     1       8.062  -1.472   0.016  1.00  0.00     0.054 A 
ATOM      9  C   UNL     1       8.202  -1.695  -2.703  1.00  0.00     0.051 A 
ATOM     10  C   UNL     1       8.391  -2.706  -0.553  1.00  0.00     0.166 A 
ATOM     11  C   UNL     1       8.461  -2.818  -1.924  1.00  0.00     0.165 A 
ATOM     12  O   UNL     1       8.686  -3.940  -0.015  1.00  0.00    -0.454 OA
ATOM     13  O   UNL     1       8.803  -4.132  -2.201  1.00  0.00    -0.454 OA
ATOM     14  C   UNL     1       9.043  -4.856  -1.018  1.00  0.00     0.468 C 
ENDBRANCH   5   6
ENDBRANCH   1   5
TORSDOF 3
ENDMDL
