@<TRIPOS>MOLECULE
/home/cewinharhar/GITHUB/reincatalyze/data/processed/docking_pred/2023-May-25-1902_sub9_nm5_bs15_s42_ex16_mel10_mts10000_k50_ec01_g099_lra3e-4_lrc3e-3/13e8c6f9c16a4fbf8ad14846e02839591438c51f_ligand_9.pdbqt
 14 15 0 0 0
SMALL
GASTEIGER

@<TRIPOS>ATOM
      1  C          5.7530    1.3990   -0.3240 C.3     1  UNL1        0.0800
      2  C          5.0980    1.3090    1.0110 C.2     1  UNL1        0.1300
      3  C          5.4010    0.2020    1.9570 C.3     1  UNL1        0.0870
      4  O          4.2880    2.1490    1.3690 O.2     1  UNL1       -0.3000
      5  C          7.2420    1.1330   -0.2250 C.3     1  UNL1        0.0430
      6  C          7.6080   -0.1570   -0.8380 C.2     1  UNL1       -0.0440
      7  C          7.6710   -0.3170   -2.2270 C.2     1  UNL1        0.0080
      8  C          7.9010   -1.2350   -0.0340 C.2     1  UNL1        0.0540
      9  C          8.0210   -1.5510   -2.7440 C.2     1  UNL1        0.0510
     10  C          8.2550   -2.4800   -0.5620 C.2     1  UNL1        0.1660
     11  C          8.3160   -2.6390   -1.9290 C.2     1  UNL1        0.1650
     12  O          8.5860   -3.6870    0.0170 O.2     1  UNL1       -0.4540
     13  O          8.6870   -3.9540   -2.1630 O.2     1  UNL1       -0.4540
     14  C          8.9560   -4.6280   -0.9570 C.3     1  UNL1        0.4680
@<TRIPOS>BOND
     1     9     7    1
     2     9    11    2
     3     7     6    2
     4    13    11    1
     5    13    14    1
     6    11    10    1
     7    14    12    1
     8     6     5    1
     9     6     8    1
    10    10     8    2
    11    10    12    1
    12     1     5    1
    13     1     2    1
    14     2     4    2
    15     2     3    1
