@<TRIPOS>MOLECULE
/home/cewinharhar/GITHUB/reincatalyze/data/processed/docking_pred/2023-May-25-1902_sub9_nm5_bs15_s42_ex16_mel10_mts10000_k50_ec01_g099_lra3e-4_lrc3e-3/13e8c6f9c16a4fbf8ad14846e02839591438c51f_ligand_9.pdbqt
 14 15 0 0 0
SMALL
GASTEIGER

@<TRIPOS>ATOM
      1  C          6.7920    0.6980    1.2450 C.3     1  UNL1        0.0800
      2  C          5.4180    1.2730    1.2640 C.2     1  UNL1        0.1300
      3  C          4.9240    2.1500    0.1680 C.3     1  UNL1        0.0870
      4  O          4.6540    1.0410    2.1860 O.2     1  UNL1       -0.3000
      5  C          7.4630    0.9160   -0.0970 C.3     1  UNL1        0.0430
      6  C          7.8040   -0.3590   -0.7510 C.2     1  UNL1       -0.0440
      7  C          7.8760   -0.4720   -2.1440 C.2     1  UNL1        0.0080
      8  C          8.0620   -1.4720    0.0160 C.2     1  UNL1        0.0540
      9  C          8.2020   -1.6950   -2.7030 C.2     1  UNL1        0.0510
     10  C          8.3910   -2.7060   -0.5530 C.2     1  UNL1        0.1660
     11  C          8.4610   -2.8180   -1.9240 C.2     1  UNL1        0.1650
     12  O          8.6860   -3.9400   -0.0150 O.2     1  UNL1       -0.4540
     13  O          8.8030   -4.1320   -2.2010 O.2     1  UNL1       -0.4540
     14  C          9.0430   -4.8560   -1.0180 C.3     1  UNL1        0.4680
@<TRIPOS>BOND
     1     9     7    1
     2     9    11    2
     3    13    11    1
     4    13    14    1
     5     7     6    2
     6    11    10    1
     7    14    12    1
     8     6     5    1
     9     6     8    1
    10    10    12    1
    11    10     8    2
    12     5     1    1
    13     3     2    1
    14     1     2    1
    15     2     4    2
