@<TRIPOS>MOLECULE
/home/cewinharhar/GITHUB/reincatalyze/data/processed/docking_pred/2023-May-25-1902_sub9_nm5_bs15_s42_ex16_mel10_mts10000_k50_ec01_g099_lra3e-4_lrc3e-3/141a4713aaf07cdd351da17b8461b13d6c9c65f9_ligand_9.pdbqt
 14 15 0 0 0
SMALL
GASTEIGER

@<TRIPOS>ATOM
      1  C          5.8570    1.6270    1.3360 C.3     1  UNL1        0.0800
      2  C          5.3220    0.4410    2.0610 C.2     1  UNL1        0.1300
      3  C          6.1440   -0.7810    2.2710 C.3     1  UNL1        0.0870
      4  O          4.1860    0.4380    2.5050 O.2     1  UNL1       -0.3000
      5  C          5.6530    1.4960   -0.1600 C.3     1  UNL1        0.0430
      6  C          6.7780    0.7970   -0.8060 C.2     1  UNL1       -0.0440
      7  C          8.0760    1.3190   -0.7840 C.2     1  UNL1        0.0080
      8  C          6.5580   -0.4010   -1.4470 C.2     1  UNL1        0.0540
      9  C          9.0920    0.6170   -1.4060 C.2     1  UNL1        0.0510
     10  C          7.5890   -1.1070   -2.0750 C.2     1  UNL1        0.1660
     11  C          8.8660   -0.5930   -2.0540 C.2     1  UNL1        0.1650
     12  O          7.6260   -2.2980   -2.7680 O.2     1  UNL1       -0.4540
     13  O          9.6700   -1.4890   -2.7420 O.2     1  UNL1       -0.4540
     14  C          8.9410   -2.6280   -3.1330 C.3     1  UNL1        0.4680
@<TRIPOS>BOND
     1    14    12    1
     2    14    13    1
     3    12    10    1
     4    13    11    1
     5    10    11    2
     6    10     8    1
     7    11     9    1
     8     8     6    2
     9     9     7    2
    10     6     7    1
    11     6     5    1
    12     5     1    1
    13     1     2    1
    14     2     3    1
    15     2     4    2
