@<TRIPOS>MOLECULE
/home/cewinharhar/GITHUB/reincatalyze/data/processed/docking_pred/2023-May-25-1902_sub9_nm5_bs15_s42_ex16_mel10_mts10000_k50_ec01_g099_lra3e-4_lrc3e-3/141a4713aaf07cdd351da17b8461b13d6c9c65f9_ligand_9.pdbqt
 14 15 0 0 0
SMALL
GASTEIGER

@<TRIPOS>ATOM
      1  C          6.1870   -0.3980    2.3240 C.3     1  UNL1        0.0800
      2  C          5.1390    0.5590    1.8720 C.2     1  UNL1        0.1300
      3  C          5.3140    1.3890    0.6500 C.3     1  UNL1        0.0870
      4  O          4.0990    0.6910    2.4980 O.2     1  UNL1       -0.3000
      5  C          7.5200   -0.1050    1.6660 C.3     1  UNL1        0.0430
      6  C          7.8020   -1.0400    0.5630 C.2     1  UNL1       -0.0440
      7  C          7.6780   -0.6530   -0.7770 C.2     1  UNL1        0.0080
      8  C          8.2010   -2.3270    0.8440 C.2     1  UNL1        0.0540
      9  C          7.9570   -1.5740   -1.7700 C.2     1  UNL1        0.0510
     10  C          8.4830   -3.2540   -0.1640 C.2     1  UNL1        0.1660
     11  C          8.3590   -2.8740   -1.4820 C.2     1  UNL1        0.1650
     12  O          8.8880   -4.5720   -0.1420 O.2     1  UNL1       -0.4540
     13  O          8.6960   -3.9780   -2.2500 O.2     1  UNL1       -0.4540
     14  C          9.1260   -5.0480   -1.4420 C.3     1  UNL1        0.4680
@<TRIPOS>BOND
     1    13    11    1
     2    13    14    1
     3     9    11    2
     4     9     7    1
     5    11    10    1
     6    14    12    1
     7     7     6    2
     8    10    12    1
     9    10     8    2
    10     6     8    1
    11     6     5    1
    12     3     2    1
    13     5     1    1
    14     2     1    1
    15     2     4    2
