@<TRIPOS>MOLECULE
/home/cewinharhar/GITHUB/reincatalyze/data/processed/docking_pred/2023-May-25-1902_sub9_nm5_bs15_s42_ex16_mel10_mts10000_k50_ec01_g099_lra3e-4_lrc3e-3/141a4713aaf07cdd351da17b8461b13d6c9c65f9_ligand_9.pdbqt
 14 15 0 0 0
SMALL
GASTEIGER

@<TRIPOS>ATOM
      1  C          5.9700    1.1740   -0.1980 C.3     1  UNL1        0.0800
      2  C          5.9020    1.1630    1.2900 C.2     1  UNL1        0.1300
      3  C          5.2830    0.0340    2.0350 C.3     1  UNL1        0.0870
      4  O          6.3540    2.0890    1.9440 O.2     1  UNL1       -0.3000
      5  C          7.4060    1.1310   -0.6830 C.3     1  UNL1        0.0430
      6  C          7.7790   -0.2090   -1.1690 C.2     1  UNL1       -0.0440
      7  C          7.9570   -0.4720   -2.5320 C.2     1  UNL1        0.0080
      8  C          7.9620   -1.2340   -0.2690 C.2     1  UNL1        0.0540
      9  C          8.3080   -1.7490   -2.9300 C.2     1  UNL1        0.0510
     10  C          8.3180   -2.5240   -0.6760 C.2     1  UNL1        0.1660
     11  C          8.4920   -2.7830   -2.0170 C.2     1  UNL1        0.1650
     12  O          8.5540   -3.6950    0.0130 O.2     1  UNL1       -0.4540
     13  O          8.8360   -4.1220   -2.1260 O.2     1  UNL1       -0.4540
     14  C          8.9750   -4.7150   -0.8570 C.3     1  UNL1        0.4680
@<TRIPOS>BOND
     1     9     7    1
     2     9    11    2
     3     7     6    2
     4    13    11    1
     5    13    14    1
     6    11    10    1
     7     6     5    1
     8     6     8    1
     9    14    12    1
    10     5     1    1
    11    10     8    2
    12    10    12    1
    13     1     2    1
    14     2     4    2
    15     2     3    1
