MODEL 1
REMARK VINA RESULT:      -7.3      0.000      0.000
REMARK SMILES CC(=O)CCc1ccc2c(c1)OCO2
REMARK SMILES IDX 4 1 2 2 1 3 3 4 5 5 6 6 7 7 11 8 8 9 10 10 9 11 12 12 14 13
REMARK SMILES IDX 13 14
REMARK H PARENT
REMARK Flexibility Score: inf
ROOT
ATOM      1  C   UNL     1       5.857   1.627   1.336  1.00  0.00     0.080 C 
ENDROOT
BRANCH   1   2
ATOM      2  C   UNL     1       5.322   0.441   2.061  1.00  0.00     0.130 C 
ATOM      3  C   UNL     1       6.144  -0.781   2.271  1.00  0.00     0.087 C 
ATOM      4  O   UNL     1       4.186   0.438   2.505  1.00  0.00    -0.300 OA
ENDBRANCH   1   2
BRANCH   1   5
ATOM      5  C   UNL     1       5.653   1.496  -0.160  1.00  0.00     0.043 C 
BRANCH   5   6
ATOM      6  C   UNL     1       6.778   0.797  -0.806  1.00  0.00    -0.044 A 
ATOM      7  C   UNL     1       8.076   1.319  -0.784  1.00  0.00     0.008 A 
ATOM      8  C   UNL     1       6.558  -0.401  -1.447  1.00  0.00     0.054 A 
ATOM      9  C   UNL     1       9.092   0.617  -1.406  1.00  0.00     0.051 A 
ATOM     10  C   UNL     1       7.589  -1.107  -2.075  1.00  0.00     0.166 A 
ATOM     11  C   UNL     1       8.866  -0.593  -2.054  1.00  0.00     0.165 A 
ATOM     12  O   UNL     1       7.626  -2.298  -2.768  1.00  0.00    -0.454 OA
ATOM     13  O   UNL     1       9.670  -1.489  -2.742  1.00  0.00    -0.454 OA
ATOM     14  C   UNL     1       8.941  -2.628  -3.133  1.00  0.00     0.468 C 
ENDBRANCH   5   6
ENDBRANCH   1   5
TORSDOF 3
ENDMDL
MODEL 2
REMARK VINA RESULT:      -7.1      1.128      1.184
REMARK SMILES CC(=O)CCc1ccc2c(c1)OCO2
REMARK SMILES IDX 4 1 2 2 1 3 3 4 5 5 6 6 7 7 11 8 8 9 10 10 9 11 12 12 14 13
REMARK SMILES IDX 13 14
REMARK H PARENT
REMARK Flexibility Score: inf
ROOT
ATOM      1  C   UNL     1       6.391   1.224   0.929  1.00  0.00     0.080 C 
ENDROOT
BRANCH   1   2
ATOM      2  C   UNL     1       5.655   0.393   1.923  1.00  0.00     0.130 C 
ATOM      3  C   UNL     1       6.252  -0.838   2.507  1.00  0.00     0.087 C 
ATOM      4  O   UNL     1       4.532   0.701   2.288  1.00  0.00    -0.300 OA
ENDBRANCH   1   2
BRANCH   1   5
ATOM      5  C   UNL     1       5.895   0.966  -0.479  1.00  0.00     0.043 C 
BRANCH   5   6
ATOM      6  C   UNL     1       6.834   0.128  -1.245  1.00  0.00    -0.044 A 
ATOM      7  C   UNL     1       7.528   0.628  -2.353  1.00  0.00     0.008 A 
ATOM      8  C   UNL     1       7.044  -1.179  -0.869  1.00  0.00     0.054 A 
ATOM      9  C   UNL     1       8.397  -0.206  -3.033  1.00  0.00     0.051 A 
ATOM     10  C   UNL     1       7.925  -2.018  -1.559  1.00  0.00     0.166 A 
ATOM     11  C   UNL     1       8.606  -1.527  -2.650  1.00  0.00     0.165 A 
ATOM     12  O   UNL     1       8.299  -3.333  -1.386  1.00  0.00    -0.454 OA
ATOM     13  O   UNL     1       9.395  -2.562  -3.129  1.00  0.00    -0.454 OA
ATOM     14  C   UNL     1       9.299  -3.697  -2.303  1.00  0.00     0.468 C 
ENDBRANCH   5   6
ENDBRANCH   1   5
TORSDOF 3
ENDMDL
MODEL 3
REMARK VINA RESULT:      -7.0      1.834      2.318
REMARK SMILES CC(=O)CCc1ccc2c(c1)OCO2
REMARK SMILES IDX 4 1 2 2 1 3 3 4 5 5 6 6 7 7 11 8 8 9 10 10 9 11 12 12 14 13
REMARK SMILES IDX 13 14
REMARK H PARENT
REMARK Flexibility Score: inf
ROOT
ATOM      1  C   UNL     1       5.970   1.174  -0.198  1.00  0.00     0.080 C 
ENDROOT
BRANCH   1   2
ATOM      2  C   UNL     1       5.902   1.163   1.290  1.00  0.00     0.130 C 
ATOM      3  C   UNL     1       5.283   0.034   2.035  1.00  0.00     0.087 C 
ATOM      4  O   UNL     1       6.354   2.089   1.944  1.00  0.00    -0.300 OA
ENDBRANCH   1   2
BRANCH   1   5
ATOM      5  C   UNL     1       7.406   1.131  -0.683  1.00  0.00     0.043 C 
BRANCH   5   6
ATOM      6  C   UNL     1       7.779  -0.209  -1.169  1.00  0.00    -0.044 A 
ATOM      7  C   UNL     1       7.957  -0.472  -2.532  1.00  0.00     0.008 A 
ATOM      8  C   UNL     1       7.962  -1.234  -0.269  1.00  0.00     0.054 A 
ATOM      9  C   UNL     1       8.308  -1.749  -2.930  1.00  0.00     0.051 A 
ATOM     10  C   UNL     1       8.318  -2.524  -0.676  1.00  0.00     0.166 A 
ATOM     11  C   UNL     1       8.492  -2.783  -2.017  1.00  0.00     0.165 A 
ATOM     12  O   UNL     1       8.554  -3.695   0.013  1.00  0.00    -0.454 OA
ATOM     13  O   UNL     1       8.836  -4.122  -2.126  1.00  0.00    -0.454 OA
ATOM     14  C   UNL     1       8.975  -4.715  -0.857  1.00  0.00     0.468 C 
ENDBRANCH   5   6
ENDBRANCH   1   5
TORSDOF 3
ENDMDL
MODEL 4
REMARK VINA RESULT:      -6.6      2.057      2.613
REMARK SMILES CC(=O)CCc1ccc2c(c1)OCO2
REMARK SMILES IDX 4 1 2 2 1 3 3 4 5 5 6 6 7 7 11 8 8 9 10 10 9 11 12 12 14 13
REMARK SMILES IDX 13 14
REMARK H PARENT
REMARK Flexibility Score: inf
ROOT
ATOM      1  C   UNL     1       6.187  -0.398   2.324  1.00  0.00     0.080 C 
ENDROOT
BRANCH   1   2
ATOM      2  C   UNL     1       5.139   0.559   1.872  1.00  0.00     0.130 C 
ATOM      3  C   UNL     1       5.314   1.389   0.650  1.00  0.00     0.087 C 
ATOM      4  O   UNL     1       4.099   0.691   2.498  1.00  0.00    -0.300 OA
ENDBRANCH   1   2
BRANCH   1   5
ATOM      5  C   UNL     1       7.520  -0.105   1.666  1.00  0.00     0.043 C 
BRANCH   5   6
ATOM      6  C   UNL     1       7.802  -1.040   0.563  1.00  0.00    -0.044 A 
ATOM      7  C   UNL     1       7.678  -0.653  -0.777  1.00  0.00     0.008 A 
ATOM      8  C   UNL     1       8.201  -2.327   0.844  1.00  0.00     0.054 A 
ATOM      9  C   UNL     1       7.957  -1.574  -1.770  1.00  0.00     0.051 A 
ATOM     10  C   UNL     1       8.483  -3.254  -0.164  1.00  0.00     0.166 A 
ATOM     11  C   UNL     1       8.359  -2.874  -1.482  1.00  0.00     0.165 A 
ATOM     12  O   UNL     1       8.888  -4.572  -0.142  1.00  0.00    -0.454 OA
ATOM     13  O   UNL     1       8.696  -3.978  -2.250  1.00  0.00    -0.454 OA
ATOM     14  C   UNL     1       9.126  -5.048  -1.442  1.00  0.00     0.468 C 
ENDBRANCH   5   6
ENDBRANCH   1   5
TORSDOF 3
ENDMDL
MODEL 5
REMARK VINA RESULT:      -6.4      2.154      2.553
REMARK SMILES CC(=O)CCc1ccc2c(c1)OCO2
REMARK SMILES IDX 4 1 2 2 1 3 3 4 5 5 6 6 7 7 11 8 8 9 10 10 9 11 12 12 14 13
REMARK SMILES IDX 13 14
REMARK H PARENT
REMARK Flexibility Score: inf
ROOT
ATOM      1  C   UNL     1       5.809   1.048  -0.298  1.00  0.00     0.080 C 
ENDROOT
BRANCH   1   2
ATOM      2  C   UNL     1       5.739   1.268   1.174  1.00  0.00     0.130 C 
ATOM      3  C   UNL     1       4.875   0.432   2.049  1.00  0.00     0.087 C 
ATOM      4  O   UNL     1       6.395   2.149   1.708  1.00  0.00    -0.300 OA
ENDBRANCH   1   2
BRANCH   1   5
ATOM      5  C   UNL     1       7.238   0.829  -0.754  1.00  0.00     0.043 C 
BRANCH   5   6
ATOM      6  C   UNL     1       7.700  -0.540  -0.467  1.00  0.00    -0.044 A 
ATOM      7  C   UNL     1       7.920  -0.980   0.844  1.00  0.00     0.008 A 
ATOM      8  C   UNL     1       7.920  -1.418  -1.504  1.00  0.00     0.054 A 
ATOM      9  C   UNL     1       8.353  -2.276   1.053  1.00  0.00     0.051 A 
ATOM     10  C   UNL     1       8.357  -2.728  -1.287  1.00  0.00     0.166 A 
ATOM     11  C   UNL     1       8.575  -3.161   0.002  1.00  0.00     0.165 A 
ATOM     12  O   UNL     1       8.645  -3.775  -2.136  1.00  0.00    -0.454 OA
ATOM     13  O   UNL     1       8.996  -4.479  -0.083  1.00  0.00    -0.454 OA
ATOM     14  C   UNL     1       8.967  -4.936  -1.414  1.00  0.00     0.468 C 
ENDBRANCH   5   6
ENDBRANCH   1   5
TORSDOF 3
ENDMDL
