@<TRIPOS>MOLECULE
/home/cewinharhar/GITHUB/reincatalyze/data/processed/docking_pred/2023-May-25-1902_sub9_nm5_bs15_s42_ex16_mel10_mts10000_k50_ec01_g099_lra3e-4_lrc3e-3/141a4713aaf07cdd351da17b8461b13d6c9c65f9_ligand_9.pdbqt
 14 15 0 0 0
SMALL
GASTEIGER

@<TRIPOS>ATOM
      1  C          5.8090    1.0480   -0.2980 C.3     1  UNL1        0.0800
      2  C          5.7390    1.2680    1.1740 C.2     1  UNL1        0.1300
      3  C          4.8750    0.4320    2.0490 C.3     1  UNL1        0.0870
      4  O          6.3950    2.1490    1.7080 O.2     1  UNL1       -0.3000
      5  C          7.2380    0.8290   -0.7540 C.3     1  UNL1        0.0430
      6  C          7.7000   -0.5400   -0.4670 C.2     1  UNL1       -0.0440
      7  C          7.9200   -0.9800    0.8440 C.2     1  UNL1        0.0080
      8  C          7.9200   -1.4180   -1.5040 C.2     1  UNL1        0.0540
      9  C          8.3530   -2.2760    1.0530 C.2     1  UNL1        0.0510
     10  C          8.3570   -2.7280   -1.2870 C.2     1  UNL1        0.1660
     11  C          8.5750   -3.1610    0.0020 C.2     1  UNL1        0.1650
     12  O          8.6450   -3.7750   -2.1360 O.2     1  UNL1       -0.4540
     13  O          8.9960   -4.4790   -0.0830 O.2     1  UNL1       -0.4540
     14  C          8.9670   -4.9360   -1.4140 C.3     1  UNL1        0.4680
@<TRIPOS>BOND
     1    12    14    1
     2    12    10    1
     3     8    10    1
     4     8     6    2
     5    14    13    1
     6    10    11    2
     7     5     6    1
     8     5     1    1
     9     6     7    1
    10     1     2    1
    11    13    11    1
    12    11     9    1
    13     7     9    2
    14     2     4    2
    15     2     3    1
