@<TRIPOS>MOLECULE
/home/cewinharhar/GITHUB/reincatalyze/data/processed/docking_pred/2023-May-25-1902_sub9_nm5_bs15_s42_ex16_mel10_mts10000_k50_ec01_g099_lra3e-4_lrc3e-3/141a4713aaf07cdd351da17b8461b13d6c9c65f9_ligand_9.pdbqt
 14 15 0 0 0
SMALL
GASTEIGER

@<TRIPOS>ATOM
      1  C          6.3910    1.2240    0.9290 C.3     1  UNL1        0.0800
      2  C          5.6550    0.3930    1.9230 C.2     1  UNL1        0.1300
      3  C          6.2520   -0.8380    2.5070 C.3     1  UNL1        0.0870
      4  O          4.5320    0.7010    2.2880 O.2     1  UNL1       -0.3000
      5  C          5.8950    0.9660   -0.4790 C.3     1  UNL1        0.0430
      6  C          6.8340    0.1280   -1.2450 C.2     1  UNL1       -0.0440
      7  C          7.5280    0.6280   -2.3530 C.2     1  UNL1        0.0080
      8  C          7.0440   -1.1790   -0.8690 C.2     1  UNL1        0.0540
      9  C          8.3970   -0.2060   -3.0330 C.2     1  UNL1        0.0510
     10  C          7.9250   -2.0180   -1.5590 C.2     1  UNL1        0.1660
     11  C          8.6060   -1.5270   -2.6500 C.2     1  UNL1        0.1650
     12  O          8.2990   -3.3330   -1.3860 O.2     1  UNL1       -0.4540
     13  O          9.3950   -2.5620   -3.1290 O.2     1  UNL1       -0.4540
     14  C          9.2990   -3.6970   -2.3030 C.3     1  UNL1        0.4680
@<TRIPOS>BOND
     1    13    11    1
     2    13    14    1
     3     9    11    2
     4     9     7    1
     5    11    10    1
     6     7     6    2
     7    14    12    1
     8    10    12    1
     9    10     8    2
    10     6     8    1
    11     6     5    1
    12     5     1    1
    13     1     2    1
    14     2     4    2
    15     2     3    1
