@<TRIPOS>MOLECULE
/home/cewinharhar/GITHUB/reincatalyze/data/processed/docking_pred/2023-May-25-1902_sub9_nm5_bs15_s42_ex16_mel10_mts10000_k50_ec01_g099_lra3e-4_lrc3e-3/1444e75be78da7e2931ed2b5f85ad252461f0798_ligand_9.pdbqt
 14 15 0 0 0
SMALL
GASTEIGER

@<TRIPOS>ATOM
      1  C          6.3630    1.1740    0.9320 C.3     1  UNL1        0.0800
      2  C          5.6620    0.3460    1.9520 C.2     1  UNL1        0.1300
      3  C          6.2890   -0.8700    2.5360 C.3     1  UNL1        0.0870
      4  O          4.5440    0.6440    2.3410 O.2     1  UNL1       -0.3000
      5  C          5.8520    0.8770   -0.4640 C.3     1  UNL1        0.0430
      6  C          6.8100    0.0640   -1.2350 C.2     1  UNL1       -0.0440
      7  C          7.5030    0.5910   -2.3310 C.2     1  UNL1        0.0080
      8  C          7.0380   -1.2450   -0.8760 C.2     1  UNL1        0.0540
      9  C          8.3900   -0.2190   -3.0160 C.2     1  UNL1        0.0510
     10  C          7.9360   -2.0600   -1.5710 C.2     1  UNL1        0.1660
     11  C          8.6180   -1.5430   -2.6510 C.2     1  UNL1        0.1650
     12  O          8.3300   -3.3710   -1.4140 O.2     1  UNL1       -0.4540
     13  O          9.4250   -2.5580   -3.1380 O.2     1  UNL1       -0.4540
     14  C          9.3420   -3.7070   -2.3290 C.3     1  UNL1        0.4680
@<TRIPOS>BOND
     1    13    11    1
     2    13    14    1
     3     9    11    2
     4     9     7    1
     5    11    10    1
     6     7     6    2
     7    14    12    1
     8    10    12    1
     9    10     8    2
    10     6     8    1
    11     6     5    1
    12     5     1    1
    13     1     2    1
    14     2     4    2
    15     2     3    1
