@<TRIPOS>MOLECULE
/home/cewinharhar/GITHUB/reincatalyze/data/processed/docking_pred/2023-May-25-1902_sub9_nm5_bs15_s42_ex16_mel10_mts10000_k50_ec01_g099_lra3e-4_lrc3e-3/147bd0c4ea54ff1bff04115a6e1e4f4e04ef1454_ligand_9.pdbqt
 14 15 0 0 0
SMALL
GASTEIGER

@<TRIPOS>ATOM
      1  C          6.3680    1.1680    0.9470 C.3     1  UNL1        0.0800
      2  C          5.6440    0.3490    1.9590 C.2     1  UNL1        0.1300
      3  C          6.2510   -0.8730    2.5530 C.3     1  UNL1        0.0870
      4  O          4.5240    0.6580    2.3310 O.2     1  UNL1       -0.3000
      5  C          5.8600    0.8880   -0.4530 C.3     1  UNL1        0.0430
      6  C          6.8140    0.0750   -1.2280 C.2     1  UNL1       -0.0440
      7  C          7.5020    0.6010   -2.3280 C.2     1  UNL1        0.0080
      8  C          7.0450   -1.2330   -0.8690 C.2     1  UNL1        0.0540
      9  C          8.3860   -0.2090   -3.0160 C.2     1  UNL1        0.0510
     10  C          7.9400   -2.0480   -1.5680 C.2     1  UNL1        0.1660
     11  C          8.6160   -1.5310   -2.6510 C.2     1  UNL1        0.1650
     12  O          8.3360   -3.3590   -1.4120 O.2     1  UNL1       -0.4540
     13  O          9.4220   -2.5470   -3.1410 O.2     1  UNL1       -0.4540
     14  C          9.3440   -3.6950   -2.3310 C.3     1  UNL1        0.4680
@<TRIPOS>BOND
     1    13    11    1
     2    13    14    1
     3     9    11    2
     4     9     7    1
     5    11    10    1
     6    14    12    1
     7     7     6    2
     8    10    12    1
     9    10     8    2
    10     6     8    1
    11     6     5    1
    12     5     1    1
    13     1     2    1
    14     2     4    2
    15     2     3    1
