@<TRIPOS>MOLECULE
/home/cewinharhar/GITHUB/reincatalyze/data/processed/docking_pred/2023-May-25-1902_sub9_nm5_bs15_s42_ex16_mel10_mts10000_k50_ec01_g099_lra3e-4_lrc3e-3/147bd0c4ea54ff1bff04115a6e1e4f4e04ef1454_ligand_9.pdbqt
 14 15 0 0 0
SMALL
GASTEIGER

@<TRIPOS>ATOM
      1  C          5.3990   -0.0830    2.0120 C.3     1  UNL1        0.0800
      2  C          4.5770    1.1350    1.7700 C.2     1  UNL1        0.1300
      3  C          4.9330    2.1200    0.7140 C.3     1  UNL1        0.0870
      4  O          3.5800    1.3620    2.4370 O.2     1  UNL1       -0.3000
      5  C          6.8480    0.1470    1.6310 C.3     1  UNL1        0.0430
      6  C          7.2820   -0.7660    0.5590 C.2     1  UNL1       -0.0440
      7  C          7.1640   -0.4190   -0.7920 C.2     1  UNL1        0.0080
      8  C          7.8210   -1.9910    0.8820 C.2     1  UNL1        0.0540
      9  C          7.5890   -1.3160   -1.7550 C.2     1  UNL1        0.0510
     10  C          8.2500   -2.8940   -0.0960 C.2     1  UNL1        0.1660
     11  C          8.1320   -2.5540   -1.4250 C.2     1  UNL1        0.1650
     12  O          8.8090   -4.1530   -0.0310 O.2     1  UNL1       -0.4540
     13  O          8.6290   -3.6210   -2.1570 O.2     1  UNL1       -0.4540
     14  C          9.1510   -4.6180   -1.3120 C.3     1  UNL1        0.4680
@<TRIPOS>BOND
     1    13    11    1
     2    13    14    1
     3     9    11    2
     4     9     7    1
     5    11    10    1
     6    14    12    1
     7     7     6    2
     8    10    12    1
     9    10     8    2
    10     6     8    1
    11     6     5    1
    12     3     2    1
    13     5     1    1
    14     2     1    1
    15     2     4    2
