@<TRIPOS>MOLECULE
/home/cewinharhar/GITHUB/reincatalyze/data/processed/docking_pred/2023-May-25-1902_sub9_nm5_bs15_s42_ex16_mel10_mts10000_k50_ec01_g099_lra3e-4_lrc3e-3/147bd0c4ea54ff1bff04115a6e1e4f4e04ef1454_ligand_9.pdbqt
 14 15 0 0 0
SMALL
GASTEIGER

@<TRIPOS>ATOM
      1  C          6.7450    0.8300    1.3450 C.3     1  UNL1        0.0800
      2  C          5.3030    1.1990    1.4130 C.2     1  UNL1        0.1300
      3  C          4.6930    2.1480    0.4430 C.3     1  UNL1        0.0870
      4  O          4.5760    0.7300    2.2730 O.2     1  UNL1       -0.3000
      5  C          7.2980    1.0280   -0.0530 C.3     1  UNL1        0.0430
      6  C          7.6490   -0.2550   -0.6880 C.2     1  UNL1       -0.0440
      7  C          7.6620   -0.4040   -2.0800 C.2     1  UNL1        0.0080
      8  C          7.9750   -1.3380    0.0960 C.2     1  UNL1        0.0540
      9  C          7.9990   -1.6320   -2.6200 C.2     1  UNL1        0.0510
     10  C          8.3170   -2.5770   -0.4550 C.2     1  UNL1        0.1660
     11  C          8.3280   -2.7250   -1.8240 C.2     1  UNL1        0.1650
     12  O          8.6730   -3.7860    0.1020 O.2     1  UNL1       -0.4540
     13  O          8.6970   -4.0360   -2.0820 O.2     1  UNL1       -0.4540
     14  C          9.0130   -4.7190   -0.8920 C.3     1  UNL1        0.4680
@<TRIPOS>BOND
     1     9     7    1
     2     9    11    2
     3    13    11    1
     4    13    14    1
     5     7     6    2
     6    11    10    1
     7    14    12    1
     8     6     5    1
     9     6     8    1
    10    10     8    2
    11    10    12    1
    12     5     1    1
    13     3     2    1
    14     1     2    1
    15     2     4    2
