@<TRIPOS>MOLECULE
/home/cewinharhar/GITHUB/reincatalyze/data/processed/docking_pred/2023-May-25-1902_sub9_nm5_bs15_s42_ex16_mel10_mts10000_k50_ec01_g099_lra3e-4_lrc3e-3/147bd0c4ea54ff1bff04115a6e1e4f4e04ef1454_ligand_9.pdbqt
 14 15 0 0 0
SMALL
GASTEIGER

@<TRIPOS>ATOM
      1  C          5.7620    1.2410   -0.3850 C.3     1  UNL1        0.0800
      2  C          5.1650    1.2450    0.9800 C.2     1  UNL1        0.1300
      3  C          5.4370    0.1550    1.9540 C.3     1  UNL1        0.0870
      4  O          4.4280    2.1500    1.3390 O.2     1  UNL1       -0.3000
      5  C          7.2670    1.0680   -0.3270 C.3     1  UNL1        0.0430
      6  C          7.6940   -0.2040   -0.9360 C.2     1  UNL1       -0.0440
      7  C          7.9240   -0.3170   -2.3120 C.2     1  UNL1        0.0080
      8  C          7.8770   -1.3140   -0.1420 C.2     1  UNL1        0.0540
      9  C          8.3250   -1.5360   -2.8280 C.2     1  UNL1        0.0510
     10  C          8.2820   -2.5440   -0.6690 C.2     1  UNL1        0.1660
     11  C          8.5080   -2.6560   -2.0230 C.2     1  UNL1        0.1650
     12  O          8.5290   -3.7750   -0.0980 O.2     1  UNL1       -0.4540
     13  O          8.8930   -3.9670   -2.2580 O.2     1  UNL1       -0.4540
     14  C          9.0080   -4.6860   -1.0530 C.3     1  UNL1        0.4680
@<TRIPOS>BOND
     1     9     7    1
     2     9    11    2
     3     7     6    2
     4    13    11    1
     5    13    14    1
     6    11    10    1
     7    14    12    1
     8     6     5    1
     9     6     8    1
    10    10     8    2
    11    10    12    1
    12     1     5    1
    13     1     2    1
    14     2     4    2
    15     2     3    1
