MODEL 1
REMARK VINA RESULT:      -7.7      0.000      0.000
REMARK SMILES CC(=O)CCc1ccc2c(c1)OCO2
REMARK SMILES IDX 4 1 2 2 1 3 3 4 5 5 6 6 7 7 11 8 8 9 10 10 9 11 12 12 14 13
REMARK SMILES IDX 13 14
REMARK H PARENT
REMARK Flexibility Score: inf
ROOT
ATOM      1  C   UNL     1       5.486   1.933   1.251  1.00  0.00     0.080 C 
ENDROOT
BRANCH   1   2
ATOM      2  C   UNL     1       5.040   0.718   1.989  1.00  0.00     0.130 C 
ATOM      3  C   UNL     1       5.914  -0.478   2.124  1.00  0.00     0.087 C 
ATOM      4  O   UNL     1       3.936   0.669   2.506  1.00  0.00    -0.300 OA
ENDBRANCH   1   2
BRANCH   1   5
ATOM      5  C   UNL     1       5.371   1.740  -0.248  1.00  0.00     0.043 C 
BRANCH   5   6
ATOM      6  C   UNL     1       6.545   1.042  -0.801  1.00  0.00    -0.044 A 
ATOM      7  C   UNL     1       7.849   1.475  -0.533  1.00  0.00     0.008 A 
ATOM      8  C   UNL     1       6.367  -0.064  -1.600  1.00  0.00     0.054 A 
ATOM      9  C   UNL     1       8.912   0.779  -1.079  1.00  0.00     0.051 A 
ATOM     10  C   UNL     1       7.445  -0.764  -2.149  1.00  0.00     0.166 A 
ATOM     11  C   UNL     1       8.729  -0.339  -1.887  1.00  0.00     0.165 A 
ATOM     12  O   UNL     1       7.529  -1.875  -2.962  1.00  0.00    -0.454 OA
ATOM     13  O   UNL     1       9.582  -1.206  -2.550  1.00  0.00    -0.454 OA
ATOM     14  C   UNL     1       8.867  -2.249  -3.169  1.00  0.00     0.468 C 
ENDBRANCH   5   6
ENDBRANCH   1   5
TORSDOF 3
ENDMDL
MODEL 2
REMARK VINA RESULT:      -7.4      1.914      2.390
REMARK SMILES CC(=O)CCc1ccc2c(c1)OCO2
REMARK SMILES IDX 4 1 2 2 1 3 3 4 5 5 6 6 7 7 11 8 8 9 10 10 9 11 12 12 14 13
REMARK SMILES IDX 13 14
REMARK H PARENT
REMARK Flexibility Score: inf
ROOT
ATOM      1  C   UNL     1       5.762   1.241  -0.385  1.00  0.00     0.080 C 
ENDROOT
BRANCH   1   2
ATOM      2  C   UNL     1       5.165   1.245   0.980  1.00  0.00     0.130 C 
ATOM      3  C   UNL     1       5.437   0.155   1.954  1.00  0.00     0.087 C 
ATOM      4  O   UNL     1       4.428   2.150   1.339  1.00  0.00    -0.300 OA
ENDBRANCH   1   2
BRANCH   1   5
ATOM      5  C   UNL     1       7.267   1.068  -0.327  1.00  0.00     0.043 C 
BRANCH   5   6
ATOM      6  C   UNL     1       7.694  -0.204  -0.936  1.00  0.00    -0.044 A 
ATOM      7  C   UNL     1       7.924  -0.317  -2.312  1.00  0.00     0.008 A 
ATOM      8  C   UNL     1       7.877  -1.314  -0.142  1.00  0.00     0.054 A 
ATOM      9  C   UNL     1       8.325  -1.536  -2.828  1.00  0.00     0.051 A 
ATOM     10  C   UNL     1       8.282  -2.544  -0.669  1.00  0.00     0.166 A 
ATOM     11  C   UNL     1       8.508  -2.656  -2.023  1.00  0.00     0.165 A 
ATOM     12  O   UNL     1       8.529  -3.775  -0.098  1.00  0.00    -0.454 OA
ATOM     13  O   UNL     1       8.893  -3.967  -2.258  1.00  0.00    -0.454 OA
ATOM     14  C   UNL     1       9.008  -4.686  -1.053  1.00  0.00     0.468 C 
ENDBRANCH   5   6
ENDBRANCH   1   5
TORSDOF 3
ENDMDL
MODEL 3
REMARK VINA RESULT:      -7.3      2.069      2.650
REMARK SMILES CC(=O)CCc1ccc2c(c1)OCO2
REMARK SMILES IDX 4 1 2 2 1 3 3 4 5 5 6 6 7 7 11 8 8 9 10 10 9 11 12 12 14 13
REMARK SMILES IDX 13 14
REMARK H PARENT
REMARK Flexibility Score: inf
ROOT
ATOM      1  C   UNL     1       5.399  -0.083   2.012  1.00  0.00     0.080 C 
ENDROOT
BRANCH   1   2
ATOM      2  C   UNL     1       4.577   1.135   1.770  1.00  0.00     0.130 C 
ATOM      3  C   UNL     1       4.933   2.120   0.714  1.00  0.00     0.087 C 
ATOM      4  O   UNL     1       3.580   1.362   2.437  1.00  0.00    -0.300 OA
ENDBRANCH   1   2
BRANCH   1   5
ATOM      5  C   UNL     1       6.848   0.147   1.631  1.00  0.00     0.043 C 
BRANCH   5   6
ATOM      6  C   UNL     1       7.282  -0.766   0.559  1.00  0.00    -0.044 A 
ATOM      7  C   UNL     1       7.164  -0.419  -0.792  1.00  0.00     0.008 A 
ATOM      8  C   UNL     1       7.821  -1.991   0.882  1.00  0.00     0.054 A 
ATOM      9  C   UNL     1       7.589  -1.316  -1.755  1.00  0.00     0.051 A 
ATOM     10  C   UNL     1       8.250  -2.894  -0.096  1.00  0.00     0.166 A 
ATOM     11  C   UNL     1       8.132  -2.554  -1.425  1.00  0.00     0.165 A 
ATOM     12  O   UNL     1       8.809  -4.153  -0.031  1.00  0.00    -0.454 OA
ATOM     13  O   UNL     1       8.629  -3.621  -2.157  1.00  0.00    -0.454 OA
ATOM     14  C   UNL     1       9.151  -4.618  -1.312  1.00  0.00     0.468 C 
ENDBRANCH   5   6
ENDBRANCH   1   5
TORSDOF 3
ENDMDL
MODEL 4
REMARK VINA RESULT:      -7.1      2.014      2.561
REMARK SMILES CC(=O)CCc1ccc2c(c1)OCO2
REMARK SMILES IDX 4 1 2 2 1 3 3 4 5 5 6 6 7 7 11 8 8 9 10 10 9 11 12 12 14 13
REMARK SMILES IDX 13 14
REMARK H PARENT
REMARK Flexibility Score: inf
ROOT
ATOM      1  C   UNL     1       6.745   0.830   1.345  1.00  0.00     0.080 C 
ENDROOT
BRANCH   1   2
ATOM      2  C   UNL     1       5.303   1.199   1.413  1.00  0.00     0.130 C 
ATOM      3  C   UNL     1       4.693   2.148   0.443  1.00  0.00     0.087 C 
ATOM      4  O   UNL     1       4.576   0.730   2.273  1.00  0.00    -0.300 OA
ENDBRANCH   1   2
BRANCH   1   5
ATOM      5  C   UNL     1       7.298   1.028  -0.053  1.00  0.00     0.043 C 
BRANCH   5   6
ATOM      6  C   UNL     1       7.649  -0.255  -0.688  1.00  0.00    -0.044 A 
ATOM      7  C   UNL     1       7.662  -0.404  -2.080  1.00  0.00     0.008 A 
ATOM      8  C   UNL     1       7.975  -1.338   0.096  1.00  0.00     0.054 A 
ATOM      9  C   UNL     1       7.999  -1.632  -2.620  1.00  0.00     0.051 A 
ATOM     10  C   UNL     1       8.317  -2.577  -0.455  1.00  0.00     0.166 A 
ATOM     11  C   UNL     1       8.328  -2.725  -1.824  1.00  0.00     0.165 A 
ATOM     12  O   UNL     1       8.673  -3.786   0.102  1.00  0.00    -0.454 OA
ATOM     13  O   UNL     1       8.697  -4.036  -2.082  1.00  0.00    -0.454 OA
ATOM     14  C   UNL     1       9.013  -4.719  -0.892  1.00  0.00     0.468 C 
ENDBRANCH   5   6
ENDBRANCH   1   5
TORSDOF 3
ENDMDL
MODEL 5
REMARK VINA RESULT:      -7.1      1.271      1.492
REMARK SMILES CC(=O)CCc1ccc2c(c1)OCO2
REMARK SMILES IDX 4 1 2 2 1 3 3 4 5 5 6 6 7 7 11 8 8 9 10 10 9 11 12 12 14 13
REMARK SMILES IDX 13 14
REMARK H PARENT
REMARK Flexibility Score: inf
ROOT
ATOM      1  C   UNL     1       6.368   1.168   0.947  1.00  0.00     0.080 C 
ENDROOT
BRANCH   1   2
ATOM      2  C   UNL     1       5.644   0.349   1.959  1.00  0.00     0.130 C 
ATOM      3  C   UNL     1       6.251  -0.873   2.553  1.00  0.00     0.087 C 
ATOM      4  O   UNL     1       4.524   0.658   2.331  1.00  0.00    -0.300 OA
ENDBRANCH   1   2
BRANCH   1   5
ATOM      5  C   UNL     1       5.860   0.888  -0.453  1.00  0.00     0.043 C 
BRANCH   5   6
ATOM      6  C   UNL     1       6.814   0.075  -1.228  1.00  0.00    -0.044 A 
ATOM      7  C   UNL     1       7.502   0.601  -2.328  1.00  0.00     0.008 A 
ATOM      8  C   UNL     1       7.045  -1.233  -0.869  1.00  0.00     0.054 A 
ATOM      9  C   UNL     1       8.386  -0.209  -3.016  1.00  0.00     0.051 A 
ATOM     10  C   UNL     1       7.940  -2.048  -1.568  1.00  0.00     0.166 A 
ATOM     11  C   UNL     1       8.616  -1.531  -2.651  1.00  0.00     0.165 A 
ATOM     12  O   UNL     1       8.336  -3.359  -1.412  1.00  0.00    -0.454 OA
ATOM     13  O   UNL     1       9.422  -2.547  -3.141  1.00  0.00    -0.454 OA
ATOM     14  C   UNL     1       9.344  -3.695  -2.331  1.00  0.00     0.468 C 
ENDBRANCH   5   6
ENDBRANCH   1   5
TORSDOF 3
ENDMDL
