@<TRIPOS>MOLECULE
/home/cewinharhar/GITHUB/reincatalyze/data/processed/docking_pred/2023-May-25-1902_sub9_nm5_bs15_s42_ex16_mel10_mts10000_k50_ec01_g099_lra3e-4_lrc3e-3/16519f8051380dc2329c6f51dcb24a8f5dfeda31_ligand_9.pdbqt
 14 15 0 0 0
SMALL
GASTEIGER

@<TRIPOS>ATOM
      1  C          5.3230   -0.0660    1.9770 C.3     1  UNL1        0.0800
      2  C          4.4410    1.1200    1.7890 C.2     1  UNL1        0.1300
      3  C          4.7260    2.1500    0.7540 C.3     1  UNL1        0.0870
      4  O          3.4520    1.2820    2.4860 O.2     1  UNL1       -0.3000
      5  C          6.7870    0.3210    1.9090 C.3     1  UNL1        0.0430
      6  C          7.3880   -0.0380    0.6120 C.2     1  UNL1       -0.0440
      7  C          7.8750    0.9370   -0.2660 C.2     1  UNL1        0.0080
      8  C          7.4790   -1.3620    0.2460 C.2     1  UNL1        0.0540
      9  C          8.4290    0.5400   -1.4690 C.2     1  UNL1        0.0510
     10  C          8.0410   -1.7580   -0.9720 C.2     1  UNL1        0.1660
     11  C          8.5190   -0.7990   -1.8360 C.2     1  UNL1        0.1650
     12  O          8.2430   -2.9900   -1.5570 O.2     1  UNL1       -0.4540
     13  O          9.0110   -1.4690   -2.9450 O.2     1  UNL1       -0.4540
     14  C          8.9380   -2.8640   -2.7700 C.3     1  UNL1        0.4680
@<TRIPOS>BOND
     1    13    14    1
     2    13    11    1
     3    14    12    1
     4    11     9    2
     5    11    10    1
     6    12    10    1
     7     9     7    1
     8    10     8    2
     9     7     6    2
    10     8     6    1
    11     6     5    1
    12     3     2    1
    13     2     1    1
    14     2     4    2
    15     5     1    1
