@<TRIPOS>MOLECULE
/home/cewinharhar/GITHUB/reincatalyze/data/processed/docking_pred/2023-May-25-1902_sub9_nm5_bs15_s42_ex16_mel10_mts10000_k50_ec01_g099_lra3e-4_lrc3e-3/16519f8051380dc2329c6f51dcb24a8f5dfeda31_ligand_9.pdbqt
 14 15 0 0 0
SMALL
GASTEIGER

@<TRIPOS>ATOM
      1  C          5.5410    1.9000    1.2810 C.3     1  UNL1        0.0800
      2  C          5.1030    0.6780    2.0110 C.2     1  UNL1        0.1300
      3  C          6.0020   -0.4950    2.1780 C.3     1  UNL1        0.0870
      4  O          3.9860    0.6040    2.4950 O.2     1  UNL1       -0.3000
      5  C          5.4120    1.7210   -0.2190 C.3     1  UNL1        0.0430
      6  C          6.5770    1.0200   -0.7880 C.2     1  UNL1       -0.0440
      7  C          7.8850    1.4510   -0.5390 C.2     1  UNL1        0.0080
      8  C          6.3860   -0.0880   -1.5810 C.2     1  UNL1        0.0540
      9  C          8.9400    0.7530   -1.0990 C.2     1  UNL1        0.0510
     10  C          7.4550   -0.7910   -2.1440 C.2     1  UNL1        0.1660
     11  C          8.7430   -0.3670   -1.9010 C.2     1  UNL1        0.1650
     12  O          7.5250   -1.9040   -2.9550 O.2     1  UNL1       -0.4540
     13  O          9.5850   -1.2370   -2.5740 O.2     1  UNL1       -0.4540
     14  C          8.8600   -2.2800   -3.1810 C.3     1  UNL1        0.4680
@<TRIPOS>BOND
     1    14    12    1
     2    14    13    1
     3    12    10    1
     4    13    11    1
     5    10    11    2
     6    10     8    1
     7    11     9    1
     8     8     6    2
     9     9     7    2
    10     6     7    1
    11     6     5    1
    12     5     1    1
    13     1     2    1
    14     2     3    1
    15     2     4    2
