@<TRIPOS>MOLECULE
/home/cewinharhar/GITHUB/reincatalyze/data/processed/docking_pred/2023-May-25-1902_sub9_nm5_bs15_s42_ex16_mel10_mts10000_k50_ec01_g099_lra3e-4_lrc3e-3/1b5ae47dc41e9fd81b532b383f57e012b2e09fc7_ligand_9.pdbqt
 14 15 0 0 0
SMALL
GASTEIGER

@<TRIPOS>ATOM
      1  C          6.3370    1.2280    0.8760 C.3     1  UNL1        0.0800
      2  C          5.6710    0.3890    1.9120 C.2     1  UNL1        0.1300
      3  C          6.3250   -0.8210    2.4760 C.3     1  UNL1        0.0870
      4  O          4.5600    0.6750    2.3290 O.2     1  UNL1       -0.3000
      5  C          5.8300    0.8930   -0.5130 C.3     1  UNL1        0.0430
      6  C          6.7990    0.0760   -1.2660 C.2     1  UNL1       -0.0440
      7  C          7.5080    0.5970   -2.3530 C.2     1  UNL1        0.0080
      8  C          7.0200   -1.2320   -0.8970 C.2     1  UNL1        0.0540
      9  C          8.4050   -0.2180   -3.0220 C.2     1  UNL1        0.0510
     10  C          7.9280   -2.0510   -1.5750 C.2     1  UNL1        0.1660
     11  C          8.6260   -1.5390   -2.6470 C.2     1  UNL1        0.1650
     12  O          8.3180   -3.3620   -1.4060 O.2     1  UNL1       -0.4540
     13  O          9.4390   -2.5580   -3.1180 O.2     1  UNL1       -0.4540
     14  C          9.3430   -3.7030   -2.3040 C.3     1  UNL1        0.4680
@<TRIPOS>BOND
     1    13    11    1
     2    13    14    1
     3     9    11    2
     4     9     7    1
     5    11    10    1
     6     7     6    2
     7    14    12    1
     8    10    12    1
     9    10     8    2
    10     6     8    1
    11     6     5    1
    12     5     1    1
    13     1     2    1
    14     2     4    2
    15     2     3    1
