@<TRIPOS>MOLECULE
/home/cewinharhar/GITHUB/reincatalyze/data/processed/docking_pred/2023-May-25-1902_sub9_nm5_bs15_s42_ex16_mel10_mts10000_k50_ec01_g099_lra3e-4_lrc3e-3/1c0c8a91d3eae7937fa2398dc61f909c50ab5738_ligand_9.pdbqt
 14 15 0 0 0
SMALL
GASTEIGER

@<TRIPOS>ATOM
      1  C          5.7540    1.4710   -0.2930 C.3     1  UNL1        0.0800
      2  C          5.1600    1.3080    1.0630 C.2     1  UNL1        0.1300
      3  C          5.4580    0.1220    1.9090 C.3     1  UNL1        0.0870
      4  O          4.4050    2.1500    1.5210 O.2     1  UNL1       -0.3000
      5  C          7.2530    1.2440   -0.2680 C.3     1  UNL1        0.0430
      6  C          7.6190   -0.0540   -0.8630 C.2     1  UNL1       -0.0440
      7  C          7.7050   -0.2270   -2.2490 C.2     1  UNL1        0.0080
      8  C          7.8870   -1.1280   -0.0450 C.2     1  UNL1        0.0540
      9  C          8.0550   -1.4680   -2.7500 C.2     1  UNL1        0.0510
     10  C          8.2410   -2.3800   -0.5560 C.2     1  UNL1        0.1660
     11  C          8.3240   -2.5510   -1.9200 C.2     1  UNL1        0.1650
     12  O          8.5490   -3.5850    0.0380 O.2     1  UNL1       -0.4540
     13  O          8.6880   -3.8710   -2.1370 O.2     1  UNL1       -0.4540
     14  C          8.9300   -4.5380   -0.9210 C.3     1  UNL1        0.4680
@<TRIPOS>BOND
     1     9     7    1
     2     9    11    2
     3     7     6    2
     4    13    11    1
     5    13    14    1
     6    11    10    1
     7    14    12    1
     8     6     5    1
     9     6     8    1
    10    10     8    2
    11    10    12    1
    12     1     5    1
    13     1     2    1
    14     2     4    2
    15     2     3    1
