@<TRIPOS>MOLECULE
/home/cewinharhar/GITHUB/reincatalyze/data/processed/docking_pred/2023-May-25-1902_sub9_nm5_bs15_s42_ex16_mel10_mts10000_k50_ec01_g099_lra3e-4_lrc3e-3/1c86ade130d2cc9f902dffb19ba95248752a952e_ligand_9.pdbqt
 14 15 0 0 0
SMALL
GASTEIGER

@<TRIPOS>ATOM
      1  C          5.5510    1.9160    1.2770 C.3     1  UNL1        0.0800
      2  C          5.1010    0.7030    2.0150 C.2     1  UNL1        0.1300
      3  C          5.9900   -0.4770    2.1920 C.3     1  UNL1        0.0870
      4  O          3.9820    0.6410    2.4970 O.2     1  UNL1       -0.3000
      5  C          5.4180    1.7300   -0.2220 C.3     1  UNL1        0.0430
      6  C          6.5820    1.0270   -0.7900 C.2     1  UNL1       -0.0440
      7  C          7.8900    1.4630   -0.5510 C.2     1  UNL1        0.0080
      8  C          6.3890   -0.0870   -1.5750 C.2     1  UNL1        0.0540
      9  C          8.9440    0.7620   -1.1100 C.2     1  UNL1        0.0510
     10  C          7.4580   -0.7920   -2.1380 C.2     1  UNL1        0.1660
     11  C          8.7450   -0.3630   -1.9040 C.2     1  UNL1        0.1650
     12  O          7.5270   -1.9110   -2.9410 O.2     1  UNL1       -0.4540
     13  O          9.5870   -1.2370   -2.5740 O.2     1  UNL1       -0.4540
     14  C          8.8610   -2.2860   -3.1700 C.3     1  UNL1        0.4680
@<TRIPOS>BOND
     1    14    12    1
     2    14    13    1
     3    12    10    1
     4    13    11    1
     5    10    11    2
     6    10     8    1
     7    11     9    1
     8     8     6    2
     9     9     7    2
    10     6     7    1
    11     6     5    1
    12     5     1    1
    13     1     2    1
    14     2     3    1
    15     2     4    2
