@<TRIPOS>MOLECULE
/home/cewinharhar/GITHUB/reincatalyze/data/processed/docking_pred/2023-May-25-1902_sub9_nm5_bs15_s42_ex16_mel10_mts10000_k50_ec01_g099_lra3e-4_lrc3e-3/1c86ade130d2cc9f902dffb19ba95248752a952e_ligand_9.pdbqt
 14 15 0 0 0
SMALL
GASTEIGER

@<TRIPOS>ATOM
      1  C          5.5450    1.4750   -0.2270 C.3     1  UNL1        0.0800
      2  C          5.0160    1.2550    1.1490 C.2     1  UNL1        0.1300
      3  C          5.4580    0.1040    1.9800 C.3     1  UNL1        0.0870
      4  O          4.1990    2.0200    1.6360 O.2     1  UNL1       -0.3000
      5  C          7.0570    1.3850   -0.2560 C.3     1  UNL1        0.0430
      6  C          7.5200    0.1770   -0.9610 C.2     1  UNL1       -0.0440
      7  C          7.7420    0.1750   -2.3430 C.2     1  UNL1        0.0080
      8  C          7.7440   -0.9820   -0.2540 C.2     1  UNL1        0.0540
      9  C          8.1770   -0.9890   -2.9510 C.2     1  UNL1        0.0510
     10  C          8.1840   -2.1560   -0.8730 C.2     1  UNL1        0.1660
     11  C          8.4020   -2.1590   -2.2330 C.2     1  UNL1        0.1650
     12  O          8.4750   -3.4170   -0.3980 O.2     1  UNL1       -0.4540
     13  O          8.8270   -3.4360   -2.5670 O.2     1  UNL1       -0.4540
     14  C          8.9740   -4.2390   -1.4210 C.3     1  UNL1        0.4680
@<TRIPOS>BOND
     1     9     7    1
     2     9    11    2
     3    13    11    1
     4    13    14    1
     5     7     6    2
     6    11    10    1
     7    14    12    1
     8     6     5    1
     9     6     8    1
    10    10    12    1
    11    10     8    2
    12     5     1    1
    13     1     2    1
    14     2     4    2
    15     2     3    1
