MODEL 1
REMARK VINA RESULT:      -7.7      0.000      0.000
REMARK SMILES CC(=O)CCc1ccc2c(c1)OCO2
REMARK SMILES IDX 4 1 2 2 1 3 3 4 5 5 6 6 7 7 11 8 8 9 10 10 9 11 12 12 14 13
REMARK SMILES IDX 13 14
REMARK H PARENT
REMARK Flexibility Score: inf
ROOT
ATOM      1  C   UNL     1       5.551   1.916   1.277  1.00  0.00     0.080 C 
ENDROOT
BRANCH   1   2
ATOM      2  C   UNL     1       5.101   0.703   2.015  1.00  0.00     0.130 C 
ATOM      3  C   UNL     1       5.990  -0.477   2.192  1.00  0.00     0.087 C 
ATOM      4  O   UNL     1       3.982   0.641   2.497  1.00  0.00    -0.300 OA
ENDBRANCH   1   2
BRANCH   1   5
ATOM      5  C   UNL     1       5.418   1.730  -0.222  1.00  0.00     0.043 C 
BRANCH   5   6
ATOM      6  C   UNL     1       6.582   1.027  -0.790  1.00  0.00    -0.044 A 
ATOM      7  C   UNL     1       7.890   1.463  -0.551  1.00  0.00     0.008 A 
ATOM      8  C   UNL     1       6.389  -0.087  -1.575  1.00  0.00     0.054 A 
ATOM      9  C   UNL     1       8.944   0.762  -1.110  1.00  0.00     0.051 A 
ATOM     10  C   UNL     1       7.458  -0.792  -2.138  1.00  0.00     0.166 A 
ATOM     11  C   UNL     1       8.745  -0.363  -1.904  1.00  0.00     0.165 A 
ATOM     12  O   UNL     1       7.527  -1.911  -2.941  1.00  0.00    -0.454 OA
ATOM     13  O   UNL     1       9.587  -1.237  -2.574  1.00  0.00    -0.454 OA
ATOM     14  C   UNL     1       8.861  -2.286  -3.170  1.00  0.00     0.468 C 
ENDBRANCH   5   6
ENDBRANCH   1   5
TORSDOF 3
ENDMDL
MODEL 2
REMARK VINA RESULT:      -7.1      1.256      1.478
REMARK SMILES CC(=O)CCc1ccc2c(c1)OCO2
REMARK SMILES IDX 4 1 2 2 1 3 3 4 5 5 6 6 7 7 11 8 8 9 10 10 9 11 12 12 14 13
REMARK SMILES IDX 13 14
REMARK H PARENT
REMARK Flexibility Score: inf
ROOT
ATOM      1  C   UNL     1       6.400   1.180   0.919  1.00  0.00     0.080 C 
ENDROOT
BRANCH   1   2
ATOM      2  C   UNL     1       5.677   0.363   1.933  1.00  0.00     0.130 C 
ATOM      3  C   UNL     1       6.279  -0.864   2.519  1.00  0.00     0.087 C 
ATOM      4  O   UNL     1       4.562   0.680   2.314  1.00  0.00    -0.300 OA
ENDBRANCH   1   2
BRANCH   1   5
ATOM      5  C   UNL     1       5.892   0.896  -0.481  1.00  0.00     0.043 C 
BRANCH   5   6
ATOM      6  C   UNL     1       6.841   0.071  -1.250  1.00  0.00    -0.044 A 
ATOM      7  C   UNL     1       7.537   0.586  -2.350  1.00  0.00     0.008 A 
ATOM      8  C   UNL     1       7.058  -1.238  -0.884  1.00  0.00     0.054 A 
ATOM      9  C   UNL     1       8.415  -0.236  -3.032  1.00  0.00     0.051 A 
ATOM     10  C   UNL     1       7.948  -2.064  -1.577  1.00  0.00     0.166 A 
ATOM     11  C   UNL     1       8.632  -1.559  -2.661  1.00  0.00     0.165 A 
ATOM     12  O   UNL     1       8.330  -3.379  -1.415  1.00  0.00    -0.454 OA
ATOM     13  O   UNL     1       9.429  -2.584  -3.145  1.00  0.00    -0.454 OA
ATOM     14  C   UNL     1       9.338  -3.728  -2.330  1.00  0.00     0.468 C 
ENDBRANCH   5   6
ENDBRANCH   1   5
TORSDOF 3
ENDMDL
MODEL 3
REMARK VINA RESULT:      -7.1      1.647      2.018
REMARK SMILES CC(=O)CCc1ccc2c(c1)OCO2
REMARK SMILES IDX 4 1 2 2 1 3 3 4 5 5 6 6 7 7 11 8 8 9 10 10 9 11 12 12 14 13
REMARK SMILES IDX 13 14
REMARK H PARENT
REMARK Flexibility Score: inf
ROOT
ATOM      1  C   UNL     1       5.545   1.475  -0.227  1.00  0.00     0.080 C 
ENDROOT
BRANCH   1   2
ATOM      2  C   UNL     1       5.016   1.255   1.149  1.00  0.00     0.130 C 
ATOM      3  C   UNL     1       5.458   0.104   1.980  1.00  0.00     0.087 C 
ATOM      4  O   UNL     1       4.199   2.020   1.636  1.00  0.00    -0.300 OA
ENDBRANCH   1   2
BRANCH   1   5
ATOM      5  C   UNL     1       7.057   1.385  -0.256  1.00  0.00     0.043 C 
BRANCH   5   6
ATOM      6  C   UNL     1       7.520   0.177  -0.961  1.00  0.00    -0.044 A 
ATOM      7  C   UNL     1       7.742   0.175  -2.343  1.00  0.00     0.008 A 
ATOM      8  C   UNL     1       7.744  -0.982  -0.254  1.00  0.00     0.054 A 
ATOM      9  C   UNL     1       8.177  -0.989  -2.951  1.00  0.00     0.051 A 
ATOM     10  C   UNL     1       8.184  -2.156  -0.873  1.00  0.00     0.166 A 
ATOM     11  C   UNL     1       8.402  -2.159  -2.233  1.00  0.00     0.165 A 
ATOM     12  O   UNL     1       8.475  -3.417  -0.398  1.00  0.00    -0.454 OA
ATOM     13  O   UNL     1       8.827  -3.436  -2.567  1.00  0.00    -0.454 OA
ATOM     14  C   UNL     1       8.974  -4.239  -1.421  1.00  0.00     0.468 C 
ENDBRANCH   5   6
ENDBRANCH   1   5
TORSDOF 3
ENDMDL
MODEL 4
REMARK VINA RESULT:      -6.8      1.288      1.772
REMARK SMILES CC(=O)CCc1ccc2c(c1)OCO2
REMARK SMILES IDX 4 1 2 2 1 3 3 4 5 5 6 6 7 7 11 8 8 9 10 10 9 11 12 12 14 13
REMARK SMILES IDX 13 14
REMARK H PARENT
REMARK Flexibility Score: inf
ROOT
ATOM      1  C   UNL     1       5.316  -0.076   1.971  1.00  0.00     0.080 C 
ENDROOT
BRANCH   1   2
ATOM      2  C   UNL     1       4.452   1.124   1.796  1.00  0.00     0.130 C 
ATOM      3  C   UNL     1       4.741   2.150   0.759  1.00  0.00     0.087 C 
ATOM      4  O   UNL     1       3.475   1.302   2.506  1.00  0.00    -0.300 OA
ENDBRANCH   1   2
BRANCH   1   5
ATOM      5  C   UNL     1       6.786   0.288   1.900  1.00  0.00     0.043 C 
BRANCH   5   6
ATOM      6  C   UNL     1       7.378  -0.080   0.602  1.00  0.00    -0.044 A 
ATOM      7  C   UNL     1       7.832   0.891  -0.298  1.00  0.00     0.008 A 
ATOM      8  C   UNL     1       7.494  -1.407   0.257  1.00  0.00     0.054 A 
ATOM      9  C   UNL     1       8.380   0.487  -1.502  1.00  0.00     0.051 A 
ATOM     10  C   UNL     1       8.049  -1.811  -0.961  1.00  0.00     0.166 A 
ATOM     11  C   UNL     1       8.495  -0.856  -1.848  1.00  0.00     0.165 A 
ATOM     12  O   UNL     1       8.272  -3.048  -1.529  1.00  0.00    -0.454 OA
ATOM     13  O   UNL     1       8.988  -1.533  -2.952  1.00  0.00    -0.454 OA
ATOM     14  C   UNL     1       8.949  -2.926  -2.753  1.00  0.00     0.468 C 
ENDBRANCH   5   6
ENDBRANCH   1   5
TORSDOF 3
ENDMDL
MODEL 5
REMARK VINA RESULT:      -6.8      1.264      5.278
REMARK SMILES CC(=O)CCc1ccc2c(c1)OCO2
REMARK SMILES IDX 4 1 2 2 1 3 3 4 5 5 6 6 7 7 11 8 8 9 10 10 9 11 12 12 14 13
REMARK SMILES IDX 13 14
REMARK H PARENT
REMARK Flexibility Score: inf
ROOT
ATOM      1  C   UNL     1       8.541   0.222  -2.614  1.00  0.00     0.080 C 
ENDROOT
BRANCH   1   2
ATOM      2  C   UNL     1       8.486  -1.257  -2.781  1.00  0.00     0.130 C 
ATOM      3  C   UNL     1       7.193  -1.982  -2.901  1.00  0.00     0.087 C 
ATOM      4  O   UNL     1       9.510  -1.921  -2.825  1.00  0.00    -0.300 OA
ENDBRANCH   1   2
BRANCH   1   5
ATOM      5  C   UNL     1       9.010   0.602  -1.223  1.00  0.00     0.043 C 
BRANCH   5   6
ATOM      6  C   UNL     1       7.942   0.435  -0.222  1.00  0.00    -0.044 A 
ATOM      7  C   UNL     1       8.002  -0.567   0.754  1.00  0.00     0.008 A 
ATOM      8  C   UNL     1       6.856   1.281  -0.235  1.00  0.00     0.054 A 
ATOM      9  C   UNL     1       6.970  -0.675   1.668  1.00  0.00     0.051 A 
ATOM     10  C   UNL     1       5.816   1.168   0.692  1.00  0.00     0.166 A 
ATOM     11  C   UNL     1       5.873   0.182   1.652  1.00  0.00     0.165 A 
ATOM     12  O   UNL     1       4.648   1.874   0.884  1.00  0.00    -0.454 OA
ATOM     13  O   UNL     1       4.728   0.305   2.422  1.00  0.00    -0.454 OA
ATOM     14  C   UNL     1       3.967   1.421   2.027  1.00  0.00     0.468 C 
ENDBRANCH   5   6
ENDBRANCH   1   5
TORSDOF 3
ENDMDL
