@<TRIPOS>MOLECULE
/home/cewinharhar/GITHUB/reincatalyze/data/processed/docking_pred/2023-May-25-1902_sub9_nm5_bs15_s42_ex16_mel10_mts10000_k50_ec01_g099_lra3e-4_lrc3e-3/1caf15995fa8372ea76f1cb48e36fe3c815c3a18_ligand_9.pdbqt
 14 15 0 0 0
SMALL
GASTEIGER

@<TRIPOS>ATOM
      1  C          5.5530    1.9220    1.2710 C.3     1  UNL1        0.0800
      2  C          5.1140    0.7050    2.0100 C.2     1  UNL1        0.1300
      3  C          6.0160   -0.4630    2.1950 C.3     1  UNL1        0.0870
      4  O          3.9930    0.6310    2.4870 O.2     1  UNL1       -0.3000
      5  C          5.4190    1.7340   -0.2270 C.3     1  UNL1        0.0430
      6  C          6.5820    1.0290   -0.7950 C.2     1  UNL1       -0.0440
      7  C          7.8910    1.4600   -0.5520 C.2     1  UNL1        0.0080
      8  C          6.3870   -0.0820   -1.5840 C.2     1  UNL1        0.0540
      9  C          8.9430    0.7580   -1.1110 C.2     1  UNL1        0.0510
     10  C          7.4550   -0.7890   -2.1470 C.2     1  UNL1        0.1660
     11  C          8.7430   -0.3650   -1.9080 C.2     1  UNL1        0.1650
     12  O          7.5210   -1.9050   -2.9530 O.2     1  UNL1       -0.4540
     13  O          9.5830   -1.2400   -2.5800 O.2     1  UNL1       -0.4540
     14  C          8.8550   -2.2840   -3.1810 C.3     1  UNL1        0.4680
@<TRIPOS>BOND
     1    14    12    1
     2    14    13    1
     3    12    10    1
     4    13    11    1
     5    10    11    2
     6    10     8    1
     7    11     9    1
     8     8     6    2
     9     9     7    2
    10     6     7    1
    11     6     5    1
    12     5     1    1
    13     1     2    1
    14     2     3    1
    15     2     4    2
