@<TRIPOS>MOLECULE
/home/cewinharhar/GITHUB/reincatalyze/data/processed/docking_pred/2023-May-25-1902_sub9_nm5_bs15_s42_ex16_mel10_mts10000_k50_ec01_g099_lra3e-4_lrc3e-3/1e16add1d5649bf0b13dd0d86c7d3fc630d89625_ligand_9.pdbqt
 14 15 0 0 0
SMALL
GASTEIGER

@<TRIPOS>ATOM
      1  C          5.9660   -0.2490    1.5530 C.3     1  UNL1        0.0800
      2  C          4.9850    0.8690    1.6320 C.2     1  UNL1        0.1300
      3  C          5.0350    2.0190    0.6900 C.3     1  UNL1        0.0870
      4  O          4.1080    0.8740    2.4800 O.2     1  UNL1       -0.3000
      5  C          7.3250    0.2410    1.0940 C.3     1  UNL1        0.0430
      6  C          7.6610   -0.2590   -0.2510 C.2     1  UNL1       -0.0440
      7  C          7.7800    0.6050   -1.3450 C.2     1  UNL1        0.0080
      8  C          7.8670   -1.6060   -0.4460 C.2     1  UNL1        0.0540
      9  C          8.0980    0.0790   -2.5840 C.2     1  UNL1        0.0510
     10  C          8.1900   -2.1330   -1.7000 C.2     1  UNL1        0.1660
     11  C          8.3060   -1.2830   -2.7780 C.2     1  UNL1        0.1650
     12  O          8.4380   -3.4140   -2.1450 O.2     1  UNL1       -0.4540
     13  O          8.6280   -2.0690   -3.8740 O.2     1  UNL1       -0.4540
     14  C          8.8110   -3.4130   -3.5000 C.3     1  UNL1        0.4680
@<TRIPOS>BOND
     1    13    14    1
     2    13    11    1
     3    14    12    1
     4    11     9    2
     5    11    10    1
     6     9     7    1
     7    12    10    1
     8    10     8    2
     9     7     6    2
    10     8     6    1
    11     6     5    1
    12     3     2    1
    13     5     1    1
    14     1     2    1
    15     2     4    2
