@<TRIPOS>MOLECULE
/home/cewinharhar/GITHUB/reincatalyze/data/processed/docking_pred/2023-May-25-1902_sub9_nm5_bs15_s42_ex16_mel10_mts10000_k50_ec01_g099_lra3e-4_lrc3e-3/1e20ac6c45a20644dde897fa0fc5711864bcd284_ligand_9.pdbqt
 14 15 0 0 0
SMALL
GASTEIGER

@<TRIPOS>ATOM
      1  C          6.4080    1.1950    0.9390 C.3     1  UNL1        0.0800
      2  C          5.6690    0.3610    1.9270 C.2     1  UNL1        0.1300
      3  C          6.2630   -0.8750    2.5040 C.3     1  UNL1        0.0870
      4  O          4.5470    0.6690    2.2940 O.2     1  UNL1       -0.3000
      5  C          5.9060    0.9530   -0.4700 C.3     1  UNL1        0.0430
      6  C          6.8370    0.1120   -1.2440 C.2     1  UNL1       -0.0440
      7  C          7.5140    0.6080   -2.3640 C.2     1  UNL1        0.0080
      8  C          7.0550   -1.1930   -0.8640 C.2     1  UNL1        0.0540
      9  C          8.3760   -0.2270   -3.0510 C.2     1  UNL1        0.0510
     10  C          7.9280   -2.0330   -1.5620 C.2     1  UNL1        0.1660
     11  C          8.5930   -1.5460   -2.6650 C.2     1  UNL1        0.1650
     12  O          8.3070   -3.3470   -1.3880 O.2     1  UNL1       -0.4540
     13  O          9.3770   -2.5820   -3.1490 O.2     1  UNL1       -0.4540
     14  C          9.2960   -3.7130   -2.3160 C.3     1  UNL1        0.4680
@<TRIPOS>BOND
     1    13    11    1
     2    13    14    1
     3     9    11    2
     4     9     7    1
     5    11    10    1
     6     7     6    2
     7    14    12    1
     8    10    12    1
     9    10     8    2
    10     6     8    1
    11     6     5    1
    12     5     1    1
    13     1     2    1
    14     2     4    2
    15     2     3    1
