MODEL 1
REMARK VINA RESULT:      -7.7      0.000      0.000
REMARK SMILES CC(=O)CCc1ccc2c(c1)OCO2
REMARK SMILES IDX 4 1 2 2 1 3 3 4 5 5 6 6 7 7 11 8 8 9 10 10 9 11 12 12 14 13
REMARK SMILES IDX 13 14
REMARK H PARENT
REMARK Flexibility Score: inf
ROOT
ATOM      1  C   UNL     1       5.532   1.911   1.273  1.00  0.00     0.080 C 
ENDROOT
BRANCH   1   2
ATOM      2  C   UNL     1       5.080   0.695   2.005  1.00  0.00     0.130 C 
ATOM      3  C   UNL     1       5.963  -0.491   2.167  1.00  0.00     0.087 C 
ATOM      4  O   UNL     1       3.964   0.637   2.495  1.00  0.00    -0.300 OA
ENDBRANCH   1   2
BRANCH   1   5
ATOM      5  C   UNL     1       5.405   1.729  -0.227  1.00  0.00     0.043 C 
BRANCH   5   6
ATOM      6  C   UNL     1       6.572   1.029  -0.793  1.00  0.00    -0.044 A 
ATOM      7  C   UNL     1       7.879   1.467  -0.550  1.00  0.00     0.008 A 
ATOM      8  C   UNL     1       6.384  -0.084  -1.580  1.00  0.00     0.054 A 
ATOM      9  C   UNL     1       8.935   0.770  -1.107  1.00  0.00     0.051 A 
ATOM     10  C   UNL     1       7.455  -0.786  -2.141  1.00  0.00     0.166 A 
ATOM     11  C   UNL     1       8.741  -0.355  -1.903  1.00  0.00     0.165 A 
ATOM     12  O   UNL     1       7.528  -1.903  -2.946  1.00  0.00    -0.454 OA
ATOM     13  O   UNL     1       9.586  -1.226  -2.572  1.00  0.00    -0.454 OA
ATOM     14  C   UNL     1       8.864  -2.275  -3.171  1.00  0.00     0.468 C 
ENDBRANCH   5   6
ENDBRANCH   1   5
TORSDOF 3
ENDMDL
MODEL 2
REMARK VINA RESULT:      -7.1      1.260      1.476
REMARK SMILES CC(=O)CCc1ccc2c(c1)OCO2
REMARK SMILES IDX 4 1 2 2 1 3 3 4 5 5 6 6 7 7 11 8 8 9 10 10 9 11 12 12 14 13
REMARK SMILES IDX 13 14
REMARK H PARENT
REMARK Flexibility Score: inf
ROOT
ATOM      1  C   UNL     1       6.408   1.195   0.939  1.00  0.00     0.080 C 
ENDROOT
BRANCH   1   2
ATOM      2  C   UNL     1       5.669   0.361   1.927  1.00  0.00     0.130 C 
ATOM      3  C   UNL     1       6.263  -0.875   2.504  1.00  0.00     0.087 C 
ATOM      4  O   UNL     1       4.547   0.669   2.294  1.00  0.00    -0.300 OA
ENDBRANCH   1   2
BRANCH   1   5
ATOM      5  C   UNL     1       5.906   0.953  -0.470  1.00  0.00     0.043 C 
BRANCH   5   6
ATOM      6  C   UNL     1       6.837   0.112  -1.244  1.00  0.00    -0.044 A 
ATOM      7  C   UNL     1       7.514   0.608  -2.364  1.00  0.00     0.008 A 
ATOM      8  C   UNL     1       7.055  -1.193  -0.864  1.00  0.00     0.054 A 
ATOM      9  C   UNL     1       8.376  -0.227  -3.051  1.00  0.00     0.051 A 
ATOM     10  C   UNL     1       7.928  -2.033  -1.562  1.00  0.00     0.166 A 
ATOM     11  C   UNL     1       8.593  -1.546  -2.665  1.00  0.00     0.165 A 
ATOM     12  O   UNL     1       8.307  -3.347  -1.388  1.00  0.00    -0.454 OA
ATOM     13  O   UNL     1       9.377  -2.582  -3.149  1.00  0.00    -0.454 OA
ATOM     14  C   UNL     1       9.296  -3.713  -2.316  1.00  0.00     0.468 C 
ENDBRANCH   5   6
ENDBRANCH   1   5
TORSDOF 3
ENDMDL
MODEL 3
REMARK VINA RESULT:      -7.0      1.580      1.895
REMARK SMILES CC(=O)CCc1ccc2c(c1)OCO2
REMARK SMILES IDX 4 1 2 2 1 3 3 4 5 5 6 6 7 7 11 8 8 9 10 10 9 11 12 12 14 13
REMARK SMILES IDX 13 14
REMARK H PARENT
REMARK Flexibility Score: inf
ROOT
ATOM      1  C   UNL     1       5.471   1.550  -0.017  1.00  0.00     0.080 C 
ENDROOT
BRANCH   1   2
ATOM      2  C   UNL     1       4.911   1.215   1.322  1.00  0.00     0.130 C 
ATOM      3  C   UNL     1       5.421   0.065   2.116  1.00  0.00     0.087 C 
ATOM      4  O   UNL     1       4.011   1.879   1.810  1.00  0.00    -0.300 OA
ENDBRANCH   1   2
BRANCH   1   5
ATOM      5  C   UNL     1       6.982   1.433  -0.027  1.00  0.00     0.043 C 
BRANCH   5   6
ATOM      6  C   UNL     1       7.435   0.271  -0.811  1.00  0.00    -0.044 A 
ATOM      7  C   UNL     1       7.606   0.344  -2.198  1.00  0.00     0.008 A 
ATOM      8  C   UNL     1       7.700  -0.920  -0.175  1.00  0.00     0.054 A 
ATOM      9  C   UNL     1       8.034  -0.779  -2.882  1.00  0.00     0.051 A 
ATOM     10  C   UNL     1       8.133  -2.053  -0.871  1.00  0.00     0.166 A 
ATOM     11  C   UNL     1       8.301  -1.982  -2.236  1.00  0.00     0.165 A 
ATOM     12  O   UNL     1       8.457  -3.333  -0.473  1.00  0.00    -0.454 OA
ATOM     13  O   UNL     1       8.731  -3.232  -2.652  1.00  0.00    -0.454 OA
ATOM     14  C   UNL     1       8.930  -4.092  -1.556  1.00  0.00     0.468 C 
ENDBRANCH   5   6
ENDBRANCH   1   5
TORSDOF 3
ENDMDL
MODEL 4
REMARK VINA RESULT:      -6.8      1.259      1.747
REMARK SMILES CC(=O)CCc1ccc2c(c1)OCO2
REMARK SMILES IDX 4 1 2 2 1 3 3 4 5 5 6 6 7 7 11 8 8 9 10 10 9 11 12 12 14 13
REMARK SMILES IDX 13 14
REMARK H PARENT
REMARK Flexibility Score: inf
ROOT
ATOM      1  C   UNL     1       5.343  -0.074   1.978  1.00  0.00     0.080 C 
ENDROOT
BRANCH   1   2
ATOM      2  C   UNL     1       4.451   1.102   1.783  1.00  0.00     0.130 C 
ATOM      3  C   UNL     1       4.734   2.134   0.750  1.00  0.00     0.087 C 
ATOM      4  O   UNL     1       3.454   1.254   2.471  1.00  0.00    -0.300 OA
ENDBRANCH   1   2
BRANCH   1   5
ATOM      5  C   UNL     1       6.804   0.325   1.903  1.00  0.00     0.043 C 
BRANCH   5   6
ATOM      6  C   UNL     1       7.402  -0.033   0.605  1.00  0.00    -0.044 A 
ATOM      7  C   UNL     1       7.892   0.944  -0.270  1.00  0.00     0.008 A 
ATOM      8  C   UNL     1       7.488  -1.355   0.234  1.00  0.00     0.054 A 
ATOM      9  C   UNL     1       8.444   0.548  -1.476  1.00  0.00     0.051 A 
ATOM     10  C   UNL     1       8.047  -1.750  -0.985  1.00  0.00     0.166 A 
ATOM     11  C   UNL     1       8.529  -0.790  -1.847  1.00  0.00     0.165 A 
ATOM     12  O   UNL     1       8.244  -2.981  -1.574  1.00  0.00    -0.454 OA
ATOM     13  O   UNL     1       9.017  -1.458  -2.959  1.00  0.00    -0.454 OA
ATOM     14  C   UNL     1       8.939  -2.854  -2.788  1.00  0.00     0.468 C 
ENDBRANCH   5   6
ENDBRANCH   1   5
TORSDOF 3
ENDMDL
MODEL 5
REMARK VINA RESULT:      -6.8      1.183      5.180
REMARK SMILES CC(=O)CCc1ccc2c(c1)OCO2
REMARK SMILES IDX 4 1 2 2 1 3 3 4 5 5 6 6 7 7 11 8 8 9 10 10 9 11 12 12 14 13
REMARK SMILES IDX 13 14
REMARK H PARENT
REMARK Flexibility Score: inf
ROOT
ATOM      1  C   UNL     1       8.383   0.200  -2.601  1.00  0.00     0.080 C 
ENDROOT
BRANCH   1   2
ATOM      2  C   UNL     1       8.067  -1.250  -2.732  1.00  0.00     0.130 C 
ATOM      3  C   UNL     1       9.121  -2.256  -3.030  1.00  0.00     0.087 C 
ATOM      4  O   UNL     1       6.924  -1.656  -2.597  1.00  0.00    -0.300 OA
ENDBRANCH   1   2
BRANCH   1   5
ATOM      5  C   UNL     1       8.898   0.528  -1.214  1.00  0.00     0.043 C 
BRANCH   5   6
ATOM      6  C   UNL     1       7.842   0.398  -0.194  1.00  0.00    -0.044 A 
ATOM      7  C   UNL     1       7.915  -0.566   0.818  1.00  0.00     0.008 A 
ATOM      8  C   UNL     1       6.754   1.241  -0.227  1.00  0.00     0.054 A 
ATOM      9  C   UNL     1       6.894  -0.640   1.748  1.00  0.00     0.051 A 
ATOM     10  C   UNL     1       5.725   1.162   0.716  1.00  0.00     0.166 A 
ATOM     11  C   UNL     1       5.795   0.213   1.712  1.00  0.00     0.165 A 
ATOM     12  O   UNL     1       4.558   1.873   0.894  1.00  0.00    -0.454 OA
ATOM     13  O   UNL     1       4.658   0.364   2.490  1.00  0.00    -0.454 OA
ATOM     14  C   UNL     1       3.891   1.464   2.061  1.00  0.00     0.468 C 
ENDBRANCH   5   6
ENDBRANCH   1   5
TORSDOF 3
ENDMDL
