@<TRIPOS>MOLECULE
/home/cewinharhar/GITHUB/reincatalyze/data/processed/docking_pred/2023-May-25-1902_sub9_nm5_bs15_s42_ex16_mel10_mts10000_k50_ec01_g099_lra3e-4_lrc3e-3/1e20ac6c45a20644dde897fa0fc5711864bcd284_ligand_9.pdbqt
 14 15 0 0 0
SMALL
GASTEIGER

@<TRIPOS>ATOM
      1  C          5.3430   -0.0740    1.9780 C.3     1  UNL1        0.0800
      2  C          4.4510    1.1020    1.7830 C.2     1  UNL1        0.1300
      3  C          4.7340    2.1340    0.7500 C.3     1  UNL1        0.0870
      4  O          3.4540    1.2540    2.4710 O.2     1  UNL1       -0.3000
      5  C          6.8040    0.3250    1.9030 C.3     1  UNL1        0.0430
      6  C          7.4020   -0.0330    0.6050 C.2     1  UNL1       -0.0440
      7  C          7.8920    0.9440   -0.2700 C.2     1  UNL1        0.0080
      8  C          7.4880   -1.3550    0.2340 C.2     1  UNL1        0.0540
      9  C          8.4440    0.5480   -1.4760 C.2     1  UNL1        0.0510
     10  C          8.0470   -1.7500   -0.9850 C.2     1  UNL1        0.1660
     11  C          8.5290   -0.7900   -1.8470 C.2     1  UNL1        0.1650
     12  O          8.2440   -2.9810   -1.5740 O.2     1  UNL1       -0.4540
     13  O          9.0170   -1.4580   -2.9590 O.2     1  UNL1       -0.4540
     14  C          8.9390   -2.8540   -2.7880 C.3     1  UNL1        0.4680
@<TRIPOS>BOND
     1    13    14    1
     2    13    11    1
     3    14    12    1
     4    11     9    2
     5    11    10    1
     6    12    10    1
     7     9     7    1
     8    10     8    2
     9     7     6    2
    10     8     6    1
    11     6     5    1
    12     3     2    1
    13     2     1    1
    14     2     4    2
    15     5     1    1
