@<TRIPOS>MOLECULE
/home/cewinharhar/GITHUB/reincatalyze/data/processed/docking_pred/2023-May-25-1902_sub9_nm5_bs15_s42_ex16_mel10_mts10000_k50_ec01_g099_lra3e-4_lrc3e-3/1e20ac6c45a20644dde897fa0fc5711864bcd284_ligand_9.pdbqt
 14 15 0 0 0
SMALL
GASTEIGER

@<TRIPOS>ATOM
      1  C          5.4710    1.5500   -0.0170 C.3     1  UNL1        0.0800
      2  C          4.9110    1.2150    1.3220 C.2     1  UNL1        0.1300
      3  C          5.4210    0.0650    2.1160 C.3     1  UNL1        0.0870
      4  O          4.0110    1.8790    1.8100 O.2     1  UNL1       -0.3000
      5  C          6.9820    1.4330   -0.0270 C.3     1  UNL1        0.0430
      6  C          7.4350    0.2710   -0.8110 C.2     1  UNL1       -0.0440
      7  C          7.6060    0.3440   -2.1980 C.2     1  UNL1        0.0080
      8  C          7.7000   -0.9200   -0.1750 C.2     1  UNL1        0.0540
      9  C          8.0340   -0.7790   -2.8820 C.2     1  UNL1        0.0510
     10  C          8.1330   -2.0530   -0.8710 C.2     1  UNL1        0.1660
     11  C          8.3010   -1.9820   -2.2360 C.2     1  UNL1        0.1650
     12  O          8.4570   -3.3330   -0.4730 O.2     1  UNL1       -0.4540
     13  O          8.7310   -3.2320   -2.6520 O.2     1  UNL1       -0.4540
     14  C          8.9300   -4.0920   -1.5560 C.3     1  UNL1        0.4680
@<TRIPOS>BOND
     1     9    11    2
     2     9     7    1
     3    13    11    1
     4    13    14    1
     5    11    10    1
     6     7     6    2
     7    14    12    1
     8    10    12    1
     9    10     8    2
    10     6     8    1
    11     6     5    1
    12     5     1    1
    13     1     2    1
    14     2     4    2
    15     2     3    1
