@<TRIPOS>MOLECULE
/home/cewinharhar/GITHUB/reincatalyze/data/processed/docking_pred/2023-May-25-1902_sub9_nm5_bs15_s42_ex16_mel10_mts10000_k50_ec01_g099_lra3e-4_lrc3e-3/1e8ffecbec14ce573bf52adb8829230239be76a8_ligand_9.pdbqt
 14 15 0 0 0
SMALL
GASTEIGER

@<TRIPOS>ATOM
      1  C          5.7470    1.3930   -0.2490 C.3     1  UNL1        0.0800
      2  C          5.0870    1.2650    1.0800 C.2     1  UNL1        0.1300
      3  C          5.3540    0.1090    1.9760 C.3     1  UNL1        0.0870
      4  O          4.3020    2.1130    1.4740 O.2     1  UNL1       -0.3000
      5  C          7.2360    1.1250   -0.1530 C.3     1  UNL1        0.0430
      6  C          7.6020   -0.1560   -0.7820 C.2     1  UNL1       -0.0440
      7  C          7.6630   -0.2990   -2.1730 C.2     1  UNL1        0.0080
      8  C          7.8970   -1.2450    0.0070 C.2     1  UNL1        0.0540
      9  C          8.0140   -1.5250   -2.7080 C.2     1  UNL1        0.0510
     10  C          8.2520   -2.4820   -0.5380 C.2     1  UNL1        0.1660
     11  C          8.3100   -2.6240   -1.9070 C.2     1  UNL1        0.1650
     12  O          8.5840   -3.6960    0.0240 O.2     1  UNL1       -0.4540
     13  O          8.6820   -3.9350   -2.1590 O.2     1  UNL1       -0.4540
     14  C          8.9540   -4.6250   -0.9620 C.3     1  UNL1        0.4680
@<TRIPOS>BOND
     1     9     7    1
     2     9    11    2
     3     7     6    2
     4    13    11    1
     5    13    14    1
     6    11    10    1
     7    14    12    1
     8     6     5    1
     9     6     8    1
    10    10     8    2
    11    10    12    1
    12     1     5    1
    13     1     2    1
    14     2     4    2
    15     2     3    1
