MODEL 1
REMARK VINA RESULT:      -7.7      0.000      0.000
REMARK SMILES CC(=O)CCc1ccc2c(c1)OCO2
REMARK SMILES IDX 4 1 2 2 1 3 3 4 5 5 6 6 7 7 11 8 8 9 10 10 9 11 12 12 14 13
REMARK SMILES IDX 13 14
REMARK H PARENT
REMARK Flexibility Score: inf
ROOT
ATOM      1  C   UNL     1       5.518   1.926   1.260  1.00  0.00     0.080 C 
ENDROOT
BRANCH   1   2
ATOM      2  C   UNL     1       5.091   0.708   2.004  1.00  0.00     0.130 C 
ATOM      3  C   UNL     1       5.997  -0.459   2.177  1.00  0.00     0.087 C 
ATOM      4  O   UNL     1       3.976   0.633   2.496  1.00  0.00    -0.300 OA
ENDBRANCH   1   2
BRANCH   1   5
ATOM      5  C   UNL     1       5.393   1.728  -0.237  1.00  0.00     0.043 C 
BRANCH   5   6
ATOM      6  C   UNL     1       6.562   1.026  -0.796  1.00  0.00    -0.044 A 
ATOM      7  C   UNL     1       7.868   1.455  -0.534  1.00  0.00     0.008 A 
ATOM      8  C   UNL     1       6.377  -0.081  -1.592  1.00  0.00     0.054 A 
ATOM      9  C   UNL     1       8.927   0.757  -1.085  1.00  0.00     0.051 A 
ATOM     10  C   UNL     1       7.451  -0.784  -2.146  1.00  0.00     0.166 A 
ATOM     11  C   UNL     1       8.736  -0.362  -1.890  1.00  0.00     0.165 A 
ATOM     12  O   UNL     1       7.527  -1.896  -2.958  1.00  0.00    -0.454 OA
ATOM     13  O   UNL     1       9.584  -1.233  -2.557  1.00  0.00    -0.454 OA
ATOM     14  C   UNL     1       8.863  -2.274  -3.171  1.00  0.00     0.468 C 
ENDBRANCH   5   6
ENDBRANCH   1   5
TORSDOF 3
ENDMDL
MODEL 2
REMARK VINA RESULT:      -7.5      1.926      2.364
REMARK SMILES CC(=O)CCc1ccc2c(c1)OCO2
REMARK SMILES IDX 4 1 2 2 1 3 3 4 5 5 6 6 7 7 11 8 8 9 10 10 9 11 12 12 14 13
REMARK SMILES IDX 13 14
REMARK H PARENT
REMARK Flexibility Score: inf
ROOT
ATOM      1  C   UNL     1       5.747   1.393  -0.249  1.00  0.00     0.080 C 
ENDROOT
BRANCH   1   2
ATOM      2  C   UNL     1       5.087   1.265   1.080  1.00  0.00     0.130 C 
ATOM      3  C   UNL     1       5.354   0.109   1.976  1.00  0.00     0.087 C 
ATOM      4  O   UNL     1       4.302   2.113   1.474  1.00  0.00    -0.300 OA
ENDBRANCH   1   2
BRANCH   1   5
ATOM      5  C   UNL     1       7.236   1.125  -0.153  1.00  0.00     0.043 C 
BRANCH   5   6
ATOM      6  C   UNL     1       7.602  -0.156  -0.782  1.00  0.00    -0.044 A 
ATOM      7  C   UNL     1       7.663  -0.299  -2.173  1.00  0.00     0.008 A 
ATOM      8  C   UNL     1       7.897  -1.245   0.007  1.00  0.00     0.054 A 
ATOM      9  C   UNL     1       8.014  -1.525  -2.708  1.00  0.00     0.051 A 
ATOM     10  C   UNL     1       8.252  -2.482  -0.538  1.00  0.00     0.166 A 
ATOM     11  C   UNL     1       8.310  -2.624  -1.907  1.00  0.00     0.165 A 
ATOM     12  O   UNL     1       8.584  -3.696   0.024  1.00  0.00    -0.454 OA
ATOM     13  O   UNL     1       8.682  -3.935  -2.159  1.00  0.00    -0.454 OA
ATOM     14  C   UNL     1       8.954  -4.625  -0.962  1.00  0.00     0.468 C 
ENDBRANCH   5   6
ENDBRANCH   1   5
TORSDOF 3
ENDMDL
MODEL 3
REMARK VINA RESULT:      -7.2      2.055      2.631
REMARK SMILES CC(=O)CCc1ccc2c(c1)OCO2
REMARK SMILES IDX 4 1 2 2 1 3 3 4 5 5 6 6 7 7 11 8 8 9 10 10 9 11 12 12 14 13
REMARK SMILES IDX 13 14
REMARK H PARENT
REMARK Flexibility Score: inf
ROOT
ATOM      1  C   UNL     1       5.401  -0.062   2.029  1.00  0.00     0.080 C 
ENDROOT
BRANCH   1   2
ATOM      2  C   UNL     1       4.552   1.134   1.770  1.00  0.00     0.130 C 
ATOM      3  C   UNL     1       4.893   2.119   0.709  1.00  0.00     0.087 C 
ATOM      4  O   UNL     1       3.544   1.341   2.426  1.00  0.00    -0.300 OA
ENDBRANCH   1   2
BRANCH   1   5
ATOM      5  C   UNL     1       6.839   0.185   1.621  1.00  0.00     0.043 C 
BRANCH   5   6
ATOM      6  C   UNL     1       7.270  -0.735   0.554  1.00  0.00    -0.044 A 
ATOM      7  C   UNL     1       7.152  -0.396  -0.799  1.00  0.00     0.008 A 
ATOM      8  C   UNL     1       7.806  -1.959   0.884  1.00  0.00     0.054 A 
ATOM      9  C   UNL     1       7.574  -1.300  -1.757  1.00  0.00     0.051 A 
ATOM     10  C   UNL     1       8.232  -2.870  -0.088  1.00  0.00     0.166 A 
ATOM     11  C   UNL     1       8.115  -2.537  -1.419  1.00  0.00     0.165 A 
ATOM     12  O   UNL     1       8.788  -4.129  -0.016  1.00  0.00    -0.454 OA
ATOM     13  O   UNL     1       8.608  -3.611  -2.145  1.00  0.00    -0.454 OA
ATOM     14  C   UNL     1       9.129  -4.603  -1.294  1.00  0.00     0.468 C 
ENDBRANCH   5   6
ENDBRANCH   1   5
TORSDOF 3
ENDMDL
MODEL 4
REMARK VINA RESULT:      -7.1      1.264      1.479
REMARK SMILES CC(=O)CCc1ccc2c(c1)OCO2
REMARK SMILES IDX 4 1 2 2 1 3 3 4 5 5 6 6 7 7 11 8 8 9 10 10 9 11 12 12 14 13
REMARK SMILES IDX 13 14
REMARK H PARENT
REMARK Flexibility Score: inf
ROOT
ATOM      1  C   UNL     1       6.381   1.174   0.962  1.00  0.00     0.080 C 
ENDROOT
BRANCH   1   2
ATOM      2  C   UNL     1       5.640   0.351   1.958  1.00  0.00     0.130 C 
ATOM      3  C   UNL     1       6.232  -0.876   2.553  1.00  0.00     0.087 C 
ATOM      4  O   UNL     1       4.515   0.663   2.316  1.00  0.00    -0.300 OA
ENDBRANCH   1   2
BRANCH   1   5
ATOM      5  C   UNL     1       5.875   0.924  -0.444  1.00  0.00     0.043 C 
BRANCH   5   6
ATOM      6  C   UNL     1       6.814   0.098  -1.224  1.00  0.00    -0.044 A 
ATOM      7  C   UNL     1       7.473   0.603  -2.351  1.00  0.00     0.008 A 
ATOM      8  C   UNL     1       7.058  -1.202  -0.843  1.00  0.00     0.054 A 
ATOM      9  C   UNL     1       8.344  -0.218  -3.043  1.00  0.00     0.051 A 
ATOM     10  C   UNL     1       7.940  -2.028  -1.546  1.00  0.00     0.166 A 
ATOM     11  C   UNL     1       8.588  -1.532  -2.656  1.00  0.00     0.165 A 
ATOM     12  O   UNL     1       8.344  -3.334  -1.372  1.00  0.00    -0.454 OA
ATOM     13  O   UNL     1       9.386  -2.555  -3.144  1.00  0.00    -0.454 OA
ATOM     14  C   UNL     1       9.331  -3.686  -2.308  1.00  0.00     0.468 C 
ENDBRANCH   5   6
ENDBRANCH   1   5
TORSDOF 3
ENDMDL
MODEL 5
REMARK VINA RESULT:      -6.9      1.988      2.640
REMARK SMILES CC(=O)CCc1ccc2c(c1)OCO2
REMARK SMILES IDX 4 1 2 2 1 3 3 4 5 5 6 6 7 7 11 8 8 9 10 10 9 11 12 12 14 13
REMARK SMILES IDX 13 14
REMARK H PARENT
REMARK Flexibility Score: inf
ROOT
ATOM      1  C   UNL     1       6.773   0.565   0.960  1.00  0.00     0.080 C 
ENDROOT
BRANCH   1   2
ATOM      2  C   UNL     1       5.449   1.052   1.436  1.00  0.00     0.130 C 
ATOM      3  C   UNL     1       4.723   2.148   0.740  1.00  0.00     0.087 C 
ATOM      4  O   UNL     1       4.917   0.561   2.419  1.00  0.00    -0.300 OA
ENDBRANCH   1   2
BRANCH   1   5
ATOM      5  C   UNL     1       6.864   0.607  -0.552  1.00  0.00     0.043 C 
BRANCH   5   6
ATOM      6  C   UNL     1       7.469  -0.622  -1.097  1.00  0.00    -0.044 A 
ATOM      7  C   UNL     1       7.782  -0.744  -2.456  1.00  0.00     0.008 A 
ATOM      8  C   UNL     1       7.739  -1.679  -0.259  1.00  0.00     0.054 A 
ATOM      9  C   UNL     1       8.349  -1.921  -2.911  1.00  0.00     0.051 A 
ATOM     10  C   UNL     1       8.313  -2.867  -0.723  1.00  0.00     0.166 A 
ATOM     11  C   UNL     1       8.620  -2.989  -2.060  1.00  0.00     0.165 A 
ATOM     12  O   UNL     1       8.672  -4.043  -0.100  1.00  0.00    -0.454 OA
ATOM     13  O   UNL     1       9.168  -4.250  -2.232  1.00  0.00    -0.454 OA
ATOM     14  C   UNL     1       9.303  -4.918  -1.000  1.00  0.00     0.468 C 
ENDBRANCH   5   6
ENDBRANCH   1   5
TORSDOF 3
ENDMDL
