@<TRIPOS>MOLECULE
/home/cewinharhar/GITHUB/reincatalyze/data/processed/docking_pred/2023-May-25-1902_sub9_nm5_bs15_s42_ex16_mel10_mts10000_k50_ec01_g099_lra3e-4_lrc3e-3/1e8ffecbec14ce573bf52adb8829230239be76a8_ligand_9.pdbqt
 14 15 0 0 0
SMALL
GASTEIGER

@<TRIPOS>ATOM
      1  C          6.7730    0.5650    0.9600 C.3     1  UNL1        0.0800
      2  C          5.4490    1.0520    1.4360 C.2     1  UNL1        0.1300
      3  C          4.7230    2.1480    0.7400 C.3     1  UNL1        0.0870
      4  O          4.9170    0.5610    2.4190 O.2     1  UNL1       -0.3000
      5  C          6.8640    0.6070   -0.5520 C.3     1  UNL1        0.0430
      6  C          7.4690   -0.6220   -1.0970 C.2     1  UNL1       -0.0440
      7  C          7.7820   -0.7440   -2.4560 C.2     1  UNL1        0.0080
      8  C          7.7390   -1.6790   -0.2590 C.2     1  UNL1        0.0540
      9  C          8.3490   -1.9210   -2.9110 C.2     1  UNL1        0.0510
     10  C          8.3130   -2.8670   -0.7230 C.2     1  UNL1        0.1660
     11  C          8.6200   -2.9890   -2.0600 C.2     1  UNL1        0.1650
     12  O          8.6720   -4.0430   -0.1000 O.2     1  UNL1       -0.4540
     13  O          9.1680   -4.2500   -2.2320 O.2     1  UNL1       -0.4540
     14  C          9.3030   -4.9180   -1.0000 C.3     1  UNL1        0.4680
@<TRIPOS>BOND
     1     9     7    1
     2     9    11    2
     3     7     6    2
     4    13    11    1
     5    13    14    1
     6    11    10    1
     7     6     5    1
     8     6     8    1
     9    14    12    1
    10    10     8    2
    11    10    12    1
    12     5     1    1
    13     3     2    1
    14     1     2    1
    15     2     4    2
