MODEL 1
REMARK VINA RESULT:      -7.7      0.000      0.000
REMARK SMILES CC(=O)CCc1ccc2c(c1)OCO2
REMARK SMILES IDX 4 1 2 2 1 3 3 4 5 5 6 6 7 7 11 8 8 9 10 10 9 11 12 12 14 13
REMARK SMILES IDX 13 14
REMARK H PARENT
REMARK Flexibility Score: inf
ROOT
ATOM      1  C   UNL     1       5.516   1.913   1.267  1.00  0.00     0.080 C 
ENDROOT
BRANCH   1   2
ATOM      2  C   UNL     1       5.062   0.697   1.998  1.00  0.00     0.130 C 
ATOM      3  C   UNL     1       5.935  -0.499   2.143  1.00  0.00     0.087 C 
ATOM      4  O   UNL     1       3.952   0.647   2.503  1.00  0.00    -0.300 OA
ENDBRANCH   1   2
BRANCH   1   5
ATOM      5  C   UNL     1       5.393   1.731  -0.233  1.00  0.00     0.043 C 
BRANCH   5   6
ATOM      6  C   UNL     1       6.560   1.030  -0.796  1.00  0.00    -0.044 A 
ATOM      7  C   UNL     1       7.867   1.467  -0.549  1.00  0.00     0.008 A 
ATOM      8  C   UNL     1       6.373  -0.083  -1.584  1.00  0.00     0.054 A 
ATOM      9  C   UNL     1       8.924   0.769  -1.104  1.00  0.00     0.051 A 
ATOM     10  C   UNL     1       7.445  -0.786  -2.142  1.00  0.00     0.166 A 
ATOM     11  C   UNL     1       8.731  -0.356  -1.900  1.00  0.00     0.165 A 
ATOM     12  O   UNL     1       7.519  -1.903  -2.947  1.00  0.00    -0.454 OA
ATOM     13  O   UNL     1       9.577  -1.228  -2.568  1.00  0.00    -0.454 OA
ATOM     14  C   UNL     1       8.855  -2.276  -3.169  1.00  0.00     0.468 C 
ENDBRANCH   5   6
ENDBRANCH   1   5
TORSDOF 3
ENDMDL
MODEL 2
REMARK VINA RESULT:      -7.4      1.851      2.323
REMARK SMILES CC(=O)CCc1ccc2c(c1)OCO2
REMARK SMILES IDX 4 1 2 2 1 3 3 4 5 5 6 6 7 7 11 8 8 9 10 10 9 11 12 12 14 13
REMARK SMILES IDX 13 14
REMARK H PARENT
REMARK Flexibility Score: inf
ROOT
ATOM      1  C   UNL     1       5.784   1.487  -0.310  1.00  0.00     0.080 C 
ENDROOT
BRANCH   1   2
ATOM      2  C   UNL     1       5.115   1.334   1.012  1.00  0.00     0.130 C 
ATOM      3  C   UNL     1       5.469   0.228   1.942  1.00  0.00     0.087 C 
ATOM      4  O   UNL     1       4.252   2.117   1.373  1.00  0.00    -0.300 OA
ENDBRANCH   1   2
BRANCH   1   5
ATOM      5  C   UNL     1       7.266   1.187  -0.215  1.00  0.00     0.043 C 
BRANCH   5   6
ATOM      6  C   UNL     1       7.607  -0.093  -0.863  1.00  0.00    -0.044 A 
ATOM      7  C   UNL     1       7.609  -0.232  -2.255  1.00  0.00     0.008 A 
ATOM      8  C   UNL     1       7.935  -1.183  -0.089  1.00  0.00     0.054 A 
ATOM      9  C   UNL     1       7.938  -1.457  -2.806  1.00  0.00     0.051 A 
ATOM     10  C   UNL     1       8.268  -2.419  -0.651  1.00  0.00     0.166 A 
ATOM     11  C   UNL     1       8.269  -2.557  -2.021  1.00  0.00     0.165 A 
ATOM     12  O   UNL     1       8.624  -3.634  -0.105  1.00  0.00    -0.454 OA
ATOM     13  O   UNL     1       8.630  -3.868  -2.291  1.00  0.00    -0.454 OA
ATOM     14  C   UNL     1       8.953  -4.560  -1.109  1.00  0.00     0.468 C 
ENDBRANCH   5   6
ENDBRANCH   1   5
TORSDOF 3
ENDMDL
MODEL 3
REMARK VINA RESULT:      -7.2      2.085      2.623
REMARK SMILES CC(=O)CCc1ccc2c(c1)OCO2
REMARK SMILES IDX 4 1 2 2 1 3 3 4 5 5 6 6 7 7 11 8 8 9 10 10 9 11 12 12 14 13
REMARK SMILES IDX 13 14
REMARK H PARENT
REMARK Flexibility Score: inf
ROOT
ATOM      1  C   UNL     1       5.523   0.004   1.948  1.00  0.00     0.080 C 
ENDROOT
BRANCH   1   2
ATOM      2  C   UNL     1       4.641   1.166   1.646  1.00  0.00     0.130 C 
ATOM      3  C   UNL     1       4.944   2.108   0.535  1.00  0.00     0.087 C 
ATOM      4  O   UNL     1       3.638   1.380   2.306  1.00  0.00    -0.300 OA
ENDBRANCH   1   2
BRANCH   1   5
ATOM      5  C   UNL     1       6.944   0.256   1.485  1.00  0.00     0.043 C 
BRANCH   5   6
ATOM      6  C   UNL     1       7.358  -0.703   0.445  1.00  0.00    -0.044 A 
ATOM      7  C   UNL     1       7.260  -0.395  -0.917  1.00  0.00     0.008 A 
ATOM      8  C   UNL     1       7.856  -1.933   0.811  1.00  0.00     0.054 A 
ATOM      9  C   UNL     1       7.665  -1.334  -1.848  1.00  0.00     0.051 A 
ATOM     10  C   UNL     1       8.264  -2.879  -0.135  1.00  0.00     0.166 A 
ATOM     11  C   UNL     1       8.167  -2.577  -1.475  1.00  0.00     0.165 A 
ATOM     12  O   UNL     1       8.784  -4.151  -0.027  1.00  0.00    -0.454 OA
ATOM     13  O   UNL     1       8.636  -3.681  -2.169  1.00  0.00    -0.454 OA
ATOM     14  C   UNL     1       9.121  -4.667  -1.289  1.00  0.00     0.468 C 
ENDBRANCH   5   6
ENDBRANCH   1   5
TORSDOF 3
ENDMDL
MODEL 4
REMARK VINA RESULT:      -7.1      1.255      1.463
REMARK SMILES CC(=O)CCc1ccc2c(c1)OCO2
REMARK SMILES IDX 4 1 2 2 1 3 3 4 5 5 6 6 7 7 11 8 8 9 10 10 9 11 12 12 14 13
REMARK SMILES IDX 13 14
REMARK H PARENT
REMARK Flexibility Score: inf
ROOT
ATOM      1  C   UNL     1       6.380   1.204   0.943  1.00  0.00     0.080 C 
ENDROOT
BRANCH   1   2
ATOM      2  C   UNL     1       5.651   0.373   1.941  1.00  0.00     0.130 C 
ATOM      3  C   UNL     1       6.255  -0.854   2.525  1.00  0.00     0.087 C 
ATOM      4  O   UNL     1       4.529   0.677   2.310  1.00  0.00    -0.300 OA
ENDBRANCH   1   2
BRANCH   1   5
ATOM      5  C   UNL     1       5.878   0.943  -0.463  1.00  0.00     0.043 C 
BRANCH   5   6
ATOM      6  C   UNL     1       6.821   0.115  -1.236  1.00  0.00    -0.044 A 
ATOM      7  C   UNL     1       7.503   0.623  -2.347  1.00  0.00     0.008 A 
ATOM      8  C   UNL     1       7.046  -1.191  -0.862  1.00  0.00     0.054 A 
ATOM      9  C   UNL     1       8.376  -0.201  -3.033  1.00  0.00     0.051 A 
ATOM     10  C   UNL     1       7.931  -2.020  -1.559  1.00  0.00     0.166 A 
ATOM     11  C   UNL     1       8.601  -1.520  -2.653  1.00  0.00     0.165 A 
ATOM     12  O   UNL     1       8.320  -3.331  -1.390  1.00  0.00    -0.454 OA
ATOM     13  O   UNL     1       9.397  -2.546  -3.138  1.00  0.00    -0.454 OA
ATOM     14  C   UNL     1       9.319  -3.684  -2.313  1.00  0.00     0.468 C 
ENDBRANCH   5   6
ENDBRANCH   1   5
TORSDOF 3
ENDMDL
MODEL 5
REMARK VINA RESULT:      -6.9      2.001      2.668
REMARK SMILES CC(=O)CCc1ccc2c(c1)OCO2
REMARK SMILES IDX 4 1 2 2 1 3 3 4 5 5 6 6 7 7 11 8 8 9 10 10 9 11 12 12 14 13
REMARK SMILES IDX 13 14
REMARK H PARENT
REMARK Flexibility Score: inf
ROOT
ATOM      1  C   UNL     1       6.720   0.467   0.977  1.00  0.00     0.080 C 
ENDROOT
BRANCH   1   2
ATOM      2  C   UNL     1       5.384   1.033   1.312  1.00  0.00     0.130 C 
ATOM      3  C   UNL     1       4.789   2.148   0.528  1.00  0.00     0.087 C 
ATOM      4  O   UNL     1       4.734   0.595   2.248  1.00  0.00    -0.300 OA
ENDBRANCH   1   2
BRANCH   1   5
ATOM      5  C   UNL     1       7.023   0.608  -0.501  1.00  0.00     0.043 C 
BRANCH   5   6
ATOM      6  C   UNL     1       7.595  -0.629  -1.063  1.00  0.00    -0.044 A 
ATOM      7  C   UNL     1       7.924  -0.734  -2.419  1.00  0.00     0.008 A 
ATOM      8  C   UNL     1       7.816  -1.711  -0.242  1.00  0.00     0.054 A 
ATOM      9  C   UNL     1       8.459  -1.920  -2.889  1.00  0.00     0.051 A 
ATOM     10  C   UNL     1       8.358  -2.908  -0.723  1.00  0.00     0.166 A 
ATOM     11  C   UNL     1       8.681  -3.013  -2.057  1.00  0.00     0.165 A 
ATOM     12  O   UNL     1       8.668  -4.108  -0.119  1.00  0.00    -0.454 OA
ATOM     13  O   UNL     1       9.189  -4.288  -2.247  1.00  0.00    -0.454 OA
ATOM     14  C   UNL     1       9.283  -4.985  -1.027  1.00  0.00     0.468 C 
ENDBRANCH   5   6
ENDBRANCH   1   5
TORSDOF 3
ENDMDL
