@<TRIPOS>MOLECULE
/home/cewinharhar/GITHUB/reincatalyze/data/processed/docking_pred/2023-May-25-1902_sub9_nm5_bs15_s42_ex16_mel10_mts10000_k50_ec01_g099_lra3e-4_lrc3e-3/1f53ccdef65850680f3a99c865464637782ca6a5_ligand_9.pdbqt
 14 15 0 0 0
SMALL
GASTEIGER

@<TRIPOS>ATOM
      1  C          5.5200    1.9270    1.2590 C.3     1  UNL1        0.0800
      2  C          5.0500    0.7210    1.9960 C.2     1  UNL1        0.1300
      3  C          5.9050   -0.4870    2.1440 C.3     1  UNL1        0.0870
      4  O          3.9400    0.6900    2.5040 O.2     1  UNL1       -0.3000
      5  C          5.3980    1.7380   -0.2400 C.3     1  UNL1        0.0430
      6  C          6.5660    1.0360   -0.8000 C.2     1  UNL1       -0.0440
      7  C          7.8730    1.4690   -0.5450 C.2     1  UNL1        0.0080
      8  C          6.3800   -0.0740   -1.5910 C.2     1  UNL1        0.0540
      9  C          8.9310    0.7700   -1.0970 C.2     1  UNL1        0.0510
     10  C          7.4540   -0.7780   -2.1460 C.2     1  UNL1        0.1660
     11  C          8.7390   -0.3520   -1.8970 C.2     1  UNL1        0.1650
     12  O          7.5290   -1.8930   -2.9540 O.2     1  UNL1       -0.4540
     13  O          9.5860   -1.2240   -2.5630 O.2     1  UNL1       -0.4540
     14  C          8.8650   -2.2690   -3.1710 C.3     1  UNL1        0.4680
@<TRIPOS>BOND
     1    14    12    1
     2    14    13    1
     3    12    10    1
     4    13    11    1
     5    10    11    2
     6    10     8    1
     7    11     9    1
     8     8     6    2
     9     9     7    2
    10     6     7    1
    11     6     5    1
    12     5     1    1
    13     1     2    1
    14     2     3    1
    15     2     4    2
