MODEL 1
REMARK VINA RESULT:      -7.7      0.000      0.000
REMARK SMILES CC(=O)CCc1ccc2c(c1)OCO2
REMARK SMILES IDX 4 1 2 2 1 3 3 4 5 5 6 6 7 7 11 8 8 9 10 10 9 11 12 12 14 13
REMARK SMILES IDX 13 14
REMARK H PARENT
REMARK Flexibility Score: inf
ROOT
ATOM      1  C   UNL     1       5.520   1.927   1.259  1.00  0.00     0.080 C 
ENDROOT
BRANCH   1   2
ATOM      2  C   UNL     1       5.050   0.721   1.996  1.00  0.00     0.130 C 
ATOM      3  C   UNL     1       5.905  -0.487   2.144  1.00  0.00     0.087 C 
ATOM      4  O   UNL     1       3.940   0.690   2.504  1.00  0.00    -0.300 OA
ENDBRANCH   1   2
BRANCH   1   5
ATOM      5  C   UNL     1       5.398   1.738  -0.240  1.00  0.00     0.043 C 
BRANCH   5   6
ATOM      6  C   UNL     1       6.566   1.036  -0.800  1.00  0.00    -0.044 A 
ATOM      7  C   UNL     1       7.873   1.469  -0.545  1.00  0.00     0.008 A 
ATOM      8  C   UNL     1       6.380  -0.074  -1.591  1.00  0.00     0.054 A 
ATOM      9  C   UNL     1       8.931   0.770  -1.097  1.00  0.00     0.051 A 
ATOM     10  C   UNL     1       7.454  -0.778  -2.146  1.00  0.00     0.166 A 
ATOM     11  C   UNL     1       8.739  -0.352  -1.897  1.00  0.00     0.165 A 
ATOM     12  O   UNL     1       7.529  -1.893  -2.954  1.00  0.00    -0.454 OA
ATOM     13  O   UNL     1       9.586  -1.224  -2.563  1.00  0.00    -0.454 OA
ATOM     14  C   UNL     1       8.865  -2.269  -3.171  1.00  0.00     0.468 C 
ENDBRANCH   5   6
ENDBRANCH   1   5
TORSDOF 3
ENDMDL
MODEL 2
REMARK VINA RESULT:      -7.4      1.930      2.410
REMARK SMILES CC(=O)CCc1ccc2c(c1)OCO2
REMARK SMILES IDX 4 1 2 2 1 3 3 4 5 5 6 6 7 7 11 8 8 9 10 10 9 11 12 12 14 13
REMARK SMILES IDX 13 14
REMARK H PARENT
REMARK Flexibility Score: inf
ROOT
ATOM      1  C   UNL     1       5.810   1.430  -0.258  1.00  0.00     0.080 C 
ENDROOT
BRANCH   1   2
ATOM      2  C   UNL     1       5.106   1.301   1.048  1.00  0.00     0.130 C 
ATOM      3  C   UNL     1       5.345   0.146   1.954  1.00  0.00     0.087 C 
ATOM      4  O   UNL     1       4.306   2.147   1.415  1.00  0.00    -0.300 OA
ENDBRANCH   1   2
BRANCH   1   5
ATOM      5  C   UNL     1       7.279   1.078  -0.129  1.00  0.00     0.043 C 
BRANCH   5   6
ATOM      6  C   UNL     1       7.591  -0.209  -0.774  1.00  0.00    -0.044 A 
ATOM      7  C   UNL     1       7.527  -0.368  -2.163  1.00  0.00     0.008 A 
ATOM      8  C   UNL     1       7.958  -1.288  -0.001  1.00  0.00     0.054 A 
ATOM      9  C   UNL     1       7.832  -1.600  -2.712  1.00  0.00     0.051 A 
ATOM     10  C   UNL     1       8.266  -2.531  -0.562  1.00  0.00     0.166 A 
ATOM     11  C   UNL     1       8.202  -2.689  -1.928  1.00  0.00     0.165 A 
ATOM     12  O   UNL     1       8.651  -3.738  -0.017  1.00  0.00    -0.454 OA
ATOM     13  O   UNL     1       8.554  -4.002  -2.198  1.00  0.00    -0.454 OA
ATOM     14  C   UNL     1       8.934  -4.678  -1.022  1.00  0.00     0.468 C 
ENDBRANCH   5   6
ENDBRANCH   1   5
TORSDOF 3
ENDMDL
MODEL 3
REMARK VINA RESULT:      -7.2      2.053      2.614
REMARK SMILES CC(=O)CCc1ccc2c(c1)OCO2
REMARK SMILES IDX 4 1 2 2 1 3 3 4 5 5 6 6 7 7 11 8 8 9 10 10 9 11 12 12 14 13
REMARK SMILES IDX 13 14
REMARK H PARENT
REMARK Flexibility Score: inf
ROOT
ATOM      1  C   UNL     1       5.443  -0.032   2.041  1.00  0.00     0.080 C 
ENDROOT
BRANCH   1   2
ATOM      2  C   UNL     1       4.565   1.140   1.771  1.00  0.00     0.130 C 
ATOM      3  C   UNL     1       4.885   2.127   0.705  1.00  0.00     0.087 C 
ATOM      4  O   UNL     1       3.550   1.326   2.422  1.00  0.00    -0.300 OA
ENDBRANCH   1   2
BRANCH   1   5
ATOM      5  C   UNL     1       6.867   0.233   1.595  1.00  0.00     0.043 C 
BRANCH   5   6
ATOM      6  C   UNL     1       7.289  -0.697   0.532  1.00  0.00    -0.044 A 
ATOM      7  C   UNL     1       7.168  -0.367  -0.822  1.00  0.00     0.008 A 
ATOM      8  C   UNL     1       7.819  -1.922   0.869  1.00  0.00     0.054 A 
ATOM      9  C   UNL     1       7.581  -1.280  -1.775  1.00  0.00     0.051 A 
ATOM     10  C   UNL     1       8.236  -2.841  -0.098  1.00  0.00     0.166 A 
ATOM     11  C   UNL     1       8.116  -2.518  -1.431  1.00  0.00     0.165 A 
ATOM     12  O   UNL     1       8.785  -4.104  -0.020  1.00  0.00    -0.454 OA
ATOM     13  O   UNL     1       8.600  -3.598  -2.152  1.00  0.00    -0.454 OA
ATOM     14  C   UNL     1       9.118  -4.589  -1.296  1.00  0.00     0.468 C 
ENDBRANCH   5   6
ENDBRANCH   1   5
TORSDOF 3
ENDMDL
MODEL 4
REMARK VINA RESULT:      -7.1      1.258      1.473
REMARK SMILES CC(=O)CCc1ccc2c(c1)OCO2
REMARK SMILES IDX 4 1 2 2 1 3 3 4 5 5 6 6 7 7 11 8 8 9 10 10 9 11 12 12 14 13
REMARK SMILES IDX 13 14
REMARK H PARENT
REMARK Flexibility Score: inf
ROOT
ATOM      1  C   UNL     1       6.377   1.191   0.932  1.00  0.00     0.080 C 
ENDROOT
BRANCH   1   2
ATOM      2  C   UNL     1       5.658   0.370   1.946  1.00  0.00     0.130 C 
ATOM      3  C   UNL     1       6.262  -0.858   2.527  1.00  0.00     0.087 C 
ATOM      4  O   UNL     1       4.543   0.685   2.330  1.00  0.00    -0.300 OA
ENDBRANCH   1   2
BRANCH   1   5
ATOM      5  C   UNL     1       5.864   0.913  -0.467  1.00  0.00     0.043 C 
BRANCH   5   6
ATOM      6  C   UNL     1       6.812   0.096  -1.244  1.00  0.00    -0.044 A 
ATOM      7  C   UNL     1       7.491   0.616  -2.352  1.00  0.00     0.008 A 
ATOM      8  C   UNL     1       7.046  -1.211  -0.880  1.00  0.00     0.054 A 
ATOM      9  C   UNL     1       8.370  -0.198  -3.043  1.00  0.00     0.051 A 
ATOM     10  C   UNL     1       7.936  -2.029  -1.582  1.00  0.00     0.166 A 
ATOM     11  C   UNL     1       8.603  -1.518  -2.673  1.00  0.00     0.165 A 
ATOM     12  O   UNL     1       8.333  -3.340  -1.421  1.00  0.00    -0.454 OA
ATOM     13  O   UNL     1       9.406  -2.536  -3.164  1.00  0.00    -0.454 OA
ATOM     14  C   UNL     1       9.334  -3.680  -2.347  1.00  0.00     0.468 C 
ENDBRANCH   5   6
ENDBRANCH   1   5
TORSDOF 3
ENDMDL
MODEL 5
REMARK VINA RESULT:      -6.8      1.265      1.753
REMARK SMILES CC(=O)CCc1ccc2c(c1)OCO2
REMARK SMILES IDX 4 1 2 2 1 3 3 4 5 5 6 6 7 7 11 8 8 9 10 10 9 11 12 12 14 13
REMARK SMILES IDX 13 14
REMARK H PARENT
REMARK Flexibility Score: inf
ROOT
ATOM      1  C   UNL     1       5.300  -0.082   1.947  1.00  0.00     0.080 C 
ENDROOT
BRANCH   1   2
ATOM      2  C   UNL     1       4.427   1.113   1.783  1.00  0.00     0.130 C 
ATOM      3  C   UNL     1       4.708   2.150   0.753  1.00  0.00     0.087 C 
ATOM      4  O   UNL     1       3.450   1.278   2.494  1.00  0.00    -0.300 OA
ENDBRANCH   1   2
BRANCH   1   5
ATOM      5  C   UNL     1       6.767   0.296   1.896  1.00  0.00     0.043 C 
BRANCH   5   6
ATOM      6  C   UNL     1       7.378  -0.057   0.602  1.00  0.00    -0.044 A 
ATOM      7  C   UNL     1       7.869   0.924  -0.268  1.00  0.00     0.008 A 
ATOM      8  C   UNL     1       7.475  -1.378   0.231  1.00  0.00     0.054 A 
ATOM      9  C   UNL     1       8.432   0.534  -1.469  1.00  0.00     0.051 A 
ATOM     10  C   UNL     1       8.046  -1.768  -0.984  1.00  0.00     0.166 A 
ATOM     11  C   UNL     1       8.528  -0.804  -1.841  1.00  0.00     0.165 A 
ATOM     12  O   UNL     1       8.256  -2.997  -1.573  1.00  0.00    -0.454 OA
ATOM     13  O   UNL     1       9.030  -1.468  -2.950  1.00  0.00    -0.454 OA
ATOM     14  C   UNL     1       8.960  -2.863  -2.781  1.00  0.00     0.468 C 
ENDBRANCH   5   6
ENDBRANCH   1   5
TORSDOF 3
ENDMDL
