@<TRIPOS>MOLECULE
/home/cewinharhar/GITHUB/reincatalyze/data/processed/docking_pred/2023-May-25-1902_sub9_nm5_bs15_s42_ex16_mel10_mts10000_k50_ec01_g099_lra3e-4_lrc3e-3/1f53ccdef65850680f3a99c865464637782ca6a5_ligand_9.pdbqt
 14 15 0 0 0
SMALL
GASTEIGER

@<TRIPOS>ATOM
      1  C          5.3000   -0.0820    1.9470 C.3     1  UNL1        0.0800
      2  C          4.4270    1.1130    1.7830 C.2     1  UNL1        0.1300
      3  C          4.7080    2.1500    0.7530 C.3     1  UNL1        0.0870
      4  O          3.4500    1.2780    2.4940 O.2     1  UNL1       -0.3000
      5  C          6.7670    0.2960    1.8960 C.3     1  UNL1        0.0430
      6  C          7.3780   -0.0570    0.6020 C.2     1  UNL1       -0.0440
      7  C          7.8690    0.9240   -0.2680 C.2     1  UNL1        0.0080
      8  C          7.4750   -1.3780    0.2310 C.2     1  UNL1        0.0540
      9  C          8.4320    0.5340   -1.4690 C.2     1  UNL1        0.0510
     10  C          8.0460   -1.7680   -0.9840 C.2     1  UNL1        0.1660
     11  C          8.5280   -0.8040   -1.8410 C.2     1  UNL1        0.1650
     12  O          8.2560   -2.9970   -1.5730 O.2     1  UNL1       -0.4540
     13  O          9.0300   -1.4680   -2.9500 O.2     1  UNL1       -0.4540
     14  C          8.9600   -2.8630   -2.7810 C.3     1  UNL1        0.4680
@<TRIPOS>BOND
     1    13    14    1
     2    13    11    1
     3    14    12    1
     4    11     9    2
     5    11    10    1
     6    12    10    1
     7     9     7    1
     8    10     8    2
     9     7     6    2
    10     8     6    1
    11     6     5    1
    12     3     2    1
    13     2     1    1
    14     2     4    2
    15     5     1    1
