@<TRIPOS>MOLECULE
/home/cewinharhar/GITHUB/reincatalyze/data/processed/docking_pred/2023-May-25-1902_sub9_nm5_bs15_s42_ex16_mel10_mts10000_k50_ec01_g099_lra3e-4_lrc3e-3/1f774135605f6656ff2aa9e322f53f2a679c664c_ligand_9.pdbqt
 14 15 0 0 0
SMALL
GASTEIGER

@<TRIPOS>ATOM
      1  C          5.5230    0.0040    1.9480 C.3     1  UNL1        0.0800
      2  C          4.6410    1.1660    1.6460 C.2     1  UNL1        0.1300
      3  C          4.9440    2.1080    0.5350 C.3     1  UNL1        0.0870
      4  O          3.6380    1.3800    2.3060 O.2     1  UNL1       -0.3000
      5  C          6.9440    0.2560    1.4850 C.3     1  UNL1        0.0430
      6  C          7.3580   -0.7030    0.4450 C.2     1  UNL1       -0.0440
      7  C          7.2600   -0.3950   -0.9170 C.2     1  UNL1        0.0080
      8  C          7.8560   -1.9330    0.8110 C.2     1  UNL1        0.0540
      9  C          7.6650   -1.3340   -1.8480 C.2     1  UNL1        0.0510
     10  C          8.2640   -2.8790   -0.1350 C.2     1  UNL1        0.1660
     11  C          8.1670   -2.5770   -1.4750 C.2     1  UNL1        0.1650
     12  O          8.7840   -4.1510   -0.0270 O.2     1  UNL1       -0.4540
     13  O          8.6360   -3.6810   -2.1690 O.2     1  UNL1       -0.4540
     14  C          9.1210   -4.6670   -1.2890 C.3     1  UNL1        0.4680
@<TRIPOS>BOND
     1    13    11    1
     2    13    14    1
     3     9    11    2
     4     9     7    1
     5    11    10    1
     6    14    12    1
     7     7     6    2
     8    10    12    1
     9    10     8    2
    10     6     8    1
    11     6     5    1
    12     3     2    1
    13     5     1    1
    14     2     1    1
    15     2     4    2
