@<TRIPOS>MOLECULE
/home/cewinharhar/GITHUB/reincatalyze/data/processed/docking_pred/2023-May-25-1902_sub9_nm5_bs15_s42_ex16_mel10_mts10000_k50_ec01_g099_lra3e-4_lrc3e-3/1fd5ec6d4a6889d2560636754963a08404c0587d_ligand_9.pdbqt
 14 15 0 0 0
SMALL
GASTEIGER

@<TRIPOS>ATOM
      1  C          6.8590    1.0090    1.3890 C.3     1  UNL1        0.0800
      2  C          5.3830    1.1660    1.5160 C.2     1  UNL1        0.1300
      3  C          4.6280    2.1450    0.6880 C.3     1  UNL1        0.0870
      4  O          4.7470    0.4920    2.3100 O.2     1  UNL1       -0.3000
      5  C          7.3100    1.1860   -0.0470 C.3     1  UNL1        0.0430
      6  C          7.6300   -0.1050   -0.6820 C.2     1  UNL1       -0.0440
      7  C          7.6350   -0.2570   -2.0730 C.2     1  UNL1        0.0080
      8  C          7.9370   -1.1940    0.1020 C.2     1  UNL1        0.0540
      9  C          7.9440   -1.4920   -2.6130 C.2     1  UNL1        0.0510
     10  C          8.2490   -2.4410   -0.4480 C.2     1  UNL1        0.1660
     11  C          8.2530   -2.5910   -1.8170 C.2     1  UNL1        0.1650
     12  O          8.5820   -3.6570    0.1090 O.2     1  UNL1       -0.4540
     13  O          8.5920   -3.9100   -2.0750 O.2     1  UNL1       -0.4540
     14  C          8.8980   -4.5970   -0.8850 C.3     1  UNL1        0.4680
@<TRIPOS>BOND
     1     9     7    1
     2     9    11    2
     3    13    11    1
     4    13    14    1
     5     7     6    2
     6    11    10    1
     7    14    12    1
     8     6     5    1
     9     6     8    1
    10    10     8    2
    11    10    12    1
    12     5     1    1
    13     3     2    1
    14     1     2    1
    15     2     4    2
