@<TRIPOS>MOLECULE
/home/cewinharhar/GITHUB/reincatalyze/data/processed/docking_pred/2023-May-25-1902_sub9_nm5_bs15_s42_ex16_mel10_mts10000_k50_ec01_g099_lra3e-4_lrc3e-3/1fd5ec6d4a6889d2560636754963a08404c0587d_ligand_9.pdbqt
 14 15 0 0 0
SMALL
GASTEIGER

@<TRIPOS>ATOM
      1  C          5.5380    1.8900    1.2880 C.3     1  UNL1        0.0800
      2  C          5.1060    0.6710    2.0270 C.2     1  UNL1        0.1300
      3  C          6.0040   -0.5040    2.1860 C.3     1  UNL1        0.0870
      4  O          3.9950    0.6020    2.5270 O.2     1  UNL1       -0.3000
      5  C          5.4010    1.7030   -0.2100 C.3     1  UNL1        0.0430
      6  C          6.5680    1.0100   -0.7830 C.2     1  UNL1       -0.0440
      7  C          7.8730    1.4590   -0.5530 C.2     1  UNL1        0.0080
      8  C          6.3820   -0.1090   -1.5640 C.2     1  UNL1        0.0540
      9  C          8.9310    0.7680   -1.1160 C.2     1  UNL1        0.0510
     10  C          7.4540   -0.8050   -2.1300 C.2     1  UNL1        0.1660
     11  C          8.7390   -0.3620   -1.9050 C.2     1  UNL1        0.1650
     12  O          7.5300   -1.9250   -2.9310 O.2     1  UNL1       -0.4540
     13  O          9.5850   -1.2300   -2.5780 O.2     1  UNL1       -0.4540
     14  C          8.8660   -2.2870   -3.1660 C.3     1  UNL1        0.4680
@<TRIPOS>BOND
     1    14    12    1
     2    14    13    1
     3    12    10    1
     4    13    11    1
     5    10    11    2
     6    10     8    1
     7    11     9    1
     8     8     6    2
     9     9     7    2
    10     6     7    1
    11     6     5    1
    12     5     1    1
    13     1     2    1
    14     2     3    1
    15     2     4    2
