@<TRIPOS>MOLECULE
/home/cewinharhar/GITHUB/reincatalyze/data/processed/docking_pred/2023-May-25-1902_sub9_nm5_bs15_s42_ex16_mel10_mts10000_k50_ec01_g099_lra3e-4_lrc3e-3/1fd5ec6d4a6889d2560636754963a08404c0587d_ligand_9.pdbqt
 14 15 0 0 0
SMALL
GASTEIGER

@<TRIPOS>ATOM
      1  C          6.3130    1.2840    0.8600 C.3     1  UNL1        0.0800
      2  C          5.6540    0.4550    1.9070 C.2     1  UNL1        0.1300
      3  C          6.3020   -0.7630    2.4620 C.3     1  UNL1        0.0870
      4  O          4.5540    0.7540    2.3430 O.2     1  UNL1       -0.3000
      5  C          5.8020    0.9320   -0.5230 C.3     1  UNL1        0.0430
      6  C          6.7800    0.1280   -1.2780 C.2     1  UNL1       -0.0440
      7  C          7.5140    0.6720   -2.3380 C.2     1  UNL1        0.0080
      8  C          6.9860   -1.1900   -0.9390 C.2     1  UNL1        0.0540
      9  C          8.4180   -0.1300   -3.0100 C.2     1  UNL1        0.0510
     10  C          7.9020   -1.9970   -1.6210 C.2     1  UNL1        0.1660
     11  C          8.6230   -1.4630   -2.6650 C.2     1  UNL1        0.1650
     12  O          8.2810   -3.3150   -1.4790 O.2     1  UNL1       -0.4540
     13  O          9.4400   -2.4740   -3.1470 O.2     1  UNL1       -0.4540
     14  C          9.3210   -3.6390   -2.3650 C.3     1  UNL1        0.4680
@<TRIPOS>BOND
     1    13    11    1
     2    13    14    1
     3     9    11    2
     4     9     7    1
     5    11    10    1
     6    14    12    1
     7     7     6    2
     8    10    12    1
     9    10     8    2
    10     6     8    1
    11     6     5    1
    12     5     1    1
    13     1     2    1
    14     2     4    2
    15     2     3    1
