@<TRIPOS>MOLECULE
/home/cewinharhar/GITHUB/reincatalyze/data/processed/docking_pred/2023-May-25-1902_sub9_nm5_bs15_s42_ex16_mel10_mts10000_k50_ec01_g099_lra3e-4_lrc3e-3/1fd5ec6d4a6889d2560636754963a08404c0587d_ligand_9.pdbqt
 14 15 0 0 0
SMALL
GASTEIGER

@<TRIPOS>ATOM
      1  C          5.7410    1.4000   -0.2160 C.3     1  UNL1        0.0800
      2  C          5.0920    1.2570    1.1170 C.2     1  UNL1        0.1300
      3  C          5.3850    0.1030    2.0090 C.3     1  UNL1        0.0870
      4  O          4.2940    2.0890    1.5180 O.2     1  UNL1       -0.3000
      5  C          7.2300    1.1280   -0.1350 C.3     1  UNL1        0.0430
      6  C          7.5880   -0.1500   -0.7760 C.2     1  UNL1       -0.0440
      7  C          7.6180   -0.2880   -2.1690 C.2     1  UNL1        0.0080
      8  C          7.9040   -1.2390    0.0030 C.2     1  UNL1        0.0540
      9  C          7.9620   -1.5110   -2.7140 C.2     1  UNL1        0.0510
     10  C          8.2520   -2.4740   -0.5530 C.2     1  UNL1        0.1660
     11  C          8.2810   -2.6110   -1.9230 C.2     1  UNL1        0.1650
     12  O          8.6010   -3.6880   -0.0020 O.2     1  UNL1       -0.4540
     13  O          8.6520   -3.9200   -2.1880 O.2     1  UNL1       -0.4540
     14  C          8.9530   -4.6130   -1.0000 C.3     1  UNL1        0.4680
@<TRIPOS>BOND
     1     9     7    1
     2     9    11    2
     3    13    11    1
     4    13    14    1
     5     7     6    2
     6    11    10    1
     7    14    12    1
     8     6     5    1
     9     6     8    1
    10    10    12    1
    11    10     8    2
    12     1     5    1
    13     1     2    1
    14     2     4    2
    15     2     3    1
