@<TRIPOS>MOLECULE
/home/cewinharhar/GITHUB/reincatalyze/data/processed/docking_pred/2023-May-25-1902_sub9_nm5_bs15_s42_ex16_mel10_mts10000_k50_ec01_g099_lra3e-4_lrc3e-3/1fd5ec6d4a6889d2560636754963a08404c0587d_ligand_9.pdbqt
 14 15 0 0 0
SMALL
GASTEIGER

@<TRIPOS>ATOM
      1  C          5.3930   -0.0690    2.0190 C.3     1  UNL1        0.0800
      2  C          4.5580    1.1390    1.7720 C.2     1  UNL1        0.1300
      3  C          4.9060    2.1270    0.7150 C.3     1  UNL1        0.0870
      4  O          3.5560    1.3550    2.4350 O.2     1  UNL1       -0.3000
      5  C          6.8370    0.1700    1.6260 C.3     1  UNL1        0.0430
      6  C          7.2720   -0.7450    0.5560 C.2     1  UNL1       -0.0440
      7  C          7.1530   -0.4020   -0.7960 C.2     1  UNL1        0.0080
      8  C          7.8110   -1.9690    0.8830 C.2     1  UNL1        0.0540
      9  C          7.5790   -1.3010   -1.7560 C.2     1  UNL1        0.0510
     10  C          8.2400   -2.8750   -0.0920 C.2     1  UNL1        0.1660
     11  C          8.1230   -2.5380   -1.4220 C.2     1  UNL1        0.1650
     12  O          8.8000   -4.1330   -0.0250 O.2     1  UNL1       -0.4540
     13  O          8.6190   -3.6070   -2.1520 O.2     1  UNL1       -0.4540
     14  C          9.1420   -4.6020   -1.3040 C.3     1  UNL1        0.4680
@<TRIPOS>BOND
     1    13    11    1
     2    13    14    1
     3     9    11    2
     4     9     7    1
     5    11    10    1
     6    14    12    1
     7     7     6    2
     8    10    12    1
     9    10     8    2
    10     6     8    1
    11     6     5    1
    12     3     2    1
    13     5     1    1
    14     2     1    1
    15     2     4    2
