MODEL 1
REMARK VINA RESULT:      -7.7      0.000      0.000
REMARK SMILES CC(=O)CCc1ccc2c(c1)OCO2
REMARK SMILES IDX 4 1 2 2 1 3 3 4 5 5 6 6 7 7 11 8 8 9 10 10 9 11 12 12 14 13
REMARK SMILES IDX 13 14
REMARK H PARENT
REMARK Flexibility Score: inf
ROOT
ATOM      1  C   UNL     1       5.538   1.890   1.288  1.00  0.00     0.080 C 
ENDROOT
BRANCH   1   2
ATOM      2  C   UNL     1       5.106   0.671   2.027  1.00  0.00     0.130 C 
ATOM      3  C   UNL     1       6.004  -0.504   2.186  1.00  0.00     0.087 C 
ATOM      4  O   UNL     1       3.995   0.602   2.527  1.00  0.00    -0.300 OA
ENDBRANCH   1   2
BRANCH   1   5
ATOM      5  C   UNL     1       5.401   1.703  -0.210  1.00  0.00     0.043 C 
BRANCH   5   6
ATOM      6  C   UNL     1       6.568   1.010  -0.783  1.00  0.00    -0.044 A 
ATOM      7  C   UNL     1       7.873   1.459  -0.553  1.00  0.00     0.008 A 
ATOM      8  C   UNL     1       6.382  -0.109  -1.564  1.00  0.00     0.054 A 
ATOM      9  C   UNL     1       8.931   0.768  -1.116  1.00  0.00     0.051 A 
ATOM     10  C   UNL     1       7.454  -0.805  -2.130  1.00  0.00     0.166 A 
ATOM     11  C   UNL     1       8.739  -0.362  -1.905  1.00  0.00     0.165 A 
ATOM     12  O   UNL     1       7.530  -1.925  -2.931  1.00  0.00    -0.454 OA
ATOM     13  O   UNL     1       9.585  -1.230  -2.578  1.00  0.00    -0.454 OA
ATOM     14  C   UNL     1       8.866  -2.287  -3.166  1.00  0.00     0.468 C 
ENDBRANCH   5   6
ENDBRANCH   1   5
TORSDOF 3
ENDMDL
MODEL 2
REMARK VINA RESULT:      -7.4      1.896      2.341
REMARK SMILES CC(=O)CCc1ccc2c(c1)OCO2
REMARK SMILES IDX 4 1 2 2 1 3 3 4 5 5 6 6 7 7 11 8 8 9 10 10 9 11 12 12 14 13
REMARK SMILES IDX 13 14
REMARK H PARENT
REMARK Flexibility Score: inf
ROOT
ATOM      1  C   UNL     1       5.741   1.400  -0.216  1.00  0.00     0.080 C 
ENDROOT
BRANCH   1   2
ATOM      2  C   UNL     1       5.092   1.257   1.117  1.00  0.00     0.130 C 
ATOM      3  C   UNL     1       5.385   0.103   2.009  1.00  0.00     0.087 C 
ATOM      4  O   UNL     1       4.294   2.089   1.518  1.00  0.00    -0.300 OA
ENDBRANCH   1   2
BRANCH   1   5
ATOM      5  C   UNL     1       7.230   1.128  -0.135  1.00  0.00     0.043 C 
BRANCH   5   6
ATOM      6  C   UNL     1       7.588  -0.150  -0.776  1.00  0.00    -0.044 A 
ATOM      7  C   UNL     1       7.618  -0.288  -2.169  1.00  0.00     0.008 A 
ATOM      8  C   UNL     1       7.904  -1.239   0.003  1.00  0.00     0.054 A 
ATOM      9  C   UNL     1       7.962  -1.511  -2.714  1.00  0.00     0.051 A 
ATOM     10  C   UNL     1       8.252  -2.474  -0.553  1.00  0.00     0.166 A 
ATOM     11  C   UNL     1       8.281  -2.611  -1.923  1.00  0.00     0.165 A 
ATOM     12  O   UNL     1       8.601  -3.688  -0.002  1.00  0.00    -0.454 OA
ATOM     13  O   UNL     1       8.652  -3.920  -2.188  1.00  0.00    -0.454 OA
ATOM     14  C   UNL     1       8.953  -4.613  -1.000  1.00  0.00     0.468 C 
ENDBRANCH   5   6
ENDBRANCH   1   5
TORSDOF 3
ENDMDL
MODEL 3
REMARK VINA RESULT:      -7.2      2.043      2.622
REMARK SMILES CC(=O)CCc1ccc2c(c1)OCO2
REMARK SMILES IDX 4 1 2 2 1 3 3 4 5 5 6 6 7 7 11 8 8 9 10 10 9 11 12 12 14 13
REMARK SMILES IDX 13 14
REMARK H PARENT
REMARK Flexibility Score: inf
ROOT
ATOM      1  C   UNL     1       5.393  -0.069   2.019  1.00  0.00     0.080 C 
ENDROOT
BRANCH   1   2
ATOM      2  C   UNL     1       4.558   1.139   1.772  1.00  0.00     0.130 C 
ATOM      3  C   UNL     1       4.906   2.127   0.715  1.00  0.00     0.087 C 
ATOM      4  O   UNL     1       3.556   1.355   2.435  1.00  0.00    -0.300 OA
ENDBRANCH   1   2
BRANCH   1   5
ATOM      5  C   UNL     1       6.837   0.170   1.626  1.00  0.00     0.043 C 
BRANCH   5   6
ATOM      6  C   UNL     1       7.272  -0.745   0.556  1.00  0.00    -0.044 A 
ATOM      7  C   UNL     1       7.153  -0.402  -0.796  1.00  0.00     0.008 A 
ATOM      8  C   UNL     1       7.811  -1.969   0.883  1.00  0.00     0.054 A 
ATOM      9  C   UNL     1       7.579  -1.301  -1.756  1.00  0.00     0.051 A 
ATOM     10  C   UNL     1       8.240  -2.875  -0.092  1.00  0.00     0.166 A 
ATOM     11  C   UNL     1       8.123  -2.538  -1.422  1.00  0.00     0.165 A 
ATOM     12  O   UNL     1       8.800  -4.133  -0.025  1.00  0.00    -0.454 OA
ATOM     13  O   UNL     1       8.619  -3.607  -2.152  1.00  0.00    -0.454 OA
ATOM     14  C   UNL     1       9.142  -4.602  -1.304  1.00  0.00     0.468 C 
ENDBRANCH   5   6
ENDBRANCH   1   5
TORSDOF 3
ENDMDL
MODEL 4
REMARK VINA RESULT:      -7.1      1.224      1.399
REMARK SMILES CC(=O)CCc1ccc2c(c1)OCO2
REMARK SMILES IDX 4 1 2 2 1 3 3 4 5 5 6 6 7 7 11 8 8 9 10 10 9 11 12 12 14 13
REMARK SMILES IDX 13 14
REMARK H PARENT
REMARK Flexibility Score: inf
ROOT
ATOM      1  C   UNL     1       6.313   1.284   0.860  1.00  0.00     0.080 C 
ENDROOT
BRANCH   1   2
ATOM      2  C   UNL     1       5.654   0.455   1.907  1.00  0.00     0.130 C 
ATOM      3  C   UNL     1       6.302  -0.763   2.462  1.00  0.00     0.087 C 
ATOM      4  O   UNL     1       4.554   0.754   2.343  1.00  0.00    -0.300 OA
ENDBRANCH   1   2
BRANCH   1   5
ATOM      5  C   UNL     1       5.802   0.932  -0.523  1.00  0.00     0.043 C 
BRANCH   5   6
ATOM      6  C   UNL     1       6.780   0.128  -1.278  1.00  0.00    -0.044 A 
ATOM      7  C   UNL     1       7.514   0.672  -2.338  1.00  0.00     0.008 A 
ATOM      8  C   UNL     1       6.986  -1.190  -0.939  1.00  0.00     0.054 A 
ATOM      9  C   UNL     1       8.418  -0.130  -3.010  1.00  0.00     0.051 A 
ATOM     10  C   UNL     1       7.902  -1.997  -1.621  1.00  0.00     0.166 A 
ATOM     11  C   UNL     1       8.623  -1.463  -2.665  1.00  0.00     0.165 A 
ATOM     12  O   UNL     1       8.281  -3.315  -1.479  1.00  0.00    -0.454 OA
ATOM     13  O   UNL     1       9.440  -2.474  -3.147  1.00  0.00    -0.454 OA
ATOM     14  C   UNL     1       9.321  -3.639  -2.365  1.00  0.00     0.468 C 
ENDBRANCH   5   6
ENDBRANCH   1   5
TORSDOF 3
ENDMDL
MODEL 5
REMARK VINA RESULT:      -7.0      1.941      2.462
REMARK SMILES CC(=O)CCc1ccc2c(c1)OCO2
REMARK SMILES IDX 4 1 2 2 1 3 3 4 5 5 6 6 7 7 11 8 8 9 10 10 9 11 12 12 14 13
REMARK SMILES IDX 13 14
REMARK H PARENT
REMARK Flexibility Score: inf
ROOT
ATOM      1  C   UNL     1       6.859   1.009   1.389  1.00  0.00     0.080 C 
ENDROOT
BRANCH   1   2
ATOM      2  C   UNL     1       5.383   1.166   1.516  1.00  0.00     0.130 C 
ATOM      3  C   UNL     1       4.628   2.145   0.688  1.00  0.00     0.087 C 
ATOM      4  O   UNL     1       4.747   0.492   2.310  1.00  0.00    -0.300 OA
ENDBRANCH   1   2
BRANCH   1   5
ATOM      5  C   UNL     1       7.310   1.186  -0.047  1.00  0.00     0.043 C 
BRANCH   5   6
ATOM      6  C   UNL     1       7.630  -0.105  -0.682  1.00  0.00    -0.044 A 
ATOM      7  C   UNL     1       7.635  -0.257  -2.073  1.00  0.00     0.008 A 
ATOM      8  C   UNL     1       7.937  -1.194   0.102  1.00  0.00     0.054 A 
ATOM      9  C   UNL     1       7.944  -1.492  -2.613  1.00  0.00     0.051 A 
ATOM     10  C   UNL     1       8.249  -2.441  -0.448  1.00  0.00     0.166 A 
ATOM     11  C   UNL     1       8.253  -2.591  -1.817  1.00  0.00     0.165 A 
ATOM     12  O   UNL     1       8.582  -3.657   0.109  1.00  0.00    -0.454 OA
ATOM     13  O   UNL     1       8.592  -3.910  -2.075  1.00  0.00    -0.454 OA
ATOM     14  C   UNL     1       8.898  -4.597  -0.885  1.00  0.00     0.468 C 
ENDBRANCH   5   6
ENDBRANCH   1   5
TORSDOF 3
ENDMDL
