@<TRIPOS>MOLECULE
/home/cewinharhar/GITHUB/reincatalyze/data/processed/docking_pred/2023-May-25-1902_sub9_nm5_bs15_s42_ex16_mel10_mts10000_k50_ec01_g099_lra3e-4_lrc3e-3/2037f81c995398ea407fbfc0a5ecaefc5001139a_ligand_9.pdbqt
 14 15 0 0 0
SMALL
GASTEIGER

@<TRIPOS>ATOM
      1  C          5.8810    1.3480   -0.3010 C.3     1  UNL1        0.0800
      2  C          5.2760    1.1610    1.0480 C.2     1  UNL1        0.1300
      3  C          5.5960   -0.0220    1.8900 C.3     1  UNL1        0.0870
      4  O          4.4940    1.9800    1.5030 O.2     1  UNL1       -0.3000
      5  C          7.3950    1.3090   -0.2350 C.3     1  UNL1        0.0430
      6  C          7.9470    0.1920   -1.0220 C.2     1  UNL1       -0.0440
      7  C          7.3250   -0.2580   -2.1930 C.2     1  UNL1        0.0080
      8  C          9.1030   -0.4280   -0.6070 C.2     1  UNL1        0.0540
      9  C          7.8900   -1.3100   -2.8910 C.2     1  UNL1        0.0510
     10  C          9.6710   -1.4910   -1.3170 C.2     1  UNL1        0.1660
     11  C          9.0590   -1.9360   -2.4680 C.2     1  UNL1        0.1650
     12  O         10.7950   -2.2630   -1.1140 O.2     1  UNL1       -0.4540
     13  O          9.8290   -2.9810   -2.9530 O.2     1  UNL1       -0.4540
     14  C         10.9880   -3.1620   -2.1750 C.3     1  UNL1        0.4680
@<TRIPOS>BOND
     1    13    11    1
     2    13    14    1
     3     9    11    2
     4     9     7    1
     5    11    10    1
     6     7     6    2
     7    14    12    1
     8    10    12    1
     9    10     8    2
    10     6     8    1
    11     6     5    1
    12     1     5    1
    13     1     2    1
    14     2     4    2
    15     2     3    1
