@<TRIPOS>MOLECULE
/home/cewinharhar/GITHUB/reincatalyze/data/processed/docking_pred/2023-May-25-1902_sub9_nm5_bs15_s42_ex16_mel10_mts10000_k50_ec01_g099_lra3e-4_lrc3e-3/2037f81c995398ea407fbfc0a5ecaefc5001139a_ligand_9.pdbqt
 14 15 0 0 0
SMALL
GASTEIGER

@<TRIPOS>ATOM
      1  C          5.8050    1.5990    0.8270 C.3     1  UNL1        0.0800
      2  C          5.3800    0.5950    1.8420 C.2     1  UNL1        0.1300
      3  C          6.2620   -0.5340    2.2400 C.3     1  UNL1        0.0870
      4  O          4.2860    0.6700    2.3780 O.2     1  UNL1       -0.3000
      5  C          5.7260    1.0320   -0.5760 C.3     1  UNL1        0.0430
      6  C          6.9850    0.3770   -0.9720 C.2     1  UNL1       -0.0440
      7  C          8.2280    0.9800   -0.7450 C.2     1  UNL1        0.0080
      8  C          6.9510   -0.8580   -1.5790 C.2     1  UNL1        0.0540
      9  C          9.3770    0.3180   -1.1380 C.2     1  UNL1        0.0510
     10  C          8.1150   -1.5230   -1.9740 C.2     1  UNL1        0.1660
     11  C          9.3380   -0.9300   -1.7520 C.2     1  UNL1        0.1650
     12  O          8.3420   -2.7380   -2.5860 O.2     1  UNL1       -0.4540
     13  O         10.3000   -1.8020   -2.2360 O.2     1  UNL1       -0.4540
     14  C          9.7180   -3.0000   -2.6910 C.3     1  UNL1        0.4680
@<TRIPOS>BOND
     1    14    12    1
     2    14    13    1
     3    12    10    1
     4    13    11    1
     5    10    11    2
     6    10     8    1
     7    11     9    1
     8     8     6    2
     9     9     7    2
    10     6     7    1
    11     6     5    1
    12     5     1    1
    13     1     2    1
    14     2     3    1
    15     2     4    2
