@<TRIPOS>MOLECULE
/home/cewinharhar/GITHUB/reincatalyze/data/processed/docking_pred/2023-May-25-1902_sub9_nm5_bs15_s42_ex16_mel10_mts10000_k50_ec01_g099_lra3e-4_lrc3e-3/2037f81c995398ea407fbfc0a5ecaefc5001139a_ligand_9.pdbqt
 14 15 0 0 0
SMALL
GASTEIGER

@<TRIPOS>ATOM
      1  C          6.7100    0.2290    1.0510 C.3     1  UNL1        0.0800
      2  C          5.4390    0.9540    1.3280 C.2     1  UNL1        0.1300
      3  C          4.9790    2.0800    0.4720 C.3     1  UNL1        0.0870
      4  O          4.7330    0.6410    2.2730 O.2     1  UNL1       -0.3000
      5  C          7.4780    0.8780   -0.0840 C.3     1  UNL1        0.0430
      6  C          8.1080   -0.1240   -0.9610 C.2     1  UNL1       -0.0440
      7  C          7.6640   -0.3340   -2.2720 C.2     1  UNL1        0.0080
      8  C          9.1610   -0.8760   -0.4920 C.2     1  UNL1        0.0540
      9  C          8.2940   -1.2880   -3.0490 C.2     1  UNL1        0.0510
     10  C          9.7950   -1.8390   -1.2820 C.2     1  UNL1        0.1660
     11  C          9.3580   -2.0470   -2.5710 C.2     1  UNL1        0.1650
     12  O         10.8450   -2.7030   -1.0500 O.2     1  UNL1       -0.4540
     13  O         10.1570   -3.0430   -3.1100 O.2     1  UNL1       -0.4540
     14  C         11.1710   -3.4230   -2.2100 C.3     1  UNL1        0.4680
@<TRIPOS>BOND
     1    13    11    1
     2    13    14    1
     3     9    11    2
     4     9     7    1
     5    11    10    1
     6     7     6    2
     7    14    12    1
     8    10    12    1
     9    10     8    2
    10     6     8    1
    11     6     5    1
    12     5     1    1
    13     3     2    1
    14     1     2    1
    15     2     4    2
