@<TRIPOS>MOLECULE
/home/cewinharhar/GITHUB/reincatalyze/data/processed/docking_pred/2023-May-25-1902_sub9_nm5_bs15_s42_ex16_mel10_mts10000_k50_ec01_g099_lra3e-4_lrc3e-3/2037f81c995398ea407fbfc0a5ecaefc5001139a_ligand_9.pdbqt
 14 15 0 0 0
SMALL
GASTEIGER

@<TRIPOS>ATOM
      1  C          6.6460    0.1920    1.8480 C.3     1  UNL1        0.0800
      2  C          5.3350    0.8750    1.6650 C.2     1  UNL1        0.1300
      3  C          5.1100    1.8550    0.5690 C.3     1  UNL1        0.0870
      4  O          4.4000    0.6490    2.4170 O.2     1  UNL1       -0.3000
      5  C          6.5550   -1.2780    1.4890 C.3     1  UNL1        0.0430
      6  C          7.2760   -1.5810    0.2400 C.2     1  UNL1       -0.0440
      7  C          6.8440   -1.0830   -0.9950 C.2     1  UNL1        0.0080
      8  C          8.4030   -2.3700    0.2770 C.2     1  UNL1        0.0540
      9  C          7.5610   -1.4000   -2.1340 C.2     1  UNL1        0.0510
     10  C          9.1250   -2.6870   -0.8780 C.2     1  UNL1        0.1660
     11  C          8.7000   -2.1980   -2.0930 C.2     1  UNL1        0.1650
     12  O         10.2590   -3.4390   -1.1000 O.2     1  UNL1       -0.4540
     13  O          9.5920   -2.6650   -3.0470 O.2     1  UNL1       -0.4540
     14  C         10.6460   -3.3800   -2.4490 C.3     1  UNL1        0.4680
@<TRIPOS>BOND
     1    13    14    1
     2    13    11    1
     3    14    12    1
     4     9    11    2
     5     9     7    1
     6    11    10    1
     7    12    10    1
     8     7     6    2
     9    10     8    2
    10     6     8    1
    11     6     5    1
    12     3     2    1
    13     5     1    1
    14     2     1    1
    15     2     4    2
