MODEL 1
REMARK VINA RESULT:      -7.7      0.000      0.000
REMARK SMILES CC(=O)CCc1ccc2c(c1)OCO2
REMARK SMILES IDX 4 1 2 2 1 3 3 4 5 5 6 6 7 7 11 8 8 9 10 10 9 11 12 12 14 13
REMARK SMILES IDX 13 14
REMARK H PARENT
REMARK Flexibility Score: inf
ROOT
ATOM      1  C   UNL     1       5.530   1.940   1.252  1.00  0.00     0.080 C 
ENDROOT
BRANCH   1   2
ATOM      2  C   UNL     1       5.114   0.721   2.000  1.00  0.00     0.130 C 
ATOM      3  C   UNL     1       6.034  -0.433   2.186  1.00  0.00     0.087 C 
ATOM      4  O   UNL     1       3.997   0.633   2.485  1.00  0.00    -0.300 OA
ENDBRANCH   1   2
BRANCH   1   5
ATOM      5  C   UNL     1       5.403   1.738  -0.245  1.00  0.00     0.043 C 
BRANCH   5   6
ATOM      6  C   UNL     1       6.569   1.029  -0.801  1.00  0.00    -0.044 A 
ATOM      7  C   UNL     1       7.877   1.451  -0.538  1.00  0.00     0.008 A 
ATOM      8  C   UNL     1       6.379  -0.077  -1.598  1.00  0.00     0.054 A 
ATOM      9  C   UNL     1       8.933   0.746  -1.087  1.00  0.00     0.051 A 
ATOM     10  C   UNL     1       7.449  -0.787  -2.150  1.00  0.00     0.166 A 
ATOM     11  C   UNL     1       8.737  -0.372  -1.892  1.00  0.00     0.165 A 
ATOM     12  O   UNL     1       7.521  -1.900  -2.961  1.00  0.00    -0.454 OA
ATOM     13  O   UNL     1       9.581  -1.248  -2.557  1.00  0.00    -0.454 OA
ATOM     14  C   UNL     1       8.855  -2.285  -3.172  1.00  0.00     0.468 C 
ENDBRANCH   5   6
ENDBRANCH   1   5
TORSDOF 3
ENDMDL
MODEL 2
REMARK VINA RESULT:      -7.4      1.958      2.418
REMARK SMILES CC(=O)CCc1ccc2c(c1)OCO2
REMARK SMILES IDX 4 1 2 2 1 3 3 4 5 5 6 6 7 7 11 8 8 9 10 10 9 11 12 12 14 13
REMARK SMILES IDX 13 14
REMARK H PARENT
REMARK Flexibility Score: inf
ROOT
ATOM      1  C   UNL     1       5.733   1.212  -0.268  1.00  0.00     0.080 C 
ENDROOT
BRANCH   1   2
ATOM      2  C   UNL     1       5.187   1.179   1.118  1.00  0.00     0.130 C 
ATOM      3  C   UNL     1       5.310  -0.029   1.977  1.00  0.00     0.087 C 
ATOM      4  O   UNL     1       4.620   2.150   1.591  1.00  0.00    -0.300 OA
ENDBRANCH   1   2
BRANCH   1   5
ATOM      5  C   UNL     1       7.238   1.034  -0.272  1.00  0.00     0.043 C 
BRANCH   5   6
ATOM      6  C   UNL     1       7.634  -0.253  -0.870  1.00  0.00    -0.044 A 
ATOM      7  C   UNL     1       7.735  -0.417  -2.257  1.00  0.00     0.008 A 
ATOM      8  C   UNL     1       7.917  -1.326  -0.056  1.00  0.00     0.054 A 
ATOM      9  C   UNL     1       8.112  -1.648  -2.762  1.00  0.00     0.051 A 
ATOM     10  C   UNL     1       8.299  -2.569  -0.572  1.00  0.00     0.166 A 
ATOM     11  C   UNL     1       8.397  -2.731  -1.936  1.00  0.00     0.165 A 
ATOM     12  O   UNL     1       8.626  -3.771   0.019  1.00  0.00    -0.454 OA
ATOM     13  O   UNL     1       8.788  -4.042  -2.156  1.00  0.00    -0.454 OA
ATOM     14  C   UNL     1       9.032  -4.711  -0.942  1.00  0.00     0.468 C 
ENDBRANCH   5   6
ENDBRANCH   1   5
TORSDOF 3
ENDMDL
MODEL 3
REMARK VINA RESULT:      -7.2      2.082      2.634
REMARK SMILES CC(=O)CCc1ccc2c(c1)OCO2
REMARK SMILES IDX 4 1 2 2 1 3 3 4 5 5 6 6 7 7 11 8 8 9 10 10 9 11 12 12 14 13
REMARK SMILES IDX 13 14
REMARK H PARENT
REMARK Flexibility Score: inf
ROOT
ATOM      1  C   UNL     1       5.570  -0.035   1.960  1.00  0.00     0.080 C 
ENDROOT
BRANCH   1   2
ATOM      2  C   UNL     1       4.695   1.135   1.670  1.00  0.00     0.130 C 
ATOM      3  C   UNL     1       5.028   2.113   0.599  1.00  0.00     0.087 C 
ATOM      4  O   UNL     1       3.673   1.327   2.309  1.00  0.00    -0.300 OA
ENDBRANCH   1   2
BRANCH   1   5
ATOM      5  C   UNL     1       6.991   0.211   1.493  1.00  0.00     0.043 C 
BRANCH   5   6
ATOM      6  C   UNL     1       7.392  -0.741   0.441  1.00  0.00    -0.044 A 
ATOM      7  C   UNL     1       7.272  -0.427  -0.917  1.00  0.00     0.008 A 
ATOM      8  C   UNL     1       7.902  -1.971   0.793  1.00  0.00     0.054 A 
ATOM      9  C   UNL     1       7.666  -1.359  -1.859  1.00  0.00     0.051 A 
ATOM     10  C   UNL     1       8.299  -2.910  -0.164  1.00  0.00     0.166 A 
ATOM     11  C   UNL     1       8.180  -2.602  -1.501  1.00  0.00     0.165 A 
ATOM     12  O   UNL     1       8.826  -4.181  -0.070  1.00  0.00    -0.454 OA
ATOM     13  O   UNL     1       8.642  -3.701  -2.208  1.00  0.00    -0.454 OA
ATOM     14  C   UNL     1       9.146  -4.688  -1.340  1.00  0.00     0.468 C 
ENDBRANCH   5   6
ENDBRANCH   1   5
TORSDOF 3
ENDMDL
MODEL 4
REMARK VINA RESULT:      -7.1      1.248      1.456
REMARK SMILES CC(=O)CCc1ccc2c(c1)OCO2
REMARK SMILES IDX 4 1 2 2 1 3 3 4 5 5 6 6 7 7 11 8 8 9 10 10 9 11 12 12 14 13
REMARK SMILES IDX 13 14
REMARK H PARENT
REMARK Flexibility Score: inf
ROOT
ATOM      1  C   UNL     1       6.376   1.205   0.910  1.00  0.00     0.080 C 
ENDROOT
BRANCH   1   2
ATOM      2  C   UNL     1       5.681   0.382   1.939  1.00  0.00     0.130 C 
ATOM      3  C   UNL     1       6.294  -0.854   2.495  1.00  0.00     0.087 C 
ATOM      4  O   UNL     1       4.580   0.701   2.357  1.00  0.00    -0.300 OA
ENDBRANCH   1   2
BRANCH   1   5
ATOM      5  C   UNL     1       5.863   0.895  -0.482  1.00  0.00     0.043 C 
BRANCH   5   6
ATOM      6  C   UNL     1       6.824   0.085  -1.252  1.00  0.00    -0.044 A 
ATOM      7  C   UNL     1       7.536   0.622  -2.331  1.00  0.00     0.008 A 
ATOM      8  C   UNL     1       7.037  -1.231  -0.909  1.00  0.00     0.054 A 
ATOM      9  C   UNL     1       8.426  -0.186  -3.015  1.00  0.00     0.051 A 
ATOM     10  C   UNL     1       7.938  -2.043  -1.604  1.00  0.00     0.166 A 
ATOM     11  C   UNL     1       8.638  -1.516  -2.666  1.00  0.00     0.165 A 
ATOM     12  O   UNL     1       8.320  -3.360  -1.460  1.00  0.00    -0.454 OA
ATOM     13  O   UNL     1       9.444  -2.530  -3.157  1.00  0.00    -0.454 OA
ATOM     14  C   UNL     1       9.341  -3.690  -2.366  1.00  0.00     0.468 C 
ENDBRANCH   5   6
ENDBRANCH   1   5
TORSDOF 3
ENDMDL
MODEL 5
REMARK VINA RESULT:      -6.8      1.272      1.762
REMARK SMILES CC(=O)CCc1ccc2c(c1)OCO2
REMARK SMILES IDX 4 1 2 2 1 3 3 4 5 5 6 6 7 7 11 8 8 9 10 10 9 11 12 12 14 13
REMARK SMILES IDX 13 14
REMARK H PARENT
REMARK Flexibility Score: inf
ROOT
ATOM      1  C   UNL     1       5.338  -0.053   1.982  1.00  0.00     0.080 C 
ENDROOT
BRANCH   1   2
ATOM      2  C   UNL     1       4.442   1.120   1.785  1.00  0.00     0.130 C 
ATOM      3  C   UNL     1       4.720   2.150   0.748  1.00  0.00     0.087 C 
ATOM      4  O   UNL     1       3.446   1.271   2.474  1.00  0.00    -0.300 OA
ENDBRANCH   1   2
BRANCH   1   5
ATOM      5  C   UNL     1       6.797   0.349   1.896  1.00  0.00     0.043 C 
BRANCH   5   6
ATOM      6  C   UNL     1       7.392  -0.025   0.601  1.00  0.00    -0.044 A 
ATOM      7  C   UNL     1       7.871   0.940  -0.292  1.00  0.00     0.008 A 
ATOM      8  C   UNL     1       7.485  -1.353   0.251  1.00  0.00     0.054 A 
ATOM      9  C   UNL     1       8.419   0.529  -1.494  1.00  0.00     0.051 A 
ATOM     10  C   UNL     1       8.040  -1.763  -0.964  1.00  0.00     0.166 A 
ATOM     11  C   UNL     1       8.511  -0.814  -1.844  1.00  0.00     0.165 A 
ATOM     12  O   UNL     1       8.243  -3.002  -1.535  1.00  0.00    -0.454 OA
ATOM     13  O   UNL     1       8.999  -1.497  -2.947  1.00  0.00    -0.454 OA
ATOM     14  C   UNL     1       8.931  -2.890  -2.754  1.00  0.00     0.468 C 
ENDBRANCH   5   6
ENDBRANCH   1   5
TORSDOF 3
ENDMDL
