@<TRIPOS>MOLECULE
/home/cewinharhar/GITHUB/reincatalyze/data/processed/docking_pred/2023-May-25-1902_sub9_nm5_bs15_s42_ex16_mel10_mts10000_k50_ec01_g099_lra3e-4_lrc3e-3/21195065f8807259401ec3420f3b6dd683f2acc0_ligand_9.pdbqt
 14 15 0 0 0
SMALL
GASTEIGER

@<TRIPOS>ATOM
      1  C          5.5700   -0.0350    1.9600 C.3     1  UNL1        0.0800
      2  C          4.6950    1.1350    1.6700 C.2     1  UNL1        0.1300
      3  C          5.0280    2.1130    0.5990 C.3     1  UNL1        0.0870
      4  O          3.6730    1.3270    2.3090 O.2     1  UNL1       -0.3000
      5  C          6.9910    0.2110    1.4930 C.3     1  UNL1        0.0430
      6  C          7.3920   -0.7410    0.4410 C.2     1  UNL1       -0.0440
      7  C          7.2720   -0.4270   -0.9170 C.2     1  UNL1        0.0080
      8  C          7.9020   -1.9710    0.7930 C.2     1  UNL1        0.0540
      9  C          7.6660   -1.3590   -1.8590 C.2     1  UNL1        0.0510
     10  C          8.2990   -2.9100   -0.1640 C.2     1  UNL1        0.1660
     11  C          8.1800   -2.6020   -1.5010 C.2     1  UNL1        0.1650
     12  O          8.8260   -4.1810   -0.0700 O.2     1  UNL1       -0.4540
     13  O          8.6420   -3.7010   -2.2080 O.2     1  UNL1       -0.4540
     14  C          9.1460   -4.6880   -1.3400 C.3     1  UNL1        0.4680
@<TRIPOS>BOND
     1    13    11    1
     2    13    14    1
     3     9    11    2
     4     9     7    1
     5    11    10    1
     6    14    12    1
     7     7     6    2
     8    10    12    1
     9    10     8    2
    10     6     8    1
    11     6     5    1
    12     3     2    1
    13     5     1    1
    14     2     1    1
    15     2     4    2
