@<TRIPOS>MOLECULE
/home/cewinharhar/GITHUB/reincatalyze/data/processed/docking_pred/2023-May-25-1902_sub9_nm5_bs15_s42_ex16_mel10_mts10000_k50_ec01_g099_lra3e-4_lrc3e-3/225d7738cc918e3754e3779366d54ccb252183f1_ligand_9.pdbqt
 14 15 0 0 0
SMALL
GASTEIGER

@<TRIPOS>ATOM
      1  C          6.3630    1.2310    0.9410 C.3     1  UNL1        0.0800
      2  C          5.6460    0.3810    1.9310 C.2     1  UNL1        0.1300
      3  C          6.2690   -0.8420    2.5060 C.3     1  UNL1        0.0870
      4  O          4.5190    0.6650    2.3010 O.2     1  UNL1       -0.3000
      5  C          5.8660    0.9750   -0.4680 C.3     1  UNL1        0.0430
      6  C          6.8070    0.1410   -1.2360 C.2     1  UNL1       -0.0440
      7  C          7.4990    0.6470   -2.3430 C.2     1  UNL1        0.0080
      8  C          7.0210   -1.1670   -0.8650 C.2     1  UNL1        0.0540
      9  C          8.3710   -0.1820   -3.0260 C.2     1  UNL1        0.0510
     10  C          7.9030   -2.0010   -1.5580 C.2     1  UNL1        0.1660
     11  C          8.5840   -1.5040   -2.6470 C.2     1  UNL1        0.1650
     12  O          8.2820   -3.3160   -1.3890 O.2     1  UNL1       -0.4540
     13  O          9.3750   -2.5350   -3.1290 O.2     1  UNL1       -0.4540
     14  C          9.2830   -3.6740   -2.3070 C.3     1  UNL1        0.4680
@<TRIPOS>BOND
     1    13    11    1
     2    13    14    1
     3     9    11    2
     4     9     7    1
     5    11    10    1
     6     7     6    2
     7    14    12    1
     8    10    12    1
     9    10     8    2
    10     6     8    1
    11     6     5    1
    12     5     1    1
    13     1     2    1
    14     2     4    2
    15     2     3    1
