MODEL 1
REMARK VINA RESULT:      -7.7      0.000      0.000
REMARK SMILES CC(=O)CCc1ccc2c(c1)OCO2
REMARK SMILES IDX 4 1 2 2 1 3 3 4 5 5 6 6 7 7 11 8 8 9 10 10 9 11 12 12 14 13
REMARK SMILES IDX 13 14
REMARK H PARENT
REMARK Flexibility Score: inf
ROOT
ATOM      1  C   UNL     1       5.553   1.907   1.264  1.00  0.00     0.080 C 
ENDROOT
BRANCH   1   2
ATOM      2  C   UNL     1       5.085   0.704   2.007  1.00  0.00     0.130 C 
ATOM      3  C   UNL     1       5.950  -0.494   2.175  1.00  0.00     0.087 C 
ATOM      4  O   UNL     1       3.971   0.667   2.502  1.00  0.00    -0.300 OA
ENDBRANCH   1   2
BRANCH   1   5
ATOM      5  C   UNL     1       5.420   1.715  -0.234  1.00  0.00     0.043 C 
BRANCH   5   6
ATOM      6  C   UNL     1       6.585   1.013  -0.800  1.00  0.00    -0.044 A 
ATOM      7  C   UNL     1       7.893   1.449  -0.557  1.00  0.00     0.008 A 
ATOM      8  C   UNL     1       6.395  -0.100  -1.587  1.00  0.00     0.054 A 
ATOM      9  C   UNL     1       8.948   0.750  -1.115  1.00  0.00     0.051 A 
ATOM     10  C   UNL     1       7.465  -0.804  -2.148  1.00  0.00     0.166 A 
ATOM     11  C   UNL     1       8.752  -0.375  -1.910  1.00  0.00     0.165 A 
ATOM     12  O   UNL     1       7.537  -1.921  -2.952  1.00  0.00    -0.454 OA
ATOM     13  O   UNL     1       9.596  -1.248  -2.579  1.00  0.00    -0.454 OA
ATOM     14  C   UNL     1       8.871  -2.295  -3.178  1.00  0.00     0.468 C 
ENDBRANCH   5   6
ENDBRANCH   1   5
TORSDOF 3
ENDMDL
MODEL 2
REMARK VINA RESULT:      -7.5      1.822      2.257
REMARK SMILES CC(=O)CCc1ccc2c(c1)OCO2
REMARK SMILES IDX 4 1 2 2 1 3 3 4 5 5 6 6 7 7 11 8 8 9 10 10 9 11 12 12 14 13
REMARK SMILES IDX 13 14
REMARK H PARENT
REMARK Flexibility Score: inf
ROOT
ATOM      1  C   UNL     1       5.607   1.390  -0.216  1.00  0.00     0.080 C 
ENDROOT
BRANCH   1   2
ATOM      2  C   UNL     1       5.021   1.225   1.144  1.00  0.00     0.130 C 
ATOM      3  C   UNL     1       5.375   0.070   2.011  1.00  0.00     0.087 C 
ATOM      4  O   UNL     1       4.227   2.039   1.587  1.00  0.00    -0.300 OA
ENDBRANCH   1   2
BRANCH   1   5
ATOM      5  C   UNL     1       7.109   1.187  -0.196  1.00  0.00     0.043 C 
BRANCH   5   6
ATOM      6  C   UNL     1       7.498  -0.079  -0.843  1.00  0.00    -0.044 A 
ATOM      7  C   UNL     1       7.502  -0.219  -2.236  1.00  0.00     0.008 A 
ATOM      8  C   UNL     1       7.870  -1.154  -0.069  1.00  0.00     0.054 A 
ATOM      9  C   UNL     1       7.877  -1.431  -2.786  1.00  0.00     0.051 A 
ATOM     10  C   UNL     1       8.249  -2.377  -0.630  1.00  0.00     0.166 A 
ATOM     11  C   UNL     1       8.252  -2.517  -2.000  1.00  0.00     0.165 A 
ATOM     12  O   UNL     1       8.653  -3.577  -0.084  1.00  0.00    -0.454 OA
ATOM     13  O   UNL     1       8.664  -3.812  -2.270  1.00  0.00    -0.454 OA
ATOM     14  C   UNL     1       9.016  -4.490  -1.088  1.00  0.00     0.468 C 
ENDBRANCH   5   6
ENDBRANCH   1   5
TORSDOF 3
ENDMDL
MODEL 3
REMARK VINA RESULT:      -7.3      2.047      2.608
REMARK SMILES CC(=O)CCc1ccc2c(c1)OCO2
REMARK SMILES IDX 4 1 2 2 1 3 3 4 5 5 6 6 7 7 11 8 8 9 10 10 9 11 12 12 14 13
REMARK SMILES IDX 13 14
REMARK H PARENT
REMARK Flexibility Score: inf
ROOT
ATOM      1  C   UNL     1       5.422  -0.038   2.017  1.00  0.00     0.080 C 
ENDROOT
BRANCH   1   2
ATOM      2  C   UNL     1       4.562   1.152   1.768  1.00  0.00     0.130 C 
ATOM      3  C   UNL     1       4.893   2.148   0.713  1.00  0.00     0.087 C 
ATOM      4  O   UNL     1       3.554   1.346   2.428  1.00  0.00    -0.300 OA
ENDBRANCH   1   2
BRANCH   1   5
ATOM      5  C   UNL     1       6.853   0.218   1.590  1.00  0.00     0.043 C 
BRANCH   5   6
ATOM      6  C   UNL     1       7.281  -0.710   0.528  1.00  0.00    -0.044 A 
ATOM      7  C   UNL     1       7.168  -0.377  -0.826  1.00  0.00     0.008 A 
ATOM      8  C   UNL     1       7.809  -1.936   0.866  1.00  0.00     0.054 A 
ATOM      9  C   UNL     1       7.587  -1.288  -1.779  1.00  0.00     0.051 A 
ATOM     10  C   UNL     1       8.232  -2.853  -0.101  1.00  0.00     0.166 A 
ATOM     11  C   UNL     1       8.119  -2.527  -1.434  1.00  0.00     0.165 A 
ATOM     12  O   UNL     1       8.781  -4.116  -0.022  1.00  0.00    -0.454 OA
ATOM     13  O   UNL     1       8.608  -3.606  -2.154  1.00  0.00    -0.454 OA
ATOM     14  C   UNL     1       9.121  -4.598  -1.297  1.00  0.00     0.468 C 
ENDBRANCH   5   6
ENDBRANCH   1   5
TORSDOF 3
ENDMDL
MODEL 4
REMARK VINA RESULT:      -7.1      1.242      1.430
REMARK SMILES CC(=O)CCc1ccc2c(c1)OCO2
REMARK SMILES IDX 4 1 2 2 1 3 3 4 5 5 6 6 7 7 11 8 8 9 10 10 9 11 12 12 14 13
REMARK SMILES IDX 13 14
REMARK H PARENT
REMARK Flexibility Score: inf
ROOT
ATOM      1  C   UNL     1       6.363   1.231   0.941  1.00  0.00     0.080 C 
ENDROOT
BRANCH   1   2
ATOM      2  C   UNL     1       5.646   0.381   1.931  1.00  0.00     0.130 C 
ATOM      3  C   UNL     1       6.269  -0.842   2.506  1.00  0.00     0.087 C 
ATOM      4  O   UNL     1       4.519   0.665   2.301  1.00  0.00    -0.300 OA
ENDBRANCH   1   2
BRANCH   1   5
ATOM      5  C   UNL     1       5.866   0.975  -0.468  1.00  0.00     0.043 C 
BRANCH   5   6
ATOM      6  C   UNL     1       6.807   0.141  -1.236  1.00  0.00    -0.044 A 
ATOM      7  C   UNL     1       7.499   0.647  -2.343  1.00  0.00     0.008 A 
ATOM      8  C   UNL     1       7.021  -1.167  -0.865  1.00  0.00     0.054 A 
ATOM      9  C   UNL     1       8.371  -0.182  -3.026  1.00  0.00     0.051 A 
ATOM     10  C   UNL     1       7.903  -2.001  -1.558  1.00  0.00     0.166 A 
ATOM     11  C   UNL     1       8.584  -1.504  -2.647  1.00  0.00     0.165 A 
ATOM     12  O   UNL     1       8.282  -3.316  -1.389  1.00  0.00    -0.454 OA
ATOM     13  O   UNL     1       9.375  -2.535  -3.129  1.00  0.00    -0.454 OA
ATOM     14  C   UNL     1       9.283  -3.674  -2.307  1.00  0.00     0.468 C 
ENDBRANCH   5   6
ENDBRANCH   1   5
TORSDOF 3
ENDMDL
MODEL 5
REMARK VINA RESULT:      -7.0      1.964      2.515
REMARK SMILES CC(=O)CCc1ccc2c(c1)OCO2
REMARK SMILES IDX 4 1 2 2 1 3 3 4 5 5 6 6 7 7 11 8 8 9 10 10 9 11 12 12 14 13
REMARK SMILES IDX 13 14
REMARK H PARENT
REMARK Flexibility Score: inf
ROOT
ATOM      1  C   UNL     1       6.868   0.855   1.288  1.00  0.00     0.080 C 
ENDROOT
BRANCH   1   2
ATOM      2  C   UNL     1       5.416   1.091   1.523  1.00  0.00     0.130 C 
ATOM      3  C   UNL     1       4.669   2.150   0.793  1.00  0.00     0.087 C 
ATOM      4  O   UNL     1       4.794   0.417   2.327  1.00  0.00    -0.300 OA
ENDBRANCH   1   2
BRANCH   1   5
ATOM      5  C   UNL     1       7.223   1.019  -0.177  1.00  0.00     0.043 C 
BRANCH   5   6
ATOM      6  C   UNL     1       7.587  -0.266  -0.798  1.00  0.00    -0.044 A 
ATOM      7  C   UNL     1       7.609  -0.429  -2.188  1.00  0.00     0.008 A 
ATOM      8  C   UNL     1       7.917  -1.340  -0.002  1.00  0.00     0.054 A 
ATOM      9  C   UNL     1       7.960  -1.658  -2.715  1.00  0.00     0.051 A 
ATOM     10  C   UNL     1       8.271  -2.581  -0.539  1.00  0.00     0.166 A 
ATOM     11  C   UNL     1       8.292  -2.742  -1.907  1.00  0.00     0.165 A 
ATOM     12  O   UNL     1       8.634  -3.783   0.031  1.00  0.00    -0.454 OA
ATOM     13  O   UNL     1       8.672  -4.052  -2.151  1.00  0.00    -0.454 OA
ATOM     14  C   UNL     1       8.987  -4.721  -0.953  1.00  0.00     0.468 C 
ENDBRANCH   5   6
ENDBRANCH   1   5
TORSDOF 3
ENDMDL
