@<TRIPOS>MOLECULE
/home/cewinharhar/GITHUB/reincatalyze/data/processed/docking_pred/2023-May-25-1902_sub9_nm5_bs15_s42_ex16_mel10_mts10000_k50_ec01_g099_lra3e-4_lrc3e-3/225d7738cc918e3754e3779366d54ccb252183f1_ligand_9.pdbqt
 14 15 0 0 0
SMALL
GASTEIGER

@<TRIPOS>ATOM
      1  C          6.8680    0.8550    1.2880 C.3     1  UNL1        0.0800
      2  C          5.4160    1.0910    1.5230 C.2     1  UNL1        0.1300
      3  C          4.6690    2.1500    0.7930 C.3     1  UNL1        0.0870
      4  O          4.7940    0.4170    2.3270 O.2     1  UNL1       -0.3000
      5  C          7.2230    1.0190   -0.1770 C.3     1  UNL1        0.0430
      6  C          7.5870   -0.2660   -0.7980 C.2     1  UNL1       -0.0440
      7  C          7.6090   -0.4290   -2.1880 C.2     1  UNL1        0.0080
      8  C          7.9170   -1.3400   -0.0020 C.2     1  UNL1        0.0540
      9  C          7.9600   -1.6580   -2.7150 C.2     1  UNL1        0.0510
     10  C          8.2710   -2.5810   -0.5390 C.2     1  UNL1        0.1660
     11  C          8.2920   -2.7420   -1.9070 C.2     1  UNL1        0.1650
     12  O          8.6340   -3.7830    0.0310 O.2     1  UNL1       -0.4540
     13  O          8.6720   -4.0520   -2.1510 O.2     1  UNL1       -0.4540
     14  C          8.9870   -4.7210   -0.9530 C.3     1  UNL1        0.4680
@<TRIPOS>BOND
     1     9     7    1
     2     9    11    2
     3     7     6    2
     4    13    11    1
     5    13    14    1
     6    11    10    1
     7    14    12    1
     8     6     5    1
     9     6     8    1
    10    10     8    2
    11    10    12    1
    12     5     1    1
    13     3     2    1
    14     1     2    1
    15     2     4    2
