@<TRIPOS>MOLECULE
/home/cewinharhar/GITHUB/reincatalyze/data/processed/docking_pred/2023-May-25-1902_sub9_nm5_bs15_s42_ex16_mel10_mts10000_k50_ec01_g099_lra3e-4_lrc3e-3/225d7738cc918e3754e3779366d54ccb252183f1_ligand_9.pdbqt
 14 15 0 0 0
SMALL
GASTEIGER

@<TRIPOS>ATOM
      1  C          5.4220   -0.0380    2.0170 C.3     1  UNL1        0.0800
      2  C          4.5620    1.1520    1.7680 C.2     1  UNL1        0.1300
      3  C          4.8930    2.1480    0.7130 C.3     1  UNL1        0.0870
      4  O          3.5540    1.3460    2.4280 O.2     1  UNL1       -0.3000
      5  C          6.8530    0.2180    1.5900 C.3     1  UNL1        0.0430
      6  C          7.2810   -0.7100    0.5280 C.2     1  UNL1       -0.0440
      7  C          7.1680   -0.3770   -0.8260 C.2     1  UNL1        0.0080
      8  C          7.8090   -1.9360    0.8660 C.2     1  UNL1        0.0540
      9  C          7.5870   -1.2880   -1.7790 C.2     1  UNL1        0.0510
     10  C          8.2320   -2.8530   -0.1010 C.2     1  UNL1        0.1660
     11  C          8.1190   -2.5270   -1.4340 C.2     1  UNL1        0.1650
     12  O          8.7810   -4.1160   -0.0220 O.2     1  UNL1       -0.4540
     13  O          8.6080   -3.6060   -2.1540 O.2     1  UNL1       -0.4540
     14  C          9.1210   -4.5980   -1.2970 C.3     1  UNL1        0.4680
@<TRIPOS>BOND
     1    13    11    1
     2    13    14    1
     3     9    11    2
     4     9     7    1
     5    11    10    1
     6    14    12    1
     7     7     6    2
     8    10    12    1
     9    10     8    2
    10     6     8    1
    11     6     5    1
    12     3     2    1
    13     5     1    1
    14     2     1    1
    15     2     4    2
