@<TRIPOS>MOLECULE
/home/cewinharhar/GITHUB/reincatalyze/data/processed/docking_pred/2023-May-25-1902_sub9_nm5_bs15_s42_ex16_mel10_mts10000_k50_ec01_g099_lra3e-4_lrc3e-3/225d7738cc918e3754e3779366d54ccb252183f1_ligand_9.pdbqt
 14 15 0 0 0
SMALL
GASTEIGER

@<TRIPOS>ATOM
      1  C          5.6070    1.3900   -0.2160 C.3     1  UNL1        0.0800
      2  C          5.0210    1.2250    1.1440 C.2     1  UNL1        0.1300
      3  C          5.3750    0.0700    2.0110 C.3     1  UNL1        0.0870
      4  O          4.2270    2.0390    1.5870 O.2     1  UNL1       -0.3000
      5  C          7.1090    1.1870   -0.1960 C.3     1  UNL1        0.0430
      6  C          7.4980   -0.0790   -0.8430 C.2     1  UNL1       -0.0440
      7  C          7.5020   -0.2190   -2.2360 C.2     1  UNL1        0.0080
      8  C          7.8700   -1.1540   -0.0690 C.2     1  UNL1        0.0540
      9  C          7.8770   -1.4310   -2.7860 C.2     1  UNL1        0.0510
     10  C          8.2490   -2.3770   -0.6300 C.2     1  UNL1        0.1660
     11  C          8.2520   -2.5170   -2.0000 C.2     1  UNL1        0.1650
     12  O          8.6530   -3.5770   -0.0840 O.2     1  UNL1       -0.4540
     13  O          8.6640   -3.8120   -2.2700 O.2     1  UNL1       -0.4540
     14  C          9.0160   -4.4900   -1.0880 C.3     1  UNL1        0.4680
@<TRIPOS>BOND
     1     9     7    1
     2     9    11    2
     3    13    11    1
     4    13    14    1
     5     7     6    2
     6    11    10    1
     7    14    12    1
     8     6     5    1
     9     6     8    1
    10    10    12    1
    11    10     8    2
    12     1     5    1
    13     1     2    1
    14     2     4    2
    15     2     3    1
