@<TRIPOS>MOLECULE
/home/cewinharhar/GITHUB/reincatalyze/data/processed/docking_pred/2023-May-25-1902_sub9_nm5_bs15_s42_ex16_mel10_mts10000_k50_ec01_g099_lra3e-4_lrc3e-3/225d7738cc918e3754e3779366d54ccb252183f1_ligand_9.pdbqt
 14 15 0 0 0
SMALL
GASTEIGER

@<TRIPOS>ATOM
      1  C          5.5530    1.9070    1.2640 C.3     1  UNL1        0.0800
      2  C          5.0850    0.7040    2.0070 C.2     1  UNL1        0.1300
      3  C          5.9500   -0.4940    2.1750 C.3     1  UNL1        0.0870
      4  O          3.9710    0.6670    2.5020 O.2     1  UNL1       -0.3000
      5  C          5.4200    1.7150   -0.2340 C.3     1  UNL1        0.0430
      6  C          6.5850    1.0130   -0.8000 C.2     1  UNL1       -0.0440
      7  C          7.8930    1.4490   -0.5570 C.2     1  UNL1        0.0080
      8  C          6.3950   -0.1000   -1.5870 C.2     1  UNL1        0.0540
      9  C          8.9480    0.7500   -1.1150 C.2     1  UNL1        0.0510
     10  C          7.4650   -0.8040   -2.1480 C.2     1  UNL1        0.1660
     11  C          8.7520   -0.3750   -1.9100 C.2     1  UNL1        0.1650
     12  O          7.5370   -1.9210   -2.9520 O.2     1  UNL1       -0.4540
     13  O          9.5960   -1.2480   -2.5790 O.2     1  UNL1       -0.4540
     14  C          8.8710   -2.2950   -3.1780 C.3     1  UNL1        0.4680
@<TRIPOS>BOND
     1    14    12    1
     2    14    13    1
     3    12    10    1
     4    13    11    1
     5    10    11    2
     6    10     8    1
     7    11     9    1
     8     8     6    2
     9     9     7    2
    10     6     7    1
    11     6     5    1
    12     5     1    1
    13     1     2    1
    14     2     3    1
    15     2     4    2
