@<TRIPOS>MOLECULE
/home/cewinharhar/GITHUB/reincatalyze/data/processed/docking_pred/2023-May-25-1902_sub9_nm5_bs15_s42_ex16_mel10_mts10000_k50_ec01_g099_lra3e-4_lrc3e-3/2368d29bb7bbfa5e31d33bb3936e2ea89938fe66_ligand_9.pdbqt
 14 15 0 0 0
SMALL
GASTEIGER

@<TRIPOS>ATOM
      1  C          5.5940    1.4190   -0.2220 C.3     1  UNL1        0.0800
      2  C          5.0580    1.2710    1.1600 C.2     1  UNL1        0.1300
      3  C          5.4930    0.1620    2.0510 C.3     1  UNL1        0.0870
      4  O          4.2410    2.0610    1.6040 O.2     1  UNL1       -0.3000
      5  C          7.0990    1.2420   -0.2510 C.3     1  UNL1        0.0430
      6  C          7.4870   -0.0290   -0.8870 C.2     1  UNL1       -0.0440
      7  C          7.5090   -0.1770   -2.2780 C.2     1  UNL1        0.0080
      8  C          7.8420   -1.1030   -0.1030 C.2     1  UNL1        0.0540
      9  C          7.8830   -1.3940   -2.8180 C.2     1  UNL1        0.0510
     10  C          8.2200   -2.3320   -0.6530 C.2     1  UNL1        0.1660
     11  C          8.2400   -2.4780   -2.0220 C.2     1  UNL1        0.1650
     12  O          8.6090   -3.5310   -0.0960 O.2     1  UNL1       -0.4540
     13  O          8.6470   -3.7780   -2.2800 O.2     1  UNL1       -0.4540
     14  C          8.9780   -4.4530   -1.0900 C.3     1  UNL1        0.4680
@<TRIPOS>BOND
     1     9     7    1
     2     9    11    2
     3    13    11    1
     4    13    14    1
     5     7     6    2
     6    11    10    1
     7    14    12    1
     8     6     5    1
     9     6     8    1
    10    10     8    2
    11    10    12    1
    12     5     1    1
    13     1     2    1
    14     2     4    2
    15     2     3    1
