@<TRIPOS>MOLECULE
/home/cewinharhar/GITHUB/reincatalyze/data/processed/docking_pred/2023-May-25-1902_sub9_nm5_bs15_s42_ex16_mel10_mts10000_k50_ec01_g099_lra3e-4_lrc3e-3/2368d29bb7bbfa5e31d33bb3936e2ea89938fe66_ligand_9.pdbqt
 14 15 0 0 0
SMALL
GASTEIGER

@<TRIPOS>ATOM
      1  C          5.4560   -0.0480    1.9940 C.3     1  UNL1        0.0800
      2  C          4.5950    1.1450    1.7580 C.2     1  UNL1        0.1300
      3  C          4.9050    2.1330    0.6900 C.3     1  UNL1        0.0870
      4  O          3.6040    1.3470    2.4400 O.2     1  UNL1       -0.3000
      5  C          6.8850    0.2100    1.5590 C.3     1  UNL1        0.0430
      6  C          7.3020   -0.7040    0.4810 C.2     1  UNL1       -0.0440
      7  C          7.1530   -0.3620   -0.8680 C.2     1  UNL1        0.0080
      8  C          7.8530   -1.9250    0.7970 C.2     1  UNL1        0.0540
      9  C          7.5630   -1.2600   -1.8370 C.2     1  UNL1        0.0510
     10  C          8.2670   -2.8290   -0.1860 C.2     1  UNL1        0.1660
     11  C          8.1200   -2.4940   -1.5140 C.2     1  UNL1        0.1650
     12  O          8.8340   -4.0840   -0.1300 O.2     1  UNL1       -0.4540
     13  O          8.6060   -3.5610   -2.2530 O.2     1  UNL1       -0.4540
     14  C          9.1520   -4.5520   -1.4150 C.3     1  UNL1        0.4680
@<TRIPOS>BOND
     1    13    11    1
     2    13    14    1
     3     9    11    2
     4     9     7    1
     5    11    10    1
     6    14    12    1
     7     7     6    2
     8    10    12    1
     9    10     8    2
    10     6     8    1
    11     6     5    1
    12     3     2    1
    13     5     1    1
    14     2     1    1
    15     2     4    2
