@<TRIPOS>MOLECULE
/home/cewinharhar/GITHUB/reincatalyze/data/processed/docking_pred/2023-May-25-1902_sub9_nm5_bs15_s42_ex16_mel10_mts10000_k50_ec01_g099_lra3e-4_lrc3e-3/2368d29bb7bbfa5e31d33bb3936e2ea89938fe66_ligand_9.pdbqt
 14 15 0 0 0
SMALL
GASTEIGER

@<TRIPOS>ATOM
      1  C          6.9460    0.9100    1.2510 C.3     1  UNL1        0.0800
      2  C          5.4970    1.1950    1.4430 C.2     1  UNL1        0.1300
      3  C          4.7660    2.1500    0.5670 C.3     1  UNL1        0.0870
      4  O          4.8630    0.6500    2.3320 O.2     1  UNL1       -0.3000
      5  C          7.3520    1.0740   -0.2000 C.3     1  UNL1        0.0430
      6  C          7.6780   -0.2190   -0.8260 C.2     1  UNL1       -0.0440
      7  C          7.6640   -0.3850   -2.2160 C.2     1  UNL1        0.0080
      8  C          8.0080   -1.2960   -0.0350 C.2     1  UNL1        0.0540
      9  C          7.9800   -1.6220   -2.7470 C.2     1  UNL1        0.0510
     10  C          8.3280   -2.5450   -0.5770 C.2     1  UNL1        0.1660
     11  C          8.3130   -2.7090   -1.9440 C.2     1  UNL1        0.1650
     12  O          8.6830   -3.7510   -0.0120 O.2     1  UNL1       -0.4540
     13  O          8.6640   -4.0270   -2.1930 O.2     1  UNL1       -0.4540
     14  C          8.9950   -4.6980   -1.0010 C.3     1  UNL1        0.4680
@<TRIPOS>BOND
     1     9     7    1
     2     9    11    2
     3     7     6    2
     4    13    11    1
     5    13    14    1
     6    11    10    1
     7    14    12    1
     8     6     5    1
     9     6     8    1
    10    10     8    2
    11    10    12    1
    12     5     1    1
    13     3     2    1
    14     1     2    1
    15     2     4    2
