MODEL 1
REMARK VINA RESULT:      -7.5      0.000      0.000
REMARK SMILES CC(=O)CCc1ccc2c(c1)OCO2
REMARK SMILES IDX 4 1 2 2 1 3 3 4 5 5 6 6 7 7 11 8 8 9 10 10 9 11 12 12 14 13
REMARK SMILES IDX 13 14
REMARK H PARENT
REMARK Flexibility Score: inf
ROOT
ATOM      1  C   UNL     1       5.544   1.910   1.278  1.00  0.00     0.080 C 
ENDROOT
BRANCH   1   2
ATOM      2  C   UNL     1       5.113   0.688   2.012  1.00  0.00     0.130 C 
ATOM      3  C   UNL     1       6.017  -0.481   2.181  1.00  0.00     0.087 C 
ATOM      4  O   UNL     1       3.996   0.610   2.499  1.00  0.00    -0.300 OA
ENDBRANCH   1   2
BRANCH   1   5
ATOM      5  C   UNL     1       5.414   1.727  -0.221  1.00  0.00     0.043 C 
BRANCH   5   6
ATOM      6  C   UNL     1       6.578   1.023  -0.788  1.00  0.00    -0.044 A 
ATOM      7  C   UNL     1       7.887   1.451  -0.538  1.00  0.00     0.008 A 
ATOM      8  C   UNL     1       6.385  -0.085  -1.582  1.00  0.00     0.054 A 
ATOM      9  C   UNL     1       8.941   0.750  -1.096  1.00  0.00     0.051 A 
ATOM     10  C   UNL     1       7.454  -0.790  -2.144  1.00  0.00     0.166 A 
ATOM     11  C   UNL     1       8.742  -0.369  -1.899  1.00  0.00     0.165 A 
ATOM     12  O   UNL     1       7.523  -1.903  -2.955  1.00  0.00    -0.454 OA
ATOM     13  O   UNL     1       9.584  -1.241  -2.571  1.00  0.00    -0.454 OA
ATOM     14  C   UNL     1       8.856  -2.282  -3.179  1.00  0.00     0.468 C 
ENDBRANCH   5   6
ENDBRANCH   1   5
TORSDOF 3
ENDMDL
MODEL 2
REMARK VINA RESULT:      -7.2      1.804      2.244
REMARK SMILES CC(=O)CCc1ccc2c(c1)OCO2
REMARK SMILES IDX 4 1 2 2 1 3 3 4 5 5 6 6 7 7 11 8 8 9 10 10 9 11 12 12 14 13
REMARK SMILES IDX 13 14
REMARK H PARENT
REMARK Flexibility Score: inf
ROOT
ATOM      1  C   UNL     1       5.594   1.419  -0.222  1.00  0.00     0.080 C 
ENDROOT
BRANCH   1   2
ATOM      2  C   UNL     1       5.058   1.271   1.160  1.00  0.00     0.130 C 
ATOM      3  C   UNL     1       5.493   0.162   2.051  1.00  0.00     0.087 C 
ATOM      4  O   UNL     1       4.241   2.061   1.604  1.00  0.00    -0.300 OA
ENDBRANCH   1   2
BRANCH   1   5
ATOM      5  C   UNL     1       7.099   1.242  -0.251  1.00  0.00     0.043 C 
BRANCH   5   6
ATOM      6  C   UNL     1       7.487  -0.029  -0.887  1.00  0.00    -0.044 A 
ATOM      7  C   UNL     1       7.509  -0.177  -2.278  1.00  0.00     0.008 A 
ATOM      8  C   UNL     1       7.842  -1.103  -0.103  1.00  0.00     0.054 A 
ATOM      9  C   UNL     1       7.883  -1.394  -2.818  1.00  0.00     0.051 A 
ATOM     10  C   UNL     1       8.220  -2.332  -0.653  1.00  0.00     0.166 A 
ATOM     11  C   UNL     1       8.240  -2.478  -2.022  1.00  0.00     0.165 A 
ATOM     12  O   UNL     1       8.609  -3.531  -0.096  1.00  0.00    -0.454 OA
ATOM     13  O   UNL     1       8.647  -3.778  -2.280  1.00  0.00    -0.454 OA
ATOM     14  C   UNL     1       8.978  -4.453  -1.090  1.00  0.00     0.468 C 
ENDBRANCH   5   6
ENDBRANCH   1   5
TORSDOF 3
ENDMDL
MODEL 3
REMARK VINA RESULT:      -7.0      1.246      1.457
REMARK SMILES CC(=O)CCc1ccc2c(c1)OCO2
REMARK SMILES IDX 4 1 2 2 1 3 3 4 5 5 6 6 7 7 11 8 8 9 10 10 9 11 12 12 14 13
REMARK SMILES IDX 13 14
REMARK H PARENT
REMARK Flexibility Score: inf
ROOT
ATOM      1  C   UNL     1       6.391   1.188   0.919  1.00  0.00     0.080 C 
ENDROOT
BRANCH   1   2
ATOM      2  C   UNL     1       5.671   0.363   1.929  1.00  0.00     0.130 C 
ATOM      3  C   UNL     1       6.280  -0.861   2.514  1.00  0.00     0.087 C 
ATOM      4  O   UNL     1       4.552   0.671   2.307  1.00  0.00    -0.300 OA
ENDBRANCH   1   2
BRANCH   1   5
ATOM      5  C   UNL     1       5.882   0.911  -0.482  1.00  0.00     0.043 C 
BRANCH   5   6
ATOM      6  C   UNL     1       6.833   0.095  -1.258  1.00  0.00    -0.044 A 
ATOM      7  C   UNL     1       7.532   0.623  -2.349  1.00  0.00     0.008 A 
ATOM      8  C   UNL     1       7.047  -1.219  -0.908  1.00  0.00     0.054 A 
ATOM      9  C   UNL     1       8.413  -0.191  -3.039  1.00  0.00     0.051 A 
ATOM     10  C   UNL     1       7.939  -2.037  -1.608  1.00  0.00     0.166 A 
ATOM     11  C   UNL     1       8.627  -1.519  -2.683  1.00  0.00     0.165 A 
ATOM     12  O   UNL     1       8.320  -3.354  -1.460  1.00  0.00    -0.454 OA
ATOM     13  O   UNL     1       9.426  -2.538  -3.177  1.00  0.00    -0.454 OA
ATOM     14  C   UNL     1       9.330  -3.692  -2.376  1.00  0.00     0.468 C 
ENDBRANCH   5   6
ENDBRANCH   1   5
TORSDOF 3
ENDMDL
MODEL 4
REMARK VINA RESULT:      -7.0      2.016      2.580
REMARK SMILES CC(=O)CCc1ccc2c(c1)OCO2
REMARK SMILES IDX 4 1 2 2 1 3 3 4 5 5 6 6 7 7 11 8 8 9 10 10 9 11 12 12 14 13
REMARK SMILES IDX 13 14
REMARK H PARENT
REMARK Flexibility Score: inf
ROOT
ATOM      1  C   UNL     1       5.456  -0.048   1.994  1.00  0.00     0.080 C 
ENDROOT
BRANCH   1   2
ATOM      2  C   UNL     1       4.595   1.145   1.758  1.00  0.00     0.130 C 
ATOM      3  C   UNL     1       4.905   2.133   0.690  1.00  0.00     0.087 C 
ATOM      4  O   UNL     1       3.604   1.347   2.440  1.00  0.00    -0.300 OA
ENDBRANCH   1   2
BRANCH   1   5
ATOM      5  C   UNL     1       6.885   0.210   1.559  1.00  0.00     0.043 C 
BRANCH   5   6
ATOM      6  C   UNL     1       7.302  -0.704   0.481  1.00  0.00    -0.044 A 
ATOM      7  C   UNL     1       7.153  -0.362  -0.868  1.00  0.00     0.008 A 
ATOM      8  C   UNL     1       7.853  -1.925   0.797  1.00  0.00     0.054 A 
ATOM      9  C   UNL     1       7.563  -1.260  -1.837  1.00  0.00     0.051 A 
ATOM     10  C   UNL     1       8.267  -2.829  -0.186  1.00  0.00     0.166 A 
ATOM     11  C   UNL     1       8.120  -2.494  -1.514  1.00  0.00     0.165 A 
ATOM     12  O   UNL     1       8.834  -4.084  -0.130  1.00  0.00    -0.454 OA
ATOM     13  O   UNL     1       8.606  -3.561  -2.253  1.00  0.00    -0.454 OA
ATOM     14  C   UNL     1       9.152  -4.552  -1.415  1.00  0.00     0.468 C 
ENDBRANCH   5   6
ENDBRANCH   1   5
TORSDOF 3
ENDMDL
MODEL 5
REMARK VINA RESULT:      -6.8      1.950      2.525
REMARK SMILES CC(=O)CCc1ccc2c(c1)OCO2
REMARK SMILES IDX 4 1 2 2 1 3 3 4 5 5 6 6 7 7 11 8 8 9 10 10 9 11 12 12 14 13
REMARK SMILES IDX 13 14
REMARK H PARENT
REMARK Flexibility Score: inf
ROOT
ATOM      1  C   UNL     1       6.946   0.910   1.251  1.00  0.00     0.080 C 
ENDROOT
BRANCH   1   2
ATOM      2  C   UNL     1       5.497   1.195   1.443  1.00  0.00     0.130 C 
ATOM      3  C   UNL     1       4.766   2.150   0.567  1.00  0.00     0.087 C 
ATOM      4  O   UNL     1       4.863   0.650   2.332  1.00  0.00    -0.300 OA
ENDBRANCH   1   2
BRANCH   1   5
ATOM      5  C   UNL     1       7.352   1.074  -0.200  1.00  0.00     0.043 C 
BRANCH   5   6
ATOM      6  C   UNL     1       7.678  -0.219  -0.826  1.00  0.00    -0.044 A 
ATOM      7  C   UNL     1       7.664  -0.385  -2.216  1.00  0.00     0.008 A 
ATOM      8  C   UNL     1       8.008  -1.296  -0.035  1.00  0.00     0.054 A 
ATOM      9  C   UNL     1       7.980  -1.622  -2.747  1.00  0.00     0.051 A 
ATOM     10  C   UNL     1       8.328  -2.545  -0.577  1.00  0.00     0.166 A 
ATOM     11  C   UNL     1       8.313  -2.709  -1.944  1.00  0.00     0.165 A 
ATOM     12  O   UNL     1       8.683  -3.751  -0.012  1.00  0.00    -0.454 OA
ATOM     13  O   UNL     1       8.664  -4.027  -2.193  1.00  0.00    -0.454 OA
ATOM     14  C   UNL     1       8.995  -4.698  -1.001  1.00  0.00     0.468 C 
ENDBRANCH   5   6
ENDBRANCH   1   5
TORSDOF 3
ENDMDL
