@<TRIPOS>MOLECULE
/home/cewinharhar/GITHUB/reincatalyze/data/processed/docking_pred/2023-May-25-1902_sub9_nm5_bs15_s42_ex16_mel10_mts10000_k50_ec01_g099_lra3e-4_lrc3e-3/24731d809f1a519c36ca3c9a2574e1987901b3bd_ligand_9.pdbqt
 14 15 0 0 0
SMALL
GASTEIGER

@<TRIPOS>ATOM
      1  C          5.5730    1.8980    1.2870 C.3     1  UNL1        0.0800
      2  C          5.1330    0.6780    2.0190 C.2     1  UNL1        0.1300
      3  C          6.0350   -0.4900    2.2030 C.3     1  UNL1        0.0870
      4  O          4.0110    0.6010    2.4920 O.2     1  UNL1       -0.3000
      5  C          5.4350    1.7200   -0.2120 C.3     1  UNL1        0.0430
      6  C          6.5940    1.0140   -0.7880 C.2     1  UNL1       -0.0440
      7  C          7.9050    1.4440   -0.5530 C.2     1  UNL1        0.0080
      8  C          6.3940   -0.0980   -1.5740 C.2     1  UNL1        0.0540
      9  C          8.9530    0.7420   -1.1180 C.2     1  UNL1        0.0510
     10  C          7.4570   -0.8050   -2.1430 C.2     1  UNL1        0.1660
     11  C          8.7470   -0.3820   -1.9140 C.2     1  UNL1        0.1650
     12  O          7.5190   -1.9220   -2.9500 O.2     1  UNL1       -0.4540
     13  O          9.5830   -1.2570   -2.5900 O.2     1  UNL1       -0.4540
     14  C          8.8500   -2.3010   -3.1850 C.3     1  UNL1        0.4680
@<TRIPOS>BOND
     1    14    12    1
     2    14    13    1
     3    12    10    1
     4    13    11    1
     5    10    11    2
     6    10     8    1
     7    11     9    1
     8     8     6    2
     9     9     7    2
    10     6     7    1
    11     6     5    1
    12     5     1    1
    13     1     2    1
    14     2     3    1
    15     2     4    2
