@<TRIPOS>MOLECULE
/home/cewinharhar/GITHUB/reincatalyze/data/processed/docking_pred/2023-May-25-1902_sub9_nm5_bs15_s42_ex16_mel10_mts10000_k50_ec01_g099_lra3e-4_lrc3e-3/256f3744e8749e754cc005b5ddd24f9a686f82e7_ligand_9.pdbqt
 14 15 0 0 0
SMALL
GASTEIGER

@<TRIPOS>ATOM
      1  C          6.6860    0.6250    1.1260 C.3     1  UNL1        0.0800
      2  C          5.3030    1.1160    1.3820 C.2     1  UNL1        0.1300
      3  C          4.6700    2.1500    0.5200 C.3     1  UNL1        0.0870
      4  O          4.6460    0.6820    2.3140 O.2     1  UNL1       -0.3000
      5  C          7.0670    0.7880   -0.3320 C.3     1  UNL1        0.0430
      6  C          7.5340   -0.4800   -0.9200 C.2     1  UNL1       -0.0440
      7  C          7.6430   -0.6500   -2.3050 C.2     1  UNL1        0.0080
      8  C          7.8780   -1.5280   -0.0970 C.2     1  UNL1        0.0540
      9  C          8.0880   -1.8620   -2.8000 C.2     1  UNL1        0.0510
     10  C          8.3280   -2.7520   -0.6010 C.2     1  UNL1        0.1660
     11  C          8.4330   -2.9200   -1.9640 C.2     1  UNL1        0.1650
     12  O          8.7230   -3.9280   -0.0010 O.2     1  UNL1       -0.4540
     13  O          8.8970   -4.2100   -2.1740 O.2     1  UNL1       -0.4540
     14  C          9.1800   -4.8530   -0.9540 C.3     1  UNL1        0.4680
@<TRIPOS>BOND
     1     9     7    1
     2     9    11    2
     3     7     6    2
     4    13    11    1
     5    13    14    1
     6    11    10    1
     7    14    12    1
     8     6     5    1
     9     6     8    1
    10    10     8    2
    11    10    12    1
    12     5     1    1
    13     3     2    1
    14     1     2    1
    15     2     4    2
