MODEL 1
REMARK VINA RESULT:      -7.6      0.000      0.000
REMARK SMILES CC(=O)CCc1ccc2c(c1)OCO2
REMARK SMILES IDX 4 1 2 2 1 3 3 4 5 5 6 6 7 7 11 8 8 9 10 10 9 11 12 12 14 13
REMARK SMILES IDX 13 14
REMARK H PARENT
REMARK Flexibility Score: inf
ROOT
ATOM      1  C   UNL     1       5.606   1.860   1.288  1.00  0.00     0.080 C 
ENDROOT
BRANCH   1   2
ATOM      2  C   UNL     1       5.156   0.651   2.033  1.00  0.00     0.130 C 
ATOM      3  C   UNL     1       6.046  -0.525   2.222  1.00  0.00     0.087 C 
ATOM      4  O   UNL     1       4.035   0.592   2.513  1.00  0.00    -0.300 OA
ENDBRANCH   1   2
BRANCH   1   5
ATOM      5  C   UNL     1       5.453   1.672  -0.209  1.00  0.00     0.043 C 
BRANCH   5   6
ATOM      6  C   UNL     1       6.612   0.974  -0.793  1.00  0.00    -0.044 A 
ATOM      7  C   UNL     1       7.921   1.421  -0.579  1.00  0.00     0.008 A 
ATOM      8  C   UNL     1       6.415  -0.147  -1.567  1.00  0.00     0.054 A 
ATOM      9  C   UNL     1       8.970   0.725  -1.152  1.00  0.00     0.051 A 
ATOM     10  C   UNL     1       7.478  -0.847  -2.143  1.00  0.00     0.166 A 
ATOM     11  C   UNL     1       8.767  -0.408  -1.934  1.00  0.00     0.165 A 
ATOM     12  O   UNL     1       7.542  -1.970  -2.940  1.00  0.00    -0.454 OA
ATOM     13  O   UNL     1       9.603  -1.280  -2.613  1.00  0.00    -0.454 OA
ATOM     14  C   UNL     1       8.874  -2.337  -3.190  1.00  0.00     0.468 C 
ENDBRANCH   5   6
ENDBRANCH   1   5
TORSDOF 3
ENDMDL
MODEL 2
REMARK VINA RESULT:      -7.4      1.887      2.320
REMARK SMILES CC(=O)CCc1ccc2c(c1)OCO2
REMARK SMILES IDX 4 1 2 2 1 3 3 4 5 5 6 6 7 7 11 8 8 9 10 10 9 11 12 12 14 13
REMARK SMILES IDX 13 14
REMARK H PARENT
REMARK Flexibility Score: inf
ROOT
ATOM      1  C   UNL     1       5.751   1.410  -0.203  1.00  0.00     0.080 C 
ENDROOT
BRANCH   1   2
ATOM      2  C   UNL     1       5.099   1.256   1.127  1.00  0.00     0.130 C 
ATOM      3  C   UNL     1       5.395   0.098   2.013  1.00  0.00     0.087 C 
ATOM      4  O   UNL     1       4.295   2.081   1.530  1.00  0.00    -0.300 OA
ENDBRANCH   1   2
BRANCH   1   5
ATOM      5  C   UNL     1       7.239   1.129  -0.122  1.00  0.00     0.043 C 
BRANCH   5   6
ATOM      6  C   UNL     1       7.589  -0.151  -0.763  1.00  0.00    -0.044 A 
ATOM      7  C   UNL     1       7.605  -0.293  -2.155  1.00  0.00     0.008 A 
ATOM      8  C   UNL     1       7.913  -1.238   0.016  1.00  0.00     0.054 A 
ATOM      9  C   UNL     1       7.942  -1.518  -2.701  1.00  0.00     0.051 A 
ATOM     10  C   UNL     1       8.254  -2.475  -0.540  1.00  0.00     0.166 A 
ATOM     11  C   UNL     1       8.268  -2.616  -1.910  1.00  0.00     0.165 A 
ATOM     12  O   UNL     1       8.608  -3.688   0.011  1.00  0.00    -0.454 OA
ATOM     13  O   UNL     1       8.636  -3.926  -2.174  1.00  0.00    -0.454 OA
ATOM     14  C   UNL     1       8.949  -4.615  -0.987  1.00  0.00     0.468 C 
ENDBRANCH   5   6
ENDBRANCH   1   5
TORSDOF 3
ENDMDL
MODEL 3
REMARK VINA RESULT:      -7.1      2.061      2.593
REMARK SMILES CC(=O)CCc1ccc2c(c1)OCO2
REMARK SMILES IDX 4 1 2 2 1 3 3 4 5 5 6 6 7 7 11 8 8 9 10 10 9 11 12 12 14 13
REMARK SMILES IDX 13 14
REMARK H PARENT
REMARK Flexibility Score: inf
ROOT
ATOM      1  C   UNL     1       5.568   0.004   1.942  1.00  0.00     0.080 C 
ENDROOT
BRANCH   1   2
ATOM      2  C   UNL     1       4.685   1.160   1.623  1.00  0.00     0.130 C 
ATOM      3  C   UNL     1       5.004   2.104   0.519  1.00  0.00     0.087 C 
ATOM      4  O   UNL     1       3.667   1.367   2.264  1.00  0.00    -0.300 OA
ENDBRANCH   1   2
BRANCH   1   5
ATOM      5  C   UNL     1       6.988   0.249   1.471  1.00  0.00     0.043 C 
BRANCH   5   6
ATOM      6  C   UNL     1       7.390  -0.710   0.427  1.00  0.00    -0.044 A 
ATOM      7  C   UNL     1       7.290  -0.397  -0.934  1.00  0.00     0.008 A 
ATOM      8  C   UNL     1       7.878  -1.946   0.786  1.00  0.00     0.054 A 
ATOM      9  C   UNL     1       7.683  -1.336  -1.869  1.00  0.00     0.051 A 
ATOM     10  C   UNL     1       8.275  -2.892  -0.163  1.00  0.00     0.166 A 
ATOM     11  C   UNL     1       8.177  -2.585  -1.502  1.00  0.00     0.165 A 
ATOM     12  O   UNL     1       8.785  -4.169  -0.061  1.00  0.00    -0.454 OA
ATOM     13  O   UNL     1       8.633  -3.691  -2.202  1.00  0.00    -0.454 OA
ATOM     14  C   UNL     1       9.113  -4.683  -1.327  1.00  0.00     0.468 C 
ENDBRANCH   5   6
ENDBRANCH   1   5
TORSDOF 3
ENDMDL
MODEL 4
REMARK VINA RESULT:      -7.1      1.215      1.374
REMARK SMILES CC(=O)CCc1ccc2c(c1)OCO2
REMARK SMILES IDX 4 1 2 2 1 3 3 4 5 5 6 6 7 7 11 8 8 9 10 10 9 11 12 12 14 13
REMARK SMILES IDX 13 14
REMARK H PARENT
REMARK Flexibility Score: inf
ROOT
ATOM      1  C   UNL     1       6.327   1.217   0.928  1.00  0.00     0.080 C 
ENDROOT
BRANCH   1   2
ATOM      2  C   UNL     1       5.647   0.368   1.945  1.00  0.00     0.130 C 
ATOM      3  C   UNL     1       6.289  -0.854   2.498  1.00  0.00     0.087 C 
ATOM      4  O   UNL     1       4.534   0.653   2.357  1.00  0.00    -0.300 OA
ENDBRANCH   1   2
BRANCH   1   5
ATOM      5  C   UNL     1       5.817   0.920  -0.468  1.00  0.00     0.043 C 
BRANCH   5   6
ATOM      6  C   UNL     1       6.780   0.117  -1.242  1.00  0.00    -0.044 A 
ATOM      7  C   UNL     1       7.480   0.657  -2.327  1.00  0.00     0.008 A 
ATOM      8  C   UNL     1       7.005  -1.197  -0.898  1.00  0.00     0.054 A 
ATOM      9  C   UNL     1       8.372  -0.145  -3.016  1.00  0.00     0.051 A 
ATOM     10  C   UNL     1       7.908  -2.003  -1.597  1.00  0.00     0.166 A 
ATOM     11  C   UNL     1       8.597  -1.472  -2.665  1.00  0.00     0.165 A 
ATOM     12  O   UNL     1       8.302  -3.316  -1.454  1.00  0.00    -0.454 OA
ATOM     13  O   UNL     1       9.408  -2.481  -3.160  1.00  0.00    -0.454 OA
ATOM     14  C   UNL     1       9.320  -3.640  -2.366  1.00  0.00     0.468 C 
ENDBRANCH   5   6
ENDBRANCH   1   5
TORSDOF 3
ENDMDL
MODEL 5
REMARK VINA RESULT:      -7.0      1.976      2.586
REMARK SMILES CC(=O)CCc1ccc2c(c1)OCO2
REMARK SMILES IDX 4 1 2 2 1 3 3 4 5 5 6 6 7 7 11 8 8 9 10 10 9 11 12 12 14 13
REMARK SMILES IDX 13 14
REMARK H PARENT
REMARK Flexibility Score: inf
ROOT
ATOM      1  C   UNL     1       6.686   0.625   1.126  1.00  0.00     0.080 C 
ENDROOT
BRANCH   1   2
ATOM      2  C   UNL     1       5.303   1.116   1.382  1.00  0.00     0.130 C 
ATOM      3  C   UNL     1       4.670   2.150   0.520  1.00  0.00     0.087 C 
ATOM      4  O   UNL     1       4.646   0.682   2.314  1.00  0.00    -0.300 OA
ENDBRANCH   1   2
BRANCH   1   5
ATOM      5  C   UNL     1       7.067   0.788  -0.332  1.00  0.00     0.043 C 
BRANCH   5   6
ATOM      6  C   UNL     1       7.534  -0.480  -0.920  1.00  0.00    -0.044 A 
ATOM      7  C   UNL     1       7.643  -0.650  -2.305  1.00  0.00     0.008 A 
ATOM      8  C   UNL     1       7.878  -1.528  -0.097  1.00  0.00     0.054 A 
ATOM      9  C   UNL     1       8.088  -1.862  -2.800  1.00  0.00     0.051 A 
ATOM     10  C   UNL     1       8.328  -2.752  -0.601  1.00  0.00     0.166 A 
ATOM     11  C   UNL     1       8.433  -2.920  -1.964  1.00  0.00     0.165 A 
ATOM     12  O   UNL     1       8.723  -3.928  -0.001  1.00  0.00    -0.454 OA
ATOM     13  O   UNL     1       8.897  -4.210  -2.174  1.00  0.00    -0.454 OA
ATOM     14  C   UNL     1       9.180  -4.853  -0.954  1.00  0.00     0.468 C 
ENDBRANCH   5   6
ENDBRANCH   1   5
TORSDOF 3
ENDMDL
