@<TRIPOS>MOLECULE
/home/cewinharhar/GITHUB/reincatalyze/data/processed/docking_pred/2023-May-25-1902_sub9_nm5_bs15_s42_ex16_mel10_mts10000_k50_ec01_g099_lra3e-4_lrc3e-3/256f3744e8749e754cc005b5ddd24f9a686f82e7_ligand_9.pdbqt
 14 15 0 0 0
SMALL
GASTEIGER

@<TRIPOS>ATOM
      1  C          5.6060    1.8600    1.2880 C.3     1  UNL1        0.0800
      2  C          5.1560    0.6510    2.0330 C.2     1  UNL1        0.1300
      3  C          6.0460   -0.5250    2.2220 C.3     1  UNL1        0.0870
      4  O          4.0350    0.5920    2.5130 O.2     1  UNL1       -0.3000
      5  C          5.4530    1.6720   -0.2090 C.3     1  UNL1        0.0430
      6  C          6.6120    0.9740   -0.7930 C.2     1  UNL1       -0.0440
      7  C          7.9210    1.4210   -0.5790 C.2     1  UNL1        0.0080
      8  C          6.4150   -0.1470   -1.5670 C.2     1  UNL1        0.0540
      9  C          8.9700    0.7250   -1.1520 C.2     1  UNL1        0.0510
     10  C          7.4780   -0.8470   -2.1430 C.2     1  UNL1        0.1660
     11  C          8.7670   -0.4080   -1.9340 C.2     1  UNL1        0.1650
     12  O          7.5420   -1.9700   -2.9400 O.2     1  UNL1       -0.4540
     13  O          9.6030   -1.2800   -2.6130 O.2     1  UNL1       -0.4540
     14  C          8.8740   -2.3370   -3.1900 C.3     1  UNL1        0.4680
@<TRIPOS>BOND
     1    14    12    1
     2    14    13    1
     3    12    10    1
     4    13    11    1
     5    10    11    2
     6    10     8    1
     7    11     9    1
     8     8     6    2
     9     9     7    2
    10     6     7    1
    11     6     5    1
    12     5     1    1
    13     1     2    1
    14     2     3    1
    15     2     4    2
