MODEL 1
REMARK VINA RESULT:      -7.7      0.000      0.000
REMARK SMILES CC(=O)CCc1ccc2c(c1)OCO2
REMARK SMILES IDX 4 1 2 2 1 3 3 4 5 5 6 6 7 7 11 8 8 9 10 10 9 11 12 12 14 13
REMARK SMILES IDX 13 14
REMARK H PARENT
REMARK Flexibility Score: inf
ROOT
ATOM      1  C   UNL     1       5.509   1.935   1.254  1.00  0.00     0.080 C 
ENDROOT
BRANCH   1   2
ATOM      2  C   UNL     1       5.088   0.716   1.999  1.00  0.00     0.130 C 
ATOM      3  C   UNL     1       6.001  -0.445   2.176  1.00  0.00     0.087 C 
ATOM      4  O   UNL     1       3.974   0.634   2.489  1.00  0.00    -0.300 OA
ENDBRANCH   1   2
BRANCH   1   5
ATOM      5  C   UNL     1       5.385   1.735  -0.243  1.00  0.00     0.043 C 
BRANCH   5   6
ATOM      6  C   UNL     1       6.553   1.028  -0.799  1.00  0.00    -0.044 A 
ATOM      7  C   UNL     1       7.860   1.454  -0.537  1.00  0.00     0.008 A 
ATOM      8  C   UNL     1       6.365  -0.079  -1.595  1.00  0.00     0.054 A 
ATOM      9  C   UNL     1       8.917   0.751  -1.085  1.00  0.00     0.051 A 
ATOM     10  C   UNL     1       7.438  -0.787  -2.146  1.00  0.00     0.166 A 
ATOM     11  C   UNL     1       8.724  -0.368  -1.890  1.00  0.00     0.165 A 
ATOM     12  O   UNL     1       7.512  -1.900  -2.957  1.00  0.00    -0.454 OA
ATOM     13  O   UNL     1       9.571  -1.242  -2.554  1.00  0.00    -0.454 OA
ATOM     14  C   UNL     1       8.847  -2.282  -3.168  1.00  0.00     0.468 C 
ENDBRANCH   5   6
ENDBRANCH   1   5
TORSDOF 3
ENDMDL
MODEL 2
REMARK VINA RESULT:      -7.5      1.967      2.427
REMARK SMILES CC(=O)CCc1ccc2c(c1)OCO2
REMARK SMILES IDX 4 1 2 2 1 3 3 4 5 5 6 6 7 7 11 8 8 9 10 10 9 11 12 12 14 13
REMARK SMILES IDX 13 14
REMARK H PARENT
REMARK Flexibility Score: inf
ROOT
ATOM      1  C   UNL     1       5.738   1.275  -0.271  1.00  0.00     0.080 C 
ENDROOT
BRANCH   1   2
ATOM      2  C   UNL     1       5.180   1.239   1.110  1.00  0.00     0.130 C 
ATOM      3  C   UNL     1       5.446   0.102   2.031  1.00  0.00     0.087 C 
ATOM      4  O   UNL     1       4.483   2.150   1.528  1.00  0.00    -0.300 OA
ENDBRANCH   1   2
BRANCH   1   5
ATOM      5  C   UNL     1       7.240   1.068  -0.263  1.00  0.00     0.043 C 
BRANCH   5   6
ATOM      6  C   UNL     1       7.615  -0.231  -0.849  1.00  0.00    -0.044 A 
ATOM      7  C   UNL     1       7.678  -0.420  -2.235  1.00  0.00     0.008 A 
ATOM      8  C   UNL     1       7.916  -1.291  -0.024  1.00  0.00     0.054 A 
ATOM      9  C   UNL     1       8.037  -1.661  -2.728  1.00  0.00     0.051 A 
ATOM     10  C   UNL     1       8.279  -2.544  -0.527  1.00  0.00     0.166 A 
ATOM     11  C   UNL     1       8.340  -2.730  -1.890  1.00  0.00     0.165 A 
ATOM     12  O   UNL     1       8.619  -3.736   0.076  1.00  0.00    -0.454 OA
ATOM     13  O   UNL     1       8.720  -4.047  -2.098  1.00  0.00    -0.454 OA
ATOM     14  C   UNL     1       8.996  -4.695  -0.879  1.00  0.00     0.468 C 
ENDBRANCH   5   6
ENDBRANCH   1   5
TORSDOF 3
ENDMDL
MODEL 3
REMARK VINA RESULT:      -7.3      2.056      2.631
REMARK SMILES CC(=O)CCc1ccc2c(c1)OCO2
REMARK SMILES IDX 4 1 2 2 1 3 3 4 5 5 6 6 7 7 11 8 8 9 10 10 9 11 12 12 14 13
REMARK SMILES IDX 13 14
REMARK H PARENT
REMARK Flexibility Score: inf
ROOT
ATOM      1  C   UNL     1       5.420  -0.060   2.019  1.00  0.00     0.080 C 
ENDROOT
BRANCH   1   2
ATOM      2  C   UNL     1       4.567   1.137   1.772  1.00  0.00     0.130 C 
ATOM      3  C   UNL     1       4.907   2.134   0.722  1.00  0.00     0.087 C 
ATOM      4  O   UNL     1       3.559   1.334   2.430  1.00  0.00    -0.300 OA
ENDBRANCH   1   2
BRANCH   1   5
ATOM      5  C   UNL     1       6.854   0.190   1.597  1.00  0.00     0.043 C 
BRANCH   5   6
ATOM      6  C   UNL     1       7.280  -0.737   0.533  1.00  0.00    -0.044 A 
ATOM      7  C   UNL     1       7.153  -0.406  -0.821  1.00  0.00     0.008 A 
ATOM      8  C   UNL     1       7.819  -1.958   0.868  1.00  0.00     0.054 A 
ATOM      9  C   UNL     1       7.571  -1.316  -1.776  1.00  0.00     0.051 A 
ATOM     10  C   UNL     1       8.240  -2.874  -0.101  1.00  0.00     0.166 A 
ATOM     11  C   UNL     1       8.115  -2.550  -1.434  1.00  0.00     0.165 A 
ATOM     12  O   UNL     1       8.799  -4.132  -0.025  1.00  0.00    -0.454 OA
ATOM     13  O   UNL     1       8.605  -3.627  -2.156  1.00  0.00    -0.454 OA
ATOM     14  C   UNL     1       9.132  -4.614  -1.302  1.00  0.00     0.468 C 
ENDBRANCH   5   6
ENDBRANCH   1   5
TORSDOF 3
ENDMDL
MODEL 4
REMARK VINA RESULT:      -7.2      1.260      1.475
REMARK SMILES CC(=O)CCc1ccc2c(c1)OCO2
REMARK SMILES IDX 4 1 2 2 1 3 3 4 5 5 6 6 7 7 11 8 8 9 10 10 9 11 12 12 14 13
REMARK SMILES IDX 13 14
REMARK H PARENT
REMARK Flexibility Score: inf
ROOT
ATOM      1  C   UNL     1       6.390   1.215   0.922  1.00  0.00     0.080 C 
ENDROOT
BRANCH   1   2
ATOM      2  C   UNL     1       5.662   0.394   1.930  1.00  0.00     0.130 C 
ATOM      3  C   UNL     1       6.266  -0.828   2.524  1.00  0.00     0.087 C 
ATOM      4  O   UNL     1       4.541   0.704   2.298  1.00  0.00    -0.300 OA
ENDBRANCH   1   2
BRANCH   1   5
ATOM      5  C   UNL     1       5.888   0.937  -0.481  1.00  0.00     0.043 C 
BRANCH   5   6
ATOM      6  C   UNL     1       6.833   0.104  -1.245  1.00  0.00    -0.044 A 
ATOM      7  C   UNL     1       7.526   0.608  -2.352  1.00  0.00     0.008 A 
ATOM      8  C   UNL     1       7.050  -1.202  -0.868  1.00  0.00     0.054 A 
ATOM      9  C   UNL     1       8.401  -0.221  -3.030  1.00  0.00     0.051 A 
ATOM     10  C   UNL     1       7.937  -2.036  -1.556  1.00  0.00     0.166 A 
ATOM     11  C   UNL     1       8.618  -1.541  -2.646  1.00  0.00     0.165 A 
ATOM     12  O   UNL     1       8.319  -3.349  -1.382  1.00  0.00    -0.454 OA
ATOM     13  O   UNL     1       9.413  -2.571  -3.123  1.00  0.00    -0.454 OA
ATOM     14  C   UNL     1       9.323  -3.707  -2.297  1.00  0.00     0.468 C 
ENDBRANCH   5   6
ENDBRANCH   1   5
TORSDOF 3
ENDMDL
MODEL 5
REMARK VINA RESULT:      -7.1      1.956      2.525
REMARK SMILES CC(=O)CCc1ccc2c(c1)OCO2
REMARK SMILES IDX 4 1 2 2 1 3 3 4 5 5 6 6 7 7 11 8 8 9 10 10 9 11 12 12 14 13
REMARK SMILES IDX 13 14
REMARK H PARENT
REMARK Flexibility Score: inf
ROOT
ATOM      1  C   UNL     1       6.899   0.890   1.240  1.00  0.00     0.080 C 
ENDROOT
BRANCH   1   2
ATOM      2  C   UNL     1       5.441   1.134   1.430  1.00  0.00     0.130 C 
ATOM      3  C   UNL     1       4.708   2.150   0.629  1.00  0.00     0.087 C 
ATOM      4  O   UNL     1       4.803   0.501   2.257  1.00  0.00    -0.300 OA
ENDBRANCH   1   2
BRANCH   1   5
ATOM      5  C   UNL     1       7.298   1.053  -0.213  1.00  0.00     0.043 C 
BRANCH   5   6
ATOM      6  C   UNL     1       7.637  -0.240  -0.835  1.00  0.00    -0.044 A 
ATOM      7  C   UNL     1       7.670  -0.398  -2.225  1.00  0.00     0.008 A 
ATOM      8  C   UNL     1       7.933  -1.323  -0.039  1.00  0.00     0.054 A 
ATOM      9  C   UNL     1       7.996  -1.635  -2.752  1.00  0.00     0.051 A 
ATOM     10  C   UNL     1       8.262  -2.571  -0.576  1.00  0.00     0.166 A 
ATOM     11  C   UNL     1       8.294  -2.728  -1.944  1.00  0.00     0.165 A 
ATOM     12  O   UNL     1       8.589  -3.783  -0.006  1.00  0.00    -0.454 OA
ATOM     13  O   UNL     1       8.644  -4.047  -2.187  1.00  0.00    -0.454 OA
ATOM     14  C   UNL     1       8.929  -4.727  -0.988  1.00  0.00     0.468 C 
ENDBRANCH   5   6
ENDBRANCH   1   5
TORSDOF 3
ENDMDL
