@<TRIPOS>MOLECULE
/home/cewinharhar/GITHUB/reincatalyze/data/processed/docking_pred/2023-May-25-1902_sub9_nm5_bs15_s42_ex16_mel10_mts10000_k50_ec01_g099_lra3e-4_lrc3e-3/25ea22f039de2039e6eb222be1b9c38742a73e8b_ligand_9.pdbqt
 14 15 0 0 0
SMALL
GASTEIGER

@<TRIPOS>ATOM
      1  C          5.4200   -0.0600    2.0190 C.3     1  UNL1        0.0800
      2  C          4.5670    1.1370    1.7720 C.2     1  UNL1        0.1300
      3  C          4.9070    2.1340    0.7220 C.3     1  UNL1        0.0870
      4  O          3.5590    1.3340    2.4300 O.2     1  UNL1       -0.3000
      5  C          6.8540    0.1900    1.5970 C.3     1  UNL1        0.0430
      6  C          7.2800   -0.7370    0.5330 C.2     1  UNL1       -0.0440
      7  C          7.1530   -0.4060   -0.8210 C.2     1  UNL1        0.0080
      8  C          7.8190   -1.9580    0.8680 C.2     1  UNL1        0.0540
      9  C          7.5710   -1.3160   -1.7760 C.2     1  UNL1        0.0510
     10  C          8.2400   -2.8740   -0.1010 C.2     1  UNL1        0.1660
     11  C          8.1150   -2.5500   -1.4340 C.2     1  UNL1        0.1650
     12  O          8.7990   -4.1320   -0.0250 O.2     1  UNL1       -0.4540
     13  O          8.6050   -3.6270   -2.1560 O.2     1  UNL1       -0.4540
     14  C          9.1320   -4.6140   -1.3020 C.3     1  UNL1        0.4680
@<TRIPOS>BOND
     1    13    11    1
     2    13    14    1
     3     9    11    2
     4     9     7    1
     5    11    10    1
     6    14    12    1
     7     7     6    2
     8    10    12    1
     9    10     8    2
    10     6     8    1
    11     6     5    1
    12     3     2    1
    13     5     1    1
    14     2     1    1
    15     2     4    2
