@<TRIPOS>MOLECULE
/home/cewinharhar/GITHUB/reincatalyze/data/processed/docking_pred/2023-May-25-1902_sub9_nm5_bs15_s42_ex16_mel10_mts10000_k50_ec01_g099_lra3e-4_lrc3e-3/25fd2f55844bdf9fb92a90adf0bdb598f7a2ad59_ligand_9.pdbqt
 14 15 0 0 0
SMALL
GASTEIGER

@<TRIPOS>ATOM
      1  C          5.5810    1.7140    1.1490 C.3     1  UNL1        0.0800
      2  C          5.0480    0.5440    1.9020 C.2     1  UNL1        0.1300
      3  C          5.7540   -0.7650    1.9120 C.3     1  UNL1        0.0870
      4  O          4.0090    0.6280    2.5360 O.2     1  UNL1       -0.3000
      5  C          5.4790    1.4980   -0.3480 C.3     1  UNL1        0.0430
      6  C          6.7280    0.9520   -0.9080 C.2     1  UNL1       -0.0440
      7  C          7.9810    1.4420   -0.5210 C.2     1  UNL1        0.0080
      8  C          6.6740   -0.0670   -1.8320 C.2     1  UNL1        0.0540
      9  C          9.1190    0.8900   -1.0800 C.2     1  UNL1        0.0510
     10  C          7.8280   -0.6220   -2.3940 C.2     1  UNL1        0.1660
     11  C          9.0600   -0.1390   -2.0140 C.2     1  UNL1        0.1650
     12  O          8.0350   -1.6240   -3.3170 O.2     1  UNL1       -0.4540
     13  O         10.0090   -0.8630   -2.7200 O.2     1  UNL1       -0.4540
     14  C          9.4060   -1.8760   -3.4890 C.3     1  UNL1        0.4680
@<TRIPOS>BOND
     1    14    12    1
     2    14    13    1
     3    12    10    1
     4    13    11    1
     5    10    11    2
     6    10     8    1
     7    11     9    1
     8     8     6    2
     9     9     7    2
    10     6     7    1
    11     6     5    1
    12     5     1    1
    13     1     2    1
    14     2     3    1
    15     2     4    2
