@<TRIPOS>MOLECULE
/home/cewinharhar/GITHUB/reincatalyze/data/processed/docking_pred/2023-May-25-1902_sub9_nm5_bs15_s42_ex16_mel10_mts10000_k50_ec01_g099_lra3e-4_lrc3e-3/287d700aa29cdd08db1558ad291e1b5912b75232_ligand_9.pdbqt
 14 15 0 0 0
SMALL
GASTEIGER

@<TRIPOS>ATOM
      1  C          5.5720    1.8910    1.2880 C.3     1  UNL1        0.0800
      2  C          5.1290    0.6720    2.0210 C.2     1  UNL1        0.1300
      3  C          6.0270   -0.4990    2.2050 C.3     1  UNL1        0.0870
      4  O          4.0060    0.5990    2.4950 O.2     1  UNL1       -0.3000
      5  C          5.4330    1.7120   -0.2110 C.3     1  UNL1        0.0430
      6  C          6.5910    1.0040   -0.7860 C.2     1  UNL1       -0.0440
      7  C          7.9030    1.4360   -0.5550 C.2     1  UNL1        0.0080
      8  C          6.3900   -0.1100   -1.5680 C.2     1  UNL1        0.0540
      9  C          8.9500    0.7310   -1.1200 C.2     1  UNL1        0.0510
     10  C          7.4530   -0.8190   -2.1370 C.2     1  UNL1        0.1660
     11  C          8.7430   -0.3950   -1.9110 C.2     1  UNL1        0.1650
     12  O          7.5120   -1.9390   -2.9390 O.2     1  UNL1       -0.4540
     13  O          9.5770   -1.2720   -2.5860 O.2     1  UNL1       -0.4540
     14  C          8.8440   -2.3190   -3.1760 C.3     1  UNL1        0.4680
@<TRIPOS>BOND
     1    14    12    1
     2    14    13    1
     3    12    10    1
     4    13    11    1
     5    10    11    2
     6    10     8    1
     7    11     9    1
     8     8     6    2
     9     9     7    2
    10     6     7    1
    11     6     5    1
    12     5     1    1
    13     1     2    1
    14     2     3    1
    15     2     4    2
