MODEL 1
REMARK VINA RESULT:      -7.6      0.000      0.000
REMARK SMILES CC(=O)CCc1ccc2c(c1)OCO2
REMARK SMILES IDX 4 1 2 2 1 3 3 4 5 5 6 6 7 7 11 8 8 9 10 10 9 11 12 12 14 13
REMARK SMILES IDX 13 14
REMARK H PARENT
REMARK Flexibility Score: inf
ROOT
ATOM      1  C   UNL     1       5.572   1.891   1.288  1.00  0.00     0.080 C 
ENDROOT
BRANCH   1   2
ATOM      2  C   UNL     1       5.129   0.672   2.021  1.00  0.00     0.130 C 
ATOM      3  C   UNL     1       6.027  -0.499   2.205  1.00  0.00     0.087 C 
ATOM      4  O   UNL     1       4.006   0.599   2.495  1.00  0.00    -0.300 OA
ENDBRANCH   1   2
BRANCH   1   5
ATOM      5  C   UNL     1       5.433   1.712  -0.211  1.00  0.00     0.043 C 
BRANCH   5   6
ATOM      6  C   UNL     1       6.591   1.004  -0.786  1.00  0.00    -0.044 A 
ATOM      7  C   UNL     1       7.903   1.436  -0.555  1.00  0.00     0.008 A 
ATOM      8  C   UNL     1       6.390  -0.110  -1.568  1.00  0.00     0.054 A 
ATOM      9  C   UNL     1       8.950   0.731  -1.120  1.00  0.00     0.051 A 
ATOM     10  C   UNL     1       7.453  -0.819  -2.137  1.00  0.00     0.166 A 
ATOM     11  C   UNL     1       8.743  -0.395  -1.911  1.00  0.00     0.165 A 
ATOM     12  O   UNL     1       7.512  -1.939  -2.939  1.00  0.00    -0.454 OA
ATOM     13  O   UNL     1       9.577  -1.272  -2.586  1.00  0.00    -0.454 OA
ATOM     14  C   UNL     1       8.844  -2.319  -3.176  1.00  0.00     0.468 C 
ENDBRANCH   5   6
ENDBRANCH   1   5
TORSDOF 3
ENDMDL
MODEL 2
REMARK VINA RESULT:      -7.2      1.739      2.131
REMARK SMILES CC(=O)CCc1ccc2c(c1)OCO2
REMARK SMILES IDX 4 1 2 2 1 3 3 4 5 5 6 6 7 7 11 8 8 9 10 10 9 11 12 12 14 13
REMARK SMILES IDX 13 14
REMARK H PARENT
REMARK Flexibility Score: inf
ROOT
ATOM      1  C   UNL     1       5.657   1.659   0.033  1.00  0.00     0.080 C 
ENDROOT
BRANCH   1   2
ATOM      2  C   UNL     1       4.946   1.273   1.283  1.00  0.00     0.130 C 
ATOM      3  C   UNL     1       5.387   0.116   2.107  1.00  0.00     0.087 C 
ATOM      4  O   UNL     1       3.972   1.899   1.669  1.00  0.00    -0.300 OA
ENDBRANCH   1   2
BRANCH   1   5
ATOM      5  C   UNL     1       7.130   1.309   0.107  1.00  0.00     0.043 C 
BRANCH   5   6
ATOM      6  C   UNL     1       7.437   0.074  -0.635  1.00  0.00    -0.044 A 
ATOM      7  C   UNL     1       7.290  -0.003  -2.024  1.00  0.00     0.008 A 
ATOM      8  C   UNL     1       7.883  -1.037   0.045  1.00  0.00     0.054 A 
ATOM      9  C   UNL     1       7.594  -1.189  -2.667  1.00  0.00     0.051 A 
ATOM     10  C   UNL     1       8.189  -2.234  -0.610  1.00  0.00     0.166 A 
ATOM     11  C   UNL     1       8.043  -2.310  -1.977  1.00  0.00     0.165 A 
ATOM     12  O   UNL     1       8.641  -3.459  -0.167  1.00  0.00    -0.454 OA
ATOM     13  O   UNL     1       8.414  -3.593  -2.349  1.00  0.00    -0.454 OA
ATOM     14  C   UNL     1       8.886  -4.326  -1.244  1.00  0.00     0.468 C 
ENDBRANCH   5   6
ENDBRANCH   1   5
TORSDOF 3
ENDMDL
MODEL 3
REMARK VINA RESULT:      -7.1      2.067      2.589
REMARK SMILES CC(=O)CCc1ccc2c(c1)OCO2
REMARK SMILES IDX 4 1 2 2 1 3 3 4 5 5 6 6 7 7 11 8 8 9 10 10 9 11 12 12 14 13
REMARK SMILES IDX 13 14
REMARK H PARENT
REMARK Flexibility Score: inf
ROOT
ATOM      1  C   UNL     1       5.557  -0.003   1.969  1.00  0.00     0.080 C 
ENDROOT
BRANCH   1   2
ATOM      2  C   UNL     1       4.685   1.161   1.647  1.00  0.00     0.130 C 
ATOM      3  C   UNL     1       4.989   2.075   0.515  1.00  0.00     0.087 C 
ATOM      4  O   UNL     1       3.688   1.398   2.310  1.00  0.00    -0.300 OA
ENDBRANCH   1   2
BRANCH   1   5
ATOM      5  C   UNL     1       6.988   0.245   1.534  1.00  0.00     0.043 C 
BRANCH   5   6
ATOM      6  C   UNL     1       7.409  -0.695   0.480  1.00  0.00    -0.044 A 
ATOM      7  C   UNL     1       7.364  -0.346  -0.875  1.00  0.00     0.008 A 
ATOM      8  C   UNL     1       7.861  -1.949   0.825  1.00  0.00     0.054 A 
ATOM      9  C   UNL     1       7.773  -1.269  -1.820  1.00  0.00     0.051 A 
ATOM     10  C   UNL     1       8.274  -2.878  -0.134  1.00  0.00     0.166 A 
ATOM     11  C   UNL     1       8.230  -2.536  -1.467  1.00  0.00     0.165 A 
ATOM     12  O   UNL     1       8.756  -4.167  -0.048  1.00  0.00    -0.454 OA
ATOM     13  O   UNL     1       8.690  -3.633  -2.179  1.00  0.00    -0.454 OA
ATOM     14  C   UNL     1       9.120  -4.656  -1.313  1.00  0.00     0.468 C 
ENDBRANCH   5   6
ENDBRANCH   1   5
TORSDOF 3
ENDMDL
MODEL 4
REMARK VINA RESULT:      -7.1      1.231      1.411
REMARK SMILES CC(=O)CCc1ccc2c(c1)OCO2
REMARK SMILES IDX 4 1 2 2 1 3 3 4 5 5 6 6 7 7 11 8 8 9 10 10 9 11 12 12 14 13
REMARK SMILES IDX 13 14
REMARK H PARENT
REMARK Flexibility Score: inf
ROOT
ATOM      1  C   UNL     1       6.332   1.269   0.858  1.00  0.00     0.080 C 
ENDROOT
BRANCH   1   2
ATOM      2  C   UNL     1       5.665   0.455   1.912  1.00  0.00     0.130 C 
ATOM      3  C   UNL     1       6.303  -0.762   2.481  1.00  0.00     0.087 C 
ATOM      4  O   UNL     1       4.566   0.767   2.342  1.00  0.00    -0.300 OA
ENDBRANCH   1   2
BRANCH   1   5
ATOM      5  C   UNL     1       5.815   0.913  -0.522  1.00  0.00     0.043 C 
BRANCH   5   6
ATOM      6  C   UNL     1       6.788   0.105  -1.279  1.00  0.00    -0.044 A 
ATOM      7  C   UNL     1       7.506   0.641  -2.354  1.00  0.00     0.008 A 
ATOM      8  C   UNL     1       7.005  -1.208  -0.927  1.00  0.00     0.054 A 
ATOM      9  C   UNL     1       8.407  -0.164  -3.027  1.00  0.00     0.051 A 
ATOM     10  C   UNL     1       7.918  -2.017  -1.611  1.00  0.00     0.166 A 
ATOM     11  C   UNL     1       8.624  -1.491  -2.669  1.00  0.00     0.165 A 
ATOM     12  O   UNL     1       8.306  -3.331  -1.458  1.00  0.00    -0.454 OA
ATOM     13  O   UNL     1       9.441  -2.503  -3.149  1.00  0.00    -0.454 OA
ATOM     14  C   UNL     1       9.337  -3.660  -2.353  1.00  0.00     0.468 C 
ENDBRANCH   5   6
ENDBRANCH   1   5
TORSDOF 3
ENDMDL
MODEL 5
REMARK VINA RESULT:      -6.9      1.936      2.526
REMARK SMILES CC(=O)CCc1ccc2c(c1)OCO2
REMARK SMILES IDX 4 1 2 2 1 3 3 4 5 5 6 6 7 7 11 8 8 9 10 10 9 11 12 12 14 13
REMARK SMILES IDX 13 14
REMARK H PARENT
REMARK Flexibility Score: inf
ROOT
ATOM      1  C   UNL     1       6.903   0.875   0.988  1.00  0.00     0.080 C 
ENDROOT
BRANCH   1   2
ATOM      2  C   UNL     1       5.495   1.104   1.415  1.00  0.00     0.130 C 
ATOM      3  C   UNL     1       4.647   2.150   0.782  1.00  0.00     0.087 C 
ATOM      4  O   UNL     1       4.992   0.436   2.304  1.00  0.00    -0.300 OA
ENDBRANCH   1   2
BRANCH   1   5
ATOM      5  C   UNL     1       7.033   0.910  -0.521  1.00  0.00     0.043 C 
BRANCH   5   6
ATOM      6  C   UNL     1       7.545  -0.365  -1.056  1.00  0.00    -0.044 A 
ATOM      7  C   UNL     1       7.812  -0.534  -2.419  1.00  0.00     0.008 A 
ATOM      8  C   UNL     1       7.771  -1.421  -0.202  1.00  0.00     0.054 A 
ATOM      9  C   UNL     1       8.292  -1.752  -2.863  1.00  0.00     0.051 A 
ATOM     10  C   UNL     1       8.257  -2.651  -0.656  1.00  0.00     0.166 A 
ATOM     11  C   UNL     1       8.519  -2.818  -1.997  1.00  0.00     0.165 A 
ATOM     12  O   UNL     1       8.558  -3.835  -0.018  1.00  0.00    -0.454 OA
ATOM     13  O   UNL     1       8.982  -4.115  -2.157  1.00  0.00    -0.454 OA
ATOM     14  C   UNL     1       9.109  -4.765  -0.915  1.00  0.00     0.468 C 
ENDBRANCH   5   6
ENDBRANCH   1   5
TORSDOF 3
ENDMDL
