@<TRIPOS>MOLECULE
/home/cewinharhar/GITHUB/reincatalyze/data/processed/docking_pred/2023-May-25-1902_sub9_nm5_bs15_s42_ex16_mel10_mts10000_k50_ec01_g099_lra3e-4_lrc3e-3/287d700aa29cdd08db1558ad291e1b5912b75232_ligand_9.pdbqt
 14 15 0 0 0
SMALL
GASTEIGER

@<TRIPOS>ATOM
      1  C          6.3320    1.2690    0.8580 C.3     1  UNL1        0.0800
      2  C          5.6650    0.4550    1.9120 C.2     1  UNL1        0.1300
      3  C          6.3030   -0.7620    2.4810 C.3     1  UNL1        0.0870
      4  O          4.5660    0.7670    2.3420 O.2     1  UNL1       -0.3000
      5  C          5.8150    0.9130   -0.5220 C.3     1  UNL1        0.0430
      6  C          6.7880    0.1050   -1.2790 C.2     1  UNL1       -0.0440
      7  C          7.5060    0.6410   -2.3540 C.2     1  UNL1        0.0080
      8  C          7.0050   -1.2080   -0.9270 C.2     1  UNL1        0.0540
      9  C          8.4070   -0.1640   -3.0270 C.2     1  UNL1        0.0510
     10  C          7.9180   -2.0170   -1.6110 C.2     1  UNL1        0.1660
     11  C          8.6240   -1.4910   -2.6690 C.2     1  UNL1        0.1650
     12  O          8.3060   -3.3310   -1.4580 O.2     1  UNL1       -0.4540
     13  O          9.4410   -2.5030   -3.1490 O.2     1  UNL1       -0.4540
     14  C          9.3370   -3.6600   -2.3530 C.3     1  UNL1        0.4680
@<TRIPOS>BOND
     1    13    11    1
     2    13    14    1
     3     9    11    2
     4     9     7    1
     5    11    10    1
     6     7     6    2
     7    14    12    1
     8    10    12    1
     9    10     8    2
    10     6     8    1
    11     6     5    1
    12     5     1    1
    13     1     2    1
    14     2     4    2
    15     2     3    1
