@<TRIPOS>MOLECULE
/home/cewinharhar/GITHUB/reincatalyze/data/processed/docking_pred/2023-May-25-1902_sub9_nm5_bs15_s42_ex16_mel10_mts10000_k50_ec01_g099_lra3e-4_lrc3e-3/287d700aa29cdd08db1558ad291e1b5912b75232_ligand_9.pdbqt
 14 15 0 0 0
SMALL
GASTEIGER

@<TRIPOS>ATOM
      1  C          5.5570   -0.0030    1.9690 C.3     1  UNL1        0.0800
      2  C          4.6850    1.1610    1.6470 C.2     1  UNL1        0.1300
      3  C          4.9890    2.0750    0.5150 C.3     1  UNL1        0.0870
      4  O          3.6880    1.3980    2.3100 O.2     1  UNL1       -0.3000
      5  C          6.9880    0.2450    1.5340 C.3     1  UNL1        0.0430
      6  C          7.4090   -0.6950    0.4800 C.2     1  UNL1       -0.0440
      7  C          7.3640   -0.3460   -0.8750 C.2     1  UNL1        0.0080
      8  C          7.8610   -1.9490    0.8250 C.2     1  UNL1        0.0540
      9  C          7.7730   -1.2690   -1.8200 C.2     1  UNL1        0.0510
     10  C          8.2740   -2.8780   -0.1340 C.2     1  UNL1        0.1660
     11  C          8.2300   -2.5360   -1.4670 C.2     1  UNL1        0.1650
     12  O          8.7560   -4.1670   -0.0480 O.2     1  UNL1       -0.4540
     13  O          8.6900   -3.6330   -2.1790 O.2     1  UNL1       -0.4540
     14  C          9.1200   -4.6560   -1.3130 C.3     1  UNL1        0.4680
@<TRIPOS>BOND
     1    13    11    1
     2    13    14    1
     3     9    11    2
     4     9     7    1
     5    11    10    1
     6    14    12    1
     7     7     6    2
     8    10    12    1
     9    10     8    2
    10     6     8    1
    11     6     5    1
    12     3     2    1
    13     5     1    1
    14     2     1    1
    15     2     4    2
