@<TRIPOS>MOLECULE
/home/cewinharhar/GITHUB/reincatalyze/data/processed/docking_pred/2023-May-25-1902_sub9_nm5_bs15_s42_ex16_mel10_mts10000_k50_ec01_g099_lra3e-4_lrc3e-3/287d700aa29cdd08db1558ad291e1b5912b75232_ligand_9.pdbqt
 14 15 0 0 0
SMALL
GASTEIGER

@<TRIPOS>ATOM
      1  C          5.6570    1.6590    0.0330 C.3     1  UNL1        0.0800
      2  C          4.9460    1.2730    1.2830 C.2     1  UNL1        0.1300
      3  C          5.3870    0.1160    2.1070 C.3     1  UNL1        0.0870
      4  O          3.9720    1.8990    1.6690 O.2     1  UNL1       -0.3000
      5  C          7.1300    1.3090    0.1070 C.3     1  UNL1        0.0430
      6  C          7.4370    0.0740   -0.6350 C.2     1  UNL1       -0.0440
      7  C          7.2900   -0.0030   -2.0240 C.2     1  UNL1        0.0080
      8  C          7.8830   -1.0370    0.0450 C.2     1  UNL1        0.0540
      9  C          7.5940   -1.1890   -2.6670 C.2     1  UNL1        0.0510
     10  C          8.1890   -2.2340   -0.6100 C.2     1  UNL1        0.1660
     11  C          8.0430   -2.3100   -1.9770 C.2     1  UNL1        0.1650
     12  O          8.6410   -3.4590   -0.1670 O.2     1  UNL1       -0.4540
     13  O          8.4140   -3.5930   -2.3490 O.2     1  UNL1       -0.4540
     14  C          8.8860   -4.3260   -1.2440 C.3     1  UNL1        0.4680
@<TRIPOS>BOND
     1     9     7    1
     2     9    11    2
     3    13    11    1
     4    13    14    1
     5     7     6    2
     6    11    10    1
     7    14    12    1
     8     6     8    1
     9     6     5    1
    10    10    12    1
    11    10     8    2
    12     1     5    1
    13     1     2    1
    14     2     4    2
    15     2     3    1
