@<TRIPOS>MOLECULE
/home/cewinharhar/GITHUB/reincatalyze/data/processed/docking_pred/2023-May-25-1902_sub9_nm5_bs15_s42_ex16_mel10_mts10000_k50_ec01_g099_lra3e-4_lrc3e-3/2b611616233e02901686b2fc0a6dd8ec9c570ff2_ligand_9.pdbqt
 14 15 0 0 0
SMALL
GASTEIGER

@<TRIPOS>ATOM
      1  C          6.7670    0.7960    1.3910 C.3     1  UNL1        0.0800
      2  C          5.3280    1.1740    1.4620 C.2     1  UNL1        0.1300
      3  C          4.7290    2.1500    0.5140 C.3     1  UNL1        0.0870
      4  O          4.5950    0.6890    2.3090 O.2     1  UNL1       -0.3000
      5  C          7.3280    1.0250    0.0010 C.3     1  UNL1        0.0430
      6  C          7.6500   -0.2450   -0.6750 C.2     1  UNL1       -0.0440
      7  C          7.6340   -0.3580   -2.0700 C.2     1  UNL1        0.0080
      8  C          7.9770   -1.3520    0.0750 C.2     1  UNL1        0.0540
      9  C          7.9460   -1.5750   -2.6480 C.2     1  UNL1        0.0510
     10  C          8.2920   -2.5810   -0.5150 C.2     1  UNL1        0.1660
     11  C          8.2760   -2.6930   -1.8870 C.2     1  UNL1        0.1650
     12  O          8.6430   -3.8090    0.0030 O.2     1  UNL1       -0.4540
     13  O          8.6230   -4.0010   -2.1870 O.2     1  UNL1       -0.4540
     14  C          8.9520   -4.7190   -1.0210 C.3     1  UNL1        0.4680
@<TRIPOS>BOND
     1     9     7    1
     2     9    11    2
     3    13    11    1
     4    13    14    1
     5     7     6    2
     6    11    10    1
     7    14    12    1
     8     6     5    1
     9     6     8    1
    10    10    12    1
    11    10     8    2
    12     5     1    1
    13     3     2    1
    14     1     2    1
    15     2     4    2
