@<TRIPOS>MOLECULE
/home/cewinharhar/GITHUB/reincatalyze/data/processed/docking_pred/2023-May-25-1902_sub9_nm5_bs15_s42_ex16_mel10_mts10000_k50_ec01_g099_lra3e-4_lrc3e-3/2b611616233e02901686b2fc0a6dd8ec9c570ff2_ligand_9.pdbqt
 14 15 0 0 0
SMALL
GASTEIGER

@<TRIPOS>ATOM
      1  C          5.4120   -0.0650    2.0380 C.3     1  UNL1        0.0800
      2  C          4.5530    1.1220    1.7720 C.2     1  UNL1        0.1300
      3  C          4.8900    2.1080    0.7100 C.3     1  UNL1        0.0870
      4  O          3.5410    1.3230    2.4250 O.2     1  UNL1       -0.3000
      5  C          6.8470    0.1880    1.6200 C.3     1  UNL1        0.0430
      6  C          7.2750   -0.7330    0.5520 C.2     1  UNL1       -0.0440
      7  C          7.1520   -0.3960   -0.8000 C.2     1  UNL1        0.0080
      8  C          7.8140   -1.9560    0.8820 C.2     1  UNL1        0.0540
      9  C          7.5720   -1.3000   -1.7590 C.2     1  UNL1        0.0510
     10  C          8.2380   -2.8660   -0.0910 C.2     1  UNL1        0.1660
     11  C          8.1160   -2.5360   -1.4220 C.2     1  UNL1        0.1650
     12  O          8.7970   -4.1250   -0.0200 O.2     1  UNL1       -0.4540
     13  O          8.6080   -3.6080   -2.1480 O.2     1  UNL1       -0.4540
     14  C          9.1340   -4.6000   -1.2980 C.3     1  UNL1        0.4680
@<TRIPOS>BOND
     1    13    11    1
     2    13    14    1
     3     9    11    2
     4     9     7    1
     5    11    10    1
     6    14    12    1
     7     7     6    2
     8    10    12    1
     9    10     8    2
    10     6     8    1
    11     6     5    1
    12     3     2    1
    13     5     1    1
    14     2     1    1
    15     2     4    2
