@<TRIPOS>MOLECULE
/home/cewinharhar/GITHUB/reincatalyze/data/processed/docking_pred/2023-May-25-1902_sub9_nm5_bs15_s42_ex16_mel10_mts10000_k50_ec01_g099_lra3e-4_lrc3e-3/2b611616233e02901686b2fc0a6dd8ec9c570ff2_ligand_9.pdbqt
 14 15 0 0 0
SMALL
GASTEIGER

@<TRIPOS>ATOM
      1  C          5.7430    1.3310   -0.3600 C.3     1  UNL1        0.0800
      2  C          5.1180    1.2780    0.9910 C.2     1  UNL1        0.1300
      3  C          5.4050    0.1710    1.9420 C.3     1  UNL1        0.0870
      4  O          4.3450    2.1480    1.3580 O.2     1  UNL1       -0.3000
      5  C          7.2380    1.0860   -0.2840 C.3     1  UNL1        0.0430
      6  C          7.6110   -0.2050   -0.8870 C.2     1  UNL1       -0.0440
      7  C          7.6910   -0.3710   -2.2750 C.2     1  UNL1        0.0080
      8  C          7.8930   -1.2810   -0.0760 C.2     1  UNL1        0.0540
      9  C          8.0470   -1.6070   -2.7830 C.2     1  UNL1        0.0510
     10  C          8.2540   -2.5280   -0.5950 C.2     1  UNL1        0.1660
     11  C          8.3310   -2.6920   -1.9600 C.2     1  UNL1        0.1650
     12  O          8.5770   -3.7320   -0.0080 O.2     1  UNL1       -0.4540
     13  O          8.7050   -4.0080   -2.1850 O.2     1  UNL1       -0.4540
     14  C          8.9590   -4.6780   -0.9740 C.3     1  UNL1        0.4680
@<TRIPOS>BOND
     1     9     7    1
     2     9    11    2
     3     7     6    2
     4    13    11    1
     5    13    14    1
     6    11    10    1
     7    14    12    1
     8     6     5    1
     9     6     8    1
    10    10     8    2
    11    10    12    1
    12     1     5    1
    13     1     2    1
    14     2     4    2
    15     2     3    1
