MODEL 1
REMARK VINA RESULT:      -7.6      0.000      0.000
REMARK SMILES CC(=O)CCc1ccc2c(c1)OCO2
REMARK SMILES IDX 4 1 2 2 1 3 3 4 5 5 6 6 7 7 11 8 8 9 10 10 9 11 12 12 14 13
REMARK SMILES IDX 13 14
REMARK H PARENT
REMARK Flexibility Score: inf
ROOT
ATOM      1  C   UNL     1       5.546   1.921   1.266  1.00  0.00     0.080 C 
ENDROOT
BRANCH   1   2
ATOM      2  C   UNL     1       5.114   0.708   2.015  1.00  0.00     0.130 C 
ATOM      3  C   UNL     1       6.018  -0.459   2.200  1.00  0.00     0.087 C 
ATOM      4  O   UNL     1       3.997   0.637   2.501  1.00  0.00    -0.300 OA
ENDBRANCH   1   2
BRANCH   1   5
ATOM      5  C   UNL     1       5.411   1.722  -0.230  1.00  0.00     0.043 C 
BRANCH   5   6
ATOM      6  C   UNL     1       6.578   1.021  -0.795  1.00  0.00    -0.044 A 
ATOM      7  C   UNL     1       7.885   1.454  -0.544  1.00  0.00     0.008 A 
ATOM      8  C   UNL     1       6.390  -0.088  -1.589  1.00  0.00     0.054 A 
ATOM      9  C   UNL     1       8.942   0.757  -1.101  1.00  0.00     0.051 A 
ATOM     10  C   UNL     1       7.462  -0.790  -2.149  1.00  0.00     0.166 A 
ATOM     11  C   UNL     1       8.748  -0.364  -1.903  1.00  0.00     0.165 A 
ATOM     12  O   UNL     1       7.535  -1.903  -2.959  1.00  0.00    -0.454 OA
ATOM     13  O   UNL     1       9.593  -1.234  -2.574  1.00  0.00    -0.454 OA
ATOM     14  C   UNL     1       8.870  -2.278  -3.181  1.00  0.00     0.468 C 
ENDBRANCH   5   6
ENDBRANCH   1   5
TORSDOF 3
ENDMDL
MODEL 2
REMARK VINA RESULT:      -7.5      1.929      2.404
REMARK SMILES CC(=O)CCc1ccc2c(c1)OCO2
REMARK SMILES IDX 4 1 2 2 1 3 3 4 5 5 6 6 7 7 11 8 8 9 10 10 9 11 12 12 14 13
REMARK SMILES IDX 13 14
REMARK H PARENT
REMARK Flexibility Score: inf
ROOT
ATOM      1  C   UNL     1       5.743   1.331  -0.360  1.00  0.00     0.080 C 
ENDROOT
BRANCH   1   2
ATOM      2  C   UNL     1       5.118   1.278   0.991  1.00  0.00     0.130 C 
ATOM      3  C   UNL     1       5.405   0.171   1.942  1.00  0.00     0.087 C 
ATOM      4  O   UNL     1       4.345   2.148   1.358  1.00  0.00    -0.300 OA
ENDBRANCH   1   2
BRANCH   1   5
ATOM      5  C   UNL     1       7.238   1.086  -0.284  1.00  0.00     0.043 C 
BRANCH   5   6
ATOM      6  C   UNL     1       7.611  -0.205  -0.887  1.00  0.00    -0.044 A 
ATOM      7  C   UNL     1       7.691  -0.371  -2.275  1.00  0.00     0.008 A 
ATOM      8  C   UNL     1       7.893  -1.281  -0.076  1.00  0.00     0.054 A 
ATOM      9  C   UNL     1       8.047  -1.607  -2.783  1.00  0.00     0.051 A 
ATOM     10  C   UNL     1       8.254  -2.528  -0.595  1.00  0.00     0.166 A 
ATOM     11  C   UNL     1       8.331  -2.692  -1.960  1.00  0.00     0.165 A 
ATOM     12  O   UNL     1       8.577  -3.732  -0.008  1.00  0.00    -0.454 OA
ATOM     13  O   UNL     1       8.705  -4.008  -2.185  1.00  0.00    -0.454 OA
ATOM     14  C   UNL     1       8.959  -4.678  -0.974  1.00  0.00     0.468 C 
ENDBRANCH   5   6
ENDBRANCH   1   5
TORSDOF 3
ENDMDL
MODEL 3
REMARK VINA RESULT:      -7.2      2.054      2.629
REMARK SMILES CC(=O)CCc1ccc2c(c1)OCO2
REMARK SMILES IDX 4 1 2 2 1 3 3 4 5 5 6 6 7 7 11 8 8 9 10 10 9 11 12 12 14 13
REMARK SMILES IDX 13 14
REMARK H PARENT
REMARK Flexibility Score: inf
ROOT
ATOM      1  C   UNL     1       5.412  -0.065   2.038  1.00  0.00     0.080 C 
ENDROOT
BRANCH   1   2
ATOM      2  C   UNL     1       4.553   1.122   1.772  1.00  0.00     0.130 C 
ATOM      3  C   UNL     1       4.890   2.108   0.710  1.00  0.00     0.087 C 
ATOM      4  O   UNL     1       3.541   1.323   2.425  1.00  0.00    -0.300 OA
ENDBRANCH   1   2
BRANCH   1   5
ATOM      5  C   UNL     1       6.847   0.188   1.620  1.00  0.00     0.043 C 
BRANCH   5   6
ATOM      6  C   UNL     1       7.275  -0.733   0.552  1.00  0.00    -0.044 A 
ATOM      7  C   UNL     1       7.152  -0.396  -0.800  1.00  0.00     0.008 A 
ATOM      8  C   UNL     1       7.814  -1.956   0.882  1.00  0.00     0.054 A 
ATOM      9  C   UNL     1       7.572  -1.300  -1.759  1.00  0.00     0.051 A 
ATOM     10  C   UNL     1       8.238  -2.866  -0.091  1.00  0.00     0.166 A 
ATOM     11  C   UNL     1       8.116  -2.536  -1.422  1.00  0.00     0.165 A 
ATOM     12  O   UNL     1       8.797  -4.125  -0.020  1.00  0.00    -0.454 OA
ATOM     13  O   UNL     1       8.608  -3.608  -2.148  1.00  0.00    -0.454 OA
ATOM     14  C   UNL     1       9.134  -4.600  -1.298  1.00  0.00     0.468 C 
ENDBRANCH   5   6
ENDBRANCH   1   5
TORSDOF 3
ENDMDL
MODEL 4
REMARK VINA RESULT:      -7.1      1.968      2.516
REMARK SMILES CC(=O)CCc1ccc2c(c1)OCO2
REMARK SMILES IDX 4 1 2 2 1 3 3 4 5 5 6 6 7 7 11 8 8 9 10 10 9 11 12 12 14 13
REMARK SMILES IDX 13 14
REMARK H PARENT
REMARK Flexibility Score: inf
ROOT
ATOM      1  C   UNL     1       6.767   0.796   1.391  1.00  0.00     0.080 C 
ENDROOT
BRANCH   1   2
ATOM      2  C   UNL     1       5.328   1.174   1.462  1.00  0.00     0.130 C 
ATOM      3  C   UNL     1       4.729   2.150   0.514  1.00  0.00     0.087 C 
ATOM      4  O   UNL     1       4.595   0.689   2.309  1.00  0.00    -0.300 OA
ENDBRANCH   1   2
BRANCH   1   5
ATOM      5  C   UNL     1       7.328   1.025   0.001  1.00  0.00     0.043 C 
BRANCH   5   6
ATOM      6  C   UNL     1       7.650  -0.245  -0.675  1.00  0.00    -0.044 A 
ATOM      7  C   UNL     1       7.634  -0.358  -2.070  1.00  0.00     0.008 A 
ATOM      8  C   UNL     1       7.977  -1.352   0.075  1.00  0.00     0.054 A 
ATOM      9  C   UNL     1       7.946  -1.575  -2.648  1.00  0.00     0.051 A 
ATOM     10  C   UNL     1       8.292  -2.581  -0.515  1.00  0.00     0.166 A 
ATOM     11  C   UNL     1       8.276  -2.693  -1.887  1.00  0.00     0.165 A 
ATOM     12  O   UNL     1       8.643  -3.809   0.003  1.00  0.00    -0.454 OA
ATOM     13  O   UNL     1       8.623  -4.001  -2.187  1.00  0.00    -0.454 OA
ATOM     14  C   UNL     1       8.952  -4.719  -1.021  1.00  0.00     0.468 C 
ENDBRANCH   5   6
ENDBRANCH   1   5
TORSDOF 3
ENDMDL
MODEL 5
REMARK VINA RESULT:      -7.1      1.252      1.458
REMARK SMILES CC(=O)CCc1ccc2c(c1)OCO2
REMARK SMILES IDX 4 1 2 2 1 3 3 4 5 5 6 6 7 7 11 8 8 9 10 10 9 11 12 12 14 13
REMARK SMILES IDX 13 14
REMARK H PARENT
REMARK Flexibility Score: inf
ROOT
ATOM      1  C   UNL     1       6.380   1.210   0.940  1.00  0.00     0.080 C 
ENDROOT
BRANCH   1   2
ATOM      2  C   UNL     1       5.653   0.385   1.944  1.00  0.00     0.130 C 
ATOM      3  C   UNL     1       6.256  -0.841   2.533  1.00  0.00     0.087 C 
ATOM      4  O   UNL     1       4.532   0.695   2.316  1.00  0.00    -0.300 OA
ENDBRANCH   1   2
BRANCH   1   5
ATOM      5  C   UNL     1       5.874   0.941  -0.464  1.00  0.00     0.043 C 
BRANCH   5   6
ATOM      6  C   UNL     1       6.817   0.113  -1.236  1.00  0.00    -0.044 A 
ATOM      7  C   UNL     1       7.496   0.620  -2.350  1.00  0.00     0.008 A 
ATOM      8  C   UNL     1       7.045  -1.192  -0.860  1.00  0.00     0.054 A 
ATOM      9  C   UNL     1       8.370  -0.204  -3.035  1.00  0.00     0.051 A 
ATOM     10  C   UNL     1       7.930  -2.020  -1.556  1.00  0.00     0.166 A 
ATOM     11  C   UNL     1       8.598  -1.522  -2.653  1.00  0.00     0.165 A 
ATOM     12  O   UNL     1       8.322  -3.331  -1.385  1.00  0.00    -0.454 OA
ATOM     13  O   UNL     1       9.395  -2.548  -3.137  1.00  0.00    -0.454 OA
ATOM     14  C   UNL     1       9.319  -3.684  -2.309  1.00  0.00     0.468 C 
ENDBRANCH   5   6
ENDBRANCH   1   5
TORSDOF 3
ENDMDL
