@<TRIPOS>MOLECULE
/home/cewinharhar/GITHUB/reincatalyze/data/processed/docking_pred/2023-May-25-1902_sub9_nm5_bs15_s42_ex16_mel10_mts10000_k50_ec01_g099_lra3e-4_lrc3e-3/2cf69de7cf34ef354308742c6722c88054a527ce_ligand_9.pdbqt
 14 15 0 0 0
SMALL
GASTEIGER

@<TRIPOS>ATOM
      1  C          6.8690    0.8660    1.2820 C.3     1  UNL1        0.0800
      2  C          5.4140    1.1700    1.3690 C.2     1  UNL1        0.1300
      3  C          4.7650    2.1500    0.4570 C.3     1  UNL1        0.0870
      4  O          4.7070    0.6190    2.1980 O.2     1  UNL1       -0.3000
      5  C          7.3890    1.0590   -0.1290 C.3     1  UNL1        0.0430
      6  C          7.7030   -0.2270   -0.7760 C.2     1  UNL1       -0.0440
      7  C          7.7230   -0.3610   -2.1690 C.2     1  UNL1        0.0080
      8  C          7.9870   -1.3290   -0.0020 C.2     1  UNL1        0.0540
      9  C          8.0260   -1.5930   -2.7210 C.2     1  UNL1        0.0510
     10  C          8.2930   -2.5720   -0.5650 C.2     1  UNL1        0.1660
     11  C          8.3120   -2.7050   -1.9350 C.2     1  UNL1        0.1650
     12  O          8.6050   -3.7990   -0.0190 O.2     1  UNL1       -0.4540
     13  O          8.6400   -4.0240   -2.2060 O.2     1  UNL1       -0.4540
     14  C          8.9230   -4.7310   -1.0210 C.3     1  UNL1        0.4680
@<TRIPOS>BOND
     1     9     7    1
     2     9    11    2
     3    13    11    1
     4    13    14    1
     5     7     6    2
     6    11    10    1
     7    14    12    1
     8     6     5    1
     9     6     8    1
    10    10    12    1
    11    10     8    2
    12     5     1    1
    13     3     2    1
    14     1     2    1
    15     2     4    2
