@<TRIPOS>MOLECULE
/home/cewinharhar/GITHUB/reincatalyze/data/processed/docking_pred/2023-May-25-1902_sub9_nm5_bs15_s42_ex16_mel10_mts10000_k50_ec01_g099_lra3e-4_lrc3e-3/2cf69de7cf34ef354308742c6722c88054a527ce_ligand_9.pdbqt
 14 15 0 0 0
SMALL
GASTEIGER

@<TRIPOS>ATOM
      1  C          5.7450    1.4710   -0.2600 C.3     1  UNL1        0.0800
      2  C          5.0610    1.3420    1.0570 C.2     1  UNL1        0.1300
      3  C          5.3800    0.2330    1.9970 C.3     1  UNL1        0.0870
      4  O          4.2130    2.1470    1.4050 O.2     1  UNL1       -0.3000
      5  C          7.2260    1.1710   -0.1430 C.3     1  UNL1        0.0430
      6  C          7.5790   -0.1030   -0.7950 C.2     1  UNL1       -0.0440
      7  C          7.5920   -0.2340   -2.1890 C.2     1  UNL1        0.0080
      8  C          7.9060   -1.1960   -0.0260 C.2     1  UNL1        0.0540
      9  C          7.9320   -1.4540   -2.7450 C.2     1  UNL1        0.0510
     10  C          8.2490   -2.4270   -0.5920 C.2     1  UNL1        0.1660
     11  C          8.2620   -2.5570   -1.9630 C.2     1  UNL1        0.1650
     12  O          8.6070   -3.6440   -0.0510 O.2     1  UNL1       -0.4540
     13  O          8.6320   -3.8640   -2.2390 O.2     1  UNL1       -0.4540
     14  C          8.9480   -4.5620   -1.0580 C.3     1  UNL1        0.4680
@<TRIPOS>BOND
     1     9     7    1
     2     9    11    2
     3    13    11    1
     4    13    14    1
     5     7     6    2
     6    11    10    1
     7    14    12    1
     8     6     5    1
     9     6     8    1
    10    10    12    1
    11    10     8    2
    12     1     5    1
    13     1     2    1
    14     2     4    2
    15     2     3    1
