MODEL 1
REMARK VINA RESULT:      -7.7      0.000      0.000
REMARK SMILES CC(=O)CCc1ccc2c(c1)OCO2
REMARK SMILES IDX 4 1 2 2 1 3 3 4 5 5 6 6 7 7 11 8 8 9 10 10 9 11 12 12 14 13
REMARK SMILES IDX 13 14
REMARK H PARENT
REMARK Flexibility Score: inf
ROOT
ATOM      1  C   UNL     1       5.509   1.939   1.241  1.00  0.00     0.080 C 
ENDROOT
BRANCH   1   2
ATOM      2  C   UNL     1       5.088   0.728   1.999  1.00  0.00     0.130 C 
ATOM      3  C   UNL     1       5.997  -0.436   2.180  1.00  0.00     0.087 C 
ATOM      4  O   UNL     1       3.976   0.656   2.497  1.00  0.00    -0.300 OA
ENDBRANCH   1   2
BRANCH   1   5
ATOM      5  C   UNL     1       5.383   1.724  -0.254  1.00  0.00     0.043 C 
BRANCH   5   6
ATOM      6  C   UNL     1       6.557   1.024  -0.806  1.00  0.00    -0.044 A 
ATOM      7  C   UNL     1       7.861   1.454  -0.536  1.00  0.00     0.008 A 
ATOM      8  C   UNL     1       6.378  -0.082  -1.606  1.00  0.00     0.054 A 
ATOM      9  C   UNL     1       8.924   0.756  -1.082  1.00  0.00     0.051 A 
ATOM     10  C   UNL     1       7.455  -0.784  -2.154  1.00  0.00     0.166 A 
ATOM     11  C   UNL     1       8.739  -0.361  -1.890  1.00  0.00     0.165 A 
ATOM     12  O   UNL     1       7.538  -1.895  -2.967  1.00  0.00    -0.454 OA
ATOM     13  O   UNL     1       9.592  -1.230  -2.552  1.00  0.00    -0.454 OA
ATOM     14  C   UNL     1       8.875  -2.271  -3.173  1.00  0.00     0.468 C 
ENDBRANCH   5   6
ENDBRANCH   1   5
TORSDOF 3
ENDMDL
MODEL 2
REMARK VINA RESULT:      -7.4      1.876      2.326
REMARK SMILES CC(=O)CCc1ccc2c(c1)OCO2
REMARK SMILES IDX 4 1 2 2 1 3 3 4 5 5 6 6 7 7 11 8 8 9 10 10 9 11 12 12 14 13
REMARK SMILES IDX 13 14
REMARK H PARENT
REMARK Flexibility Score: inf
ROOT
ATOM      1  C   UNL     1       5.745   1.471  -0.260  1.00  0.00     0.080 C 
ENDROOT
BRANCH   1   2
ATOM      2  C   UNL     1       5.061   1.342   1.057  1.00  0.00     0.130 C 
ATOM      3  C   UNL     1       5.380   0.233   1.997  1.00  0.00     0.087 C 
ATOM      4  O   UNL     1       4.213   2.147   1.405  1.00  0.00    -0.300 OA
ENDBRANCH   1   2
BRANCH   1   5
ATOM      5  C   UNL     1       7.226   1.171  -0.143  1.00  0.00     0.043 C 
BRANCH   5   6
ATOM      6  C   UNL     1       7.579  -0.103  -0.795  1.00  0.00    -0.044 A 
ATOM      7  C   UNL     1       7.592  -0.234  -2.189  1.00  0.00     0.008 A 
ATOM      8  C   UNL     1       7.906  -1.196  -0.026  1.00  0.00     0.054 A 
ATOM      9  C   UNL     1       7.932  -1.454  -2.745  1.00  0.00     0.051 A 
ATOM     10  C   UNL     1       8.249  -2.427  -0.592  1.00  0.00     0.166 A 
ATOM     11  C   UNL     1       8.262  -2.557  -1.963  1.00  0.00     0.165 A 
ATOM     12  O   UNL     1       8.607  -3.644  -0.051  1.00  0.00    -0.454 OA
ATOM     13  O   UNL     1       8.632  -3.864  -2.239  1.00  0.00    -0.454 OA
ATOM     14  C   UNL     1       8.948  -4.562  -1.058  1.00  0.00     0.468 C 
ENDBRANCH   5   6
ENDBRANCH   1   5
TORSDOF 3
ENDMDL
MODEL 3
REMARK VINA RESULT:      -7.2      2.059      2.628
REMARK SMILES CC(=O)CCc1ccc2c(c1)OCO2
REMARK SMILES IDX 4 1 2 2 1 3 3 4 5 5 6 6 7 7 11 8 8 9 10 10 9 11 12 12 14 13
REMARK SMILES IDX 13 14
REMARK H PARENT
REMARK Flexibility Score: inf
ROOT
ATOM      1  C   UNL     1       5.423  -0.033   2.007  1.00  0.00     0.080 C 
ENDROOT
BRANCH   1   2
ATOM      2  C   UNL     1       4.564   1.160   1.763  1.00  0.00     0.130 C 
ATOM      3  C   UNL     1       4.887   2.150   0.701  1.00  0.00     0.087 C 
ATOM      4  O   UNL     1       3.564   1.360   2.433  1.00  0.00    -0.300 OA
ENDBRANCH   1   2
BRANCH   1   5
ATOM      5  C   UNL     1       6.854   0.221   1.576  1.00  0.00     0.043 C 
BRANCH   5   6
ATOM      6  C   UNL     1       7.280  -0.713   0.519  1.00  0.00    -0.044 A 
ATOM      7  C   UNL     1       7.152  -0.394  -0.837  1.00  0.00     0.008 A 
ATOM      8  C   UNL     1       7.822  -1.931   0.864  1.00  0.00     0.054 A 
ATOM      9  C   UNL     1       7.570  -1.311  -1.785  1.00  0.00     0.051 A 
ATOM     10  C   UNL     1       8.244  -2.854  -0.098  1.00  0.00     0.166 A 
ATOM     11  C   UNL     1       8.117  -2.541  -1.433  1.00  0.00     0.165 A 
ATOM     12  O   UNL     1       8.805  -4.110  -0.012  1.00  0.00    -0.454 OA
ATOM     13  O   UNL     1       8.608  -3.623  -2.147  1.00  0.00    -0.454 OA
ATOM     14  C   UNL     1       9.138  -4.602  -1.285  1.00  0.00     0.468 C 
ENDBRANCH   5   6
ENDBRANCH   1   5
TORSDOF 3
ENDMDL
MODEL 4
REMARK VINA RESULT:      -7.1      1.253      1.461
REMARK SMILES CC(=O)CCc1ccc2c(c1)OCO2
REMARK SMILES IDX 4 1 2 2 1 3 3 4 5 5 6 6 7 7 11 8 8 9 10 10 9 11 12 12 14 13
REMARK SMILES IDX 13 14
REMARK H PARENT
REMARK Flexibility Score: inf
ROOT
ATOM      1  C   UNL     1       6.380   1.220   0.924  1.00  0.00     0.080 C 
ENDROOT
BRANCH   1   2
ATOM      2  C   UNL     1       5.659   0.388   1.927  1.00  0.00     0.130 C 
ATOM      3  C   UNL     1       6.265  -0.844   2.500  1.00  0.00     0.087 C 
ATOM      4  O   UNL     1       4.541   0.695   2.309  1.00  0.00    -0.300 OA
ENDBRANCH   1   2
BRANCH   1   5
ATOM      5  C   UNL     1       5.875   0.950  -0.480  1.00  0.00     0.043 C 
BRANCH   5   6
ATOM      6  C   UNL     1       6.820   0.121  -1.250  1.00  0.00    -0.044 A 
ATOM      7  C   UNL     1       7.513   0.632  -2.353  1.00  0.00     0.008 A 
ATOM      8  C   UNL     1       7.034  -1.188  -0.883  1.00  0.00     0.054 A 
ATOM      9  C   UNL     1       8.388  -0.192  -3.037  1.00  0.00     0.051 A 
ATOM     10  C   UNL     1       7.920  -2.017  -1.578  1.00  0.00     0.166 A 
ATOM     11  C   UNL     1       8.602  -1.516  -2.664  1.00  0.00     0.165 A 
ATOM     12  O   UNL     1       8.300  -3.333  -1.414  1.00  0.00    -0.454 OA
ATOM     13  O   UNL     1       9.396  -2.543  -3.148  1.00  0.00    -0.454 OA
ATOM     14  C   UNL     1       9.303  -3.686  -2.331  1.00  0.00     0.468 C 
ENDBRANCH   5   6
ENDBRANCH   1   5
TORSDOF 3
ENDMDL
MODEL 5
REMARK VINA RESULT:      -7.1      1.958      2.530
REMARK SMILES CC(=O)CCc1ccc2c(c1)OCO2
REMARK SMILES IDX 4 1 2 2 1 3 3 4 5 5 6 6 7 7 11 8 8 9 10 10 9 11 12 12 14 13
REMARK SMILES IDX 13 14
REMARK H PARENT
REMARK Flexibility Score: inf
ROOT
ATOM      1  C   UNL     1       6.869   0.866   1.282  1.00  0.00     0.080 C 
ENDROOT
BRANCH   1   2
ATOM      2  C   UNL     1       5.414   1.170   1.369  1.00  0.00     0.130 C 
ATOM      3  C   UNL     1       4.765   2.150   0.457  1.00  0.00     0.087 C 
ATOM      4  O   UNL     1       4.707   0.619   2.198  1.00  0.00    -0.300 OA
ENDBRANCH   1   2
BRANCH   1   5
ATOM      5  C   UNL     1       7.389   1.059  -0.129  1.00  0.00     0.043 C 
BRANCH   5   6
ATOM      6  C   UNL     1       7.703  -0.227  -0.776  1.00  0.00    -0.044 A 
ATOM      7  C   UNL     1       7.723  -0.361  -2.169  1.00  0.00     0.008 A 
ATOM      8  C   UNL     1       7.987  -1.329  -0.002  1.00  0.00     0.054 A 
ATOM      9  C   UNL     1       8.026  -1.593  -2.721  1.00  0.00     0.051 A 
ATOM     10  C   UNL     1       8.293  -2.572  -0.565  1.00  0.00     0.166 A 
ATOM     11  C   UNL     1       8.312  -2.705  -1.935  1.00  0.00     0.165 A 
ATOM     12  O   UNL     1       8.605  -3.799  -0.019  1.00  0.00    -0.454 OA
ATOM     13  O   UNL     1       8.640  -4.024  -2.206  1.00  0.00    -0.454 OA
ATOM     14  C   UNL     1       8.923  -4.731  -1.021  1.00  0.00     0.468 C 
ENDBRANCH   5   6
ENDBRANCH   1   5
TORSDOF 3
ENDMDL
