@<TRIPOS>MOLECULE
/home/cewinharhar/GITHUB/reincatalyze/data/processed/docking_pred/2023-May-25-1902_sub9_nm5_bs15_s42_ex16_mel10_mts10000_k50_ec01_g099_lra3e-4_lrc3e-3/2cf69de7cf34ef354308742c6722c88054a527ce_ligand_9.pdbqt
 14 15 0 0 0
SMALL
GASTEIGER

@<TRIPOS>ATOM
      1  C          5.5090    1.9390    1.2410 C.3     1  UNL1        0.0800
      2  C          5.0880    0.7280    1.9990 C.2     1  UNL1        0.1300
      3  C          5.9970   -0.4360    2.1800 C.3     1  UNL1        0.0870
      4  O          3.9760    0.6560    2.4970 O.2     1  UNL1       -0.3000
      5  C          5.3830    1.7240   -0.2540 C.3     1  UNL1        0.0430
      6  C          6.5570    1.0240   -0.8060 C.2     1  UNL1       -0.0440
      7  C          7.8610    1.4540   -0.5360 C.2     1  UNL1        0.0080
      8  C          6.3780   -0.0820   -1.6060 C.2     1  UNL1        0.0540
      9  C          8.9240    0.7560   -1.0820 C.2     1  UNL1        0.0510
     10  C          7.4550   -0.7840   -2.1540 C.2     1  UNL1        0.1660
     11  C          8.7390   -0.3610   -1.8900 C.2     1  UNL1        0.1650
     12  O          7.5380   -1.8950   -2.9670 O.2     1  UNL1       -0.4540
     13  O          9.5920   -1.2300   -2.5520 O.2     1  UNL1       -0.4540
     14  C          8.8750   -2.2710   -3.1730 C.3     1  UNL1        0.4680
@<TRIPOS>BOND
     1    14    12    1
     2    14    13    1
     3    12    10    1
     4    13    11    1
     5    10    11    2
     6    10     8    1
     7    11     9    1
     8     8     6    2
     9     9     7    2
    10     6     7    1
    11     6     5    1
    12     5     1    1
    13     1     2    1
    14     2     3    1
    15     2     4    2
