@<TRIPOS>MOLECULE
/home/cewinharhar/GITHUB/reincatalyze/data/processed/docking_pred/2023-May-25-1902_sub9_nm5_bs15_s42_ex16_mel10_mts10000_k50_ec01_g099_lra3e-4_lrc3e-3/2cf69de7cf34ef354308742c6722c88054a527ce_ligand_9.pdbqt
 14 15 0 0 0
SMALL
GASTEIGER

@<TRIPOS>ATOM
      1  C          5.4230   -0.0330    2.0070 C.3     1  UNL1        0.0800
      2  C          4.5640    1.1600    1.7630 C.2     1  UNL1        0.1300
      3  C          4.8870    2.1500    0.7010 C.3     1  UNL1        0.0870
      4  O          3.5640    1.3600    2.4330 O.2     1  UNL1       -0.3000
      5  C          6.8540    0.2210    1.5760 C.3     1  UNL1        0.0430
      6  C          7.2800   -0.7130    0.5190 C.2     1  UNL1       -0.0440
      7  C          7.1520   -0.3940   -0.8370 C.2     1  UNL1        0.0080
      8  C          7.8220   -1.9310    0.8640 C.2     1  UNL1        0.0540
      9  C          7.5700   -1.3110   -1.7850 C.2     1  UNL1        0.0510
     10  C          8.2440   -2.8540   -0.0980 C.2     1  UNL1        0.1660
     11  C          8.1170   -2.5410   -1.4330 C.2     1  UNL1        0.1650
     12  O          8.8050   -4.1100   -0.0120 O.2     1  UNL1       -0.4540
     13  O          8.6080   -3.6230   -2.1470 O.2     1  UNL1       -0.4540
     14  C          9.1380   -4.6020   -1.2850 C.3     1  UNL1        0.4680
@<TRIPOS>BOND
     1    13    11    1
     2    13    14    1
     3     9    11    2
     4     9     7    1
     5    11    10    1
     6    14    12    1
     7     7     6    2
     8    10    12    1
     9    10     8    2
    10     6     8    1
    11     6     5    1
    12     3     2    1
    13     5     1    1
    14     2     1    1
    15     2     4    2
