@<TRIPOS>MOLECULE
/home/cewinharhar/GITHUB/reincatalyze/data/processed/docking_pred/2023-May-25-1902_sub9_nm5_bs15_s42_ex16_mel10_mts10000_k50_ec01_g099_lra3e-4_lrc3e-3/2d1308a551acff5965e26cd7ce237b6d230404f6_ligand_9.pdbqt
 14 15 0 0 0
SMALL
GASTEIGER

@<TRIPOS>ATOM
      1  C          6.3850    1.1890    0.9380 C.3     1  UNL1        0.0800
      2  C          5.6590    0.3720    1.9500 C.2     1  UNL1        0.1300
      3  C          6.2560   -0.8580    2.5350 C.3     1  UNL1        0.0870
      4  O          4.5450    0.6930    2.3310 O.2     1  UNL1       -0.3000
      5  C          5.8730    0.9130   -0.4620 C.3     1  UNL1        0.0430
      6  C          6.8190    0.0930   -1.2390 C.2     1  UNL1       -0.0440
      7  C          7.5000    0.6110   -2.3460 C.2     1  UNL1        0.0080
      8  C          7.0490   -1.2140   -0.8740 C.2     1  UNL1        0.0540
      9  C          8.3770   -0.2050   -3.0370 C.2     1  UNL1        0.0510
     10  C          7.9370   -2.0350   -1.5750 C.2     1  UNL1        0.1660
     11  C          8.6070   -1.5260   -2.6650 C.2     1  UNL1        0.1650
     12  O          8.3310   -3.3470   -1.4140 O.2     1  UNL1       -0.4540
     13  O          9.4070   -2.5470   -3.1560 O.2     1  UNL1       -0.4540
     14  C          9.3310   -3.6900   -2.3380 C.3     1  UNL1        0.4680
@<TRIPOS>BOND
     1    13    11    1
     2    13    14    1
     3     9    11    2
     4     9     7    1
     5    11    10    1
     6     7     6    2
     7    14    12    1
     8    10    12    1
     9    10     8    2
    10     6     8    1
    11     6     5    1
    12     5     1    1
    13     1     2    1
    14     2     4    2
    15     2     3    1
