@<TRIPOS>MOLECULE
/home/cewinharhar/GITHUB/reincatalyze/data/processed/docking_pred/2023-May-25-1902_sub9_nm5_bs15_s42_ex16_mel10_mts10000_k50_ec01_g099_lra3e-4_lrc3e-3/2d1308a551acff5965e26cd7ce237b6d230404f6_ligand_9.pdbqt
 14 15 0 0 0
SMALL
GASTEIGER

@<TRIPOS>ATOM
      1  C          5.7250    1.3870   -0.2690 C.3     1  UNL1        0.0800
      2  C          5.0790    1.2750    1.0680 C.2     1  UNL1        0.1300
      3  C          5.3640    0.1350    1.9800 C.3     1  UNL1        0.0870
      4  O          4.2910    2.1230    1.4570 O.2     1  UNL1       -0.3000
      5  C          7.2170    1.1340   -0.1830 C.3     1  UNL1        0.0430
      6  C          7.5910   -0.1480   -0.8050 C.2     1  UNL1       -0.0440
      7  C          7.6640   -0.2940   -2.1950 C.2     1  UNL1        0.0080
      8  C          7.8790   -1.2340   -0.0100 C.2     1  UNL1        0.0540
      9  C          8.0210   -1.5220   -2.7230 C.2     1  UNL1        0.0510
     10  C          8.2400   -2.4730   -0.5490 C.2     1  UNL1        0.1660
     11  C          8.3120   -2.6180   -1.9160 C.2     1  UNL1        0.1650
     12  O          8.5680   -3.6850    0.0200 O.2     1  UNL1       -0.4540
     13  O          8.6870   -3.9290   -2.1610 O.2     1  UNL1       -0.4540
     14  C          8.9480   -4.6160   -0.9600 C.3     1  UNL1        0.4680
@<TRIPOS>BOND
     1     9     7    1
     2     9    11    2
     3     7     6    2
     4    13    11    1
     5    13    14    1
     6    11    10    1
     7    14    12    1
     8     6     5    1
     9     6     8    1
    10    10     8    2
    11    10    12    1
    12     1     5    1
    13     1     2    1
    14     2     4    2
    15     2     3    1
