@<TRIPOS>MOLECULE
/home/cewinharhar/GITHUB/reincatalyze/data/processed/docking_pred/2023-May-25-1902_sub9_nm5_bs15_s42_ex16_mel10_mts10000_k50_ec01_g099_lra3e-4_lrc3e-3/2d1308a551acff5965e26cd7ce237b6d230404f6_ligand_9.pdbqt
 14 15 0 0 0
SMALL
GASTEIGER

@<TRIPOS>ATOM
      1  C          5.5030    1.9330    1.2620 C.3     1  UNL1        0.0800
      2  C          5.0620    0.7160    1.9990 C.2     1  UNL1        0.1300
      3  C          5.9490   -0.4680    2.1520 C.3     1  UNL1        0.0870
      4  O          3.9520    0.6560    2.5030 O.2     1  UNL1       -0.3000
      5  C          5.3820    1.7420   -0.2370 C.3     1  UNL1        0.0430
      6  C          6.5530    1.0420   -0.7950 C.2     1  UNL1       -0.0440
      7  C          7.8580    1.4760   -0.5370 C.2     1  UNL1        0.0080
      8  C          6.3700   -0.0690   -1.5870 C.2     1  UNL1        0.0540
      9  C          8.9180    0.7780   -1.0870 C.2     1  UNL1        0.0510
     10  C          7.4450   -0.7720   -2.1400 C.2     1  UNL1        0.1660
     11  C          8.7290   -0.3440   -1.8880 C.2     1  UNL1        0.1650
     12  O          7.5230   -1.8860   -2.9470 O.2     1  UNL1       -0.4540
     13  O          9.5790   -1.2150   -2.5520 O.2     1  UNL1       -0.4540
     14  C          8.8600   -2.2610   -3.1610 C.3     1  UNL1        0.4680
@<TRIPOS>BOND
     1    14    12    1
     2    14    13    1
     3    12    10    1
     4    13    11    1
     5    10    11    2
     6    10     8    1
     7    11     9    1
     8     8     6    2
     9     9     7    2
    10     6     7    1
    11     6     5    1
    12     5     1    1
    13     1     2    1
    14     2     3    1
    15     2     4    2
