@<TRIPOS>MOLECULE
/home/cewinharhar/GITHUB/reincatalyze/data/processed/docking_pred/2023-May-25-1902_sub9_nm5_bs15_s42_ex16_mel10_mts10000_k50_ec01_g099_lra3e-4_lrc3e-3/2d1308a551acff5965e26cd7ce237b6d230404f6_ligand_9.pdbqt
 14 15 0 0 0
SMALL
GASTEIGER

@<TRIPOS>ATOM
      1  C          5.5290    0.0280    1.9810 C.3     1  UNL1        0.0800
      2  C          4.6480    1.1800    1.6410 C.2     1  UNL1        0.1300
      3  C          4.9850    2.1230    0.5400 C.3     1  UNL1        0.0870
      4  O          3.6180    1.3860    2.2620 O.2     1  UNL1       -0.3000
      5  C          6.9530    0.2690    1.5180 C.3     1  UNL1        0.0430
      6  C          7.3560   -0.6870    0.4710 C.2     1  UNL1       -0.0440
      7  C          7.2380   -0.3780   -0.8890 C.2     1  UNL1        0.0080
      8  C          7.8650   -1.9150    0.8280 C.2     1  UNL1        0.0540
      9  C          7.6330   -1.3140   -1.8270 C.2     1  UNL1        0.0510
     10  C          8.2640   -2.8580   -0.1240 C.2     1  UNL1        0.1660
     11  C          8.1460   -2.5550   -1.4630 C.2     1  UNL1        0.1650
     12  O          8.7910   -4.1280   -0.0260 O.2     1  UNL1       -0.4540
     13  O          8.6100   -3.6560   -2.1650 O.2     1  UNL1       -0.4540
     14  C          9.1130   -4.6400   -1.2930 C.3     1  UNL1        0.4680
@<TRIPOS>BOND
     1    13    11    1
     2    13    14    1
     3     9    11    2
     4     9     7    1
     5    11    10    1
     6    14    12    1
     7     7     6    2
     8    10    12    1
     9    10     8    2
    10     6     8    1
    11     6     5    1
    12     3     2    1
    13     5     1    1
    14     2     1    1
    15     2     4    2
