@<TRIPOS>MOLECULE
/home/cewinharhar/GITHUB/reincatalyze/data/processed/docking_pred/2023-May-25-1902_sub9_nm5_bs15_s42_ex16_mel10_mts10000_k50_ec01_g099_lra3e-4_lrc3e-3/2d1308a551acff5965e26cd7ce237b6d230404f6_ligand_9.pdbqt
 14 15 0 0 0
SMALL
GASTEIGER

@<TRIPOS>ATOM
      1  C          8.3620    0.2220   -2.5570 C.3     1  UNL1        0.0800
      2  C          8.0490   -1.2260   -2.7110 C.2     1  UNL1        0.1300
      3  C          9.1030   -2.2230   -3.0390 C.3     1  UNL1        0.0870
      4  O          6.9090   -1.6380   -2.5720 O.2     1  UNL1       -0.3000
      5  C          8.8640    0.5320   -1.1610 C.3     1  UNL1        0.0430
      6  C          7.7940    0.4060   -0.1550 C.2     1  UNL1       -0.0440
      7  C          7.8470   -0.5630    0.8540 C.2     1  UNL1        0.0080
      8  C          6.7140    1.2580   -0.1980 C.2     1  UNL1        0.0540
      9  C          6.8140   -0.6330    1.7700 C.2     1  UNL1        0.0510
     10  C          5.6730    1.1830    0.7320 C.2     1  UNL1        0.1660
     11  C          5.7230    0.2290    1.7240 C.2     1  UNL1        0.1650
     12  O          4.5090    1.9030    0.8990 O.2     1  UNL1       -0.4540
     13  O          4.5770    0.3860    2.4880 O.2     1  UNL1       -0.4540
     14  C          3.8250    1.4940    2.0550 C.3     1  UNL1        0.4680
@<TRIPOS>BOND
     1     3     2    1
     2     2     4    2
     3     2     1    1
     4     1     5    1
     5     5     6    1
     6     8     6    2
     7     8    10    1
     8     6     7    1
     9    10    12    1
    10    10    11    2
    11     7     9    2
    12    12    14    1
    13    11     9    1
    14    11    13    1
    15    14    13    1
