MODEL 1
REMARK VINA RESULT:      -7.6      0.000      0.000
REMARK SMILES CC(=O)CCc1ccc2c(c1)OCO2
REMARK SMILES IDX 4 1 2 2 1 3 3 4 5 5 6 6 7 7 11 8 8 9 10 10 9 11 12 12 14 13
REMARK SMILES IDX 13 14
REMARK H PARENT
REMARK Flexibility Score: inf
ROOT
ATOM      1  C   UNL     1       5.503   1.933   1.262  1.00  0.00     0.080 C 
ENDROOT
BRANCH   1   2
ATOM      2  C   UNL     1       5.062   0.716   1.999  1.00  0.00     0.130 C 
ATOM      3  C   UNL     1       5.949  -0.468   2.152  1.00  0.00     0.087 C 
ATOM      4  O   UNL     1       3.952   0.656   2.503  1.00  0.00    -0.300 OA
ENDBRANCH   1   2
BRANCH   1   5
ATOM      5  C   UNL     1       5.382   1.742  -0.237  1.00  0.00     0.043 C 
BRANCH   5   6
ATOM      6  C   UNL     1       6.553   1.042  -0.795  1.00  0.00    -0.044 A 
ATOM      7  C   UNL     1       7.858   1.476  -0.537  1.00  0.00     0.008 A 
ATOM      8  C   UNL     1       6.370  -0.069  -1.587  1.00  0.00     0.054 A 
ATOM      9  C   UNL     1       8.918   0.778  -1.087  1.00  0.00     0.051 A 
ATOM     10  C   UNL     1       7.445  -0.772  -2.140  1.00  0.00     0.166 A 
ATOM     11  C   UNL     1       8.729  -0.344  -1.888  1.00  0.00     0.165 A 
ATOM     12  O   UNL     1       7.523  -1.886  -2.947  1.00  0.00    -0.454 OA
ATOM     13  O   UNL     1       9.579  -1.215  -2.552  1.00  0.00    -0.454 OA
ATOM     14  C   UNL     1       8.860  -2.261  -3.161  1.00  0.00     0.468 C 
ENDBRANCH   5   6
ENDBRANCH   1   5
TORSDOF 3
ENDMDL
MODEL 2
REMARK VINA RESULT:      -7.4      1.920      2.364
REMARK SMILES CC(=O)CCc1ccc2c(c1)OCO2
REMARK SMILES IDX 4 1 2 2 1 3 3 4 5 5 6 6 7 7 11 8 8 9 10 10 9 11 12 12 14 13
REMARK SMILES IDX 13 14
REMARK H PARENT
REMARK Flexibility Score: inf
ROOT
ATOM      1  C   UNL     1       5.725   1.387  -0.269  1.00  0.00     0.080 C 
ENDROOT
BRANCH   1   2
ATOM      2  C   UNL     1       5.079   1.275   1.068  1.00  0.00     0.130 C 
ATOM      3  C   UNL     1       5.364   0.135   1.980  1.00  0.00     0.087 C 
ATOM      4  O   UNL     1       4.291   2.123   1.457  1.00  0.00    -0.300 OA
ENDBRANCH   1   2
BRANCH   1   5
ATOM      5  C   UNL     1       7.217   1.134  -0.183  1.00  0.00     0.043 C 
BRANCH   5   6
ATOM      6  C   UNL     1       7.591  -0.148  -0.805  1.00  0.00    -0.044 A 
ATOM      7  C   UNL     1       7.664  -0.294  -2.195  1.00  0.00     0.008 A 
ATOM      8  C   UNL     1       7.879  -1.234  -0.010  1.00  0.00     0.054 A 
ATOM      9  C   UNL     1       8.021  -1.522  -2.723  1.00  0.00     0.051 A 
ATOM     10  C   UNL     1       8.240  -2.473  -0.549  1.00  0.00     0.166 A 
ATOM     11  C   UNL     1       8.312  -2.618  -1.916  1.00  0.00     0.165 A 
ATOM     12  O   UNL     1       8.568  -3.685   0.020  1.00  0.00    -0.454 OA
ATOM     13  O   UNL     1       8.687  -3.929  -2.161  1.00  0.00    -0.454 OA
ATOM     14  C   UNL     1       8.948  -4.616  -0.960  1.00  0.00     0.468 C 
ENDBRANCH   5   6
ENDBRANCH   1   5
TORSDOF 3
ENDMDL
MODEL 3
REMARK VINA RESULT:      -7.2      2.078      2.625
REMARK SMILES CC(=O)CCc1ccc2c(c1)OCO2
REMARK SMILES IDX 4 1 2 2 1 3 3 4 5 5 6 6 7 7 11 8 8 9 10 10 9 11 12 12 14 13
REMARK SMILES IDX 13 14
REMARK H PARENT
REMARK Flexibility Score: inf
ROOT
ATOM      1  C   UNL     1       5.529   0.028   1.981  1.00  0.00     0.080 C 
ENDROOT
BRANCH   1   2
ATOM      2  C   UNL     1       4.648   1.180   1.641  1.00  0.00     0.130 C 
ATOM      3  C   UNL     1       4.985   2.123   0.540  1.00  0.00     0.087 C 
ATOM      4  O   UNL     1       3.618   1.386   2.262  1.00  0.00    -0.300 OA
ENDBRANCH   1   2
BRANCH   1   5
ATOM      5  C   UNL     1       6.953   0.269   1.518  1.00  0.00     0.043 C 
BRANCH   5   6
ATOM      6  C   UNL     1       7.356  -0.687   0.471  1.00  0.00    -0.044 A 
ATOM      7  C   UNL     1       7.238  -0.378  -0.889  1.00  0.00     0.008 A 
ATOM      8  C   UNL     1       7.865  -1.915   0.828  1.00  0.00     0.054 A 
ATOM      9  C   UNL     1       7.633  -1.314  -1.827  1.00  0.00     0.051 A 
ATOM     10  C   UNL     1       8.264  -2.858  -0.124  1.00  0.00     0.166 A 
ATOM     11  C   UNL     1       8.146  -2.555  -1.463  1.00  0.00     0.165 A 
ATOM     12  O   UNL     1       8.791  -4.128  -0.026  1.00  0.00    -0.454 OA
ATOM     13  O   UNL     1       8.610  -3.656  -2.165  1.00  0.00    -0.454 OA
ATOM     14  C   UNL     1       9.113  -4.640  -1.293  1.00  0.00     0.468 C 
ENDBRANCH   5   6
ENDBRANCH   1   5
TORSDOF 3
ENDMDL
MODEL 4
REMARK VINA RESULT:      -7.1      1.261      1.482
REMARK SMILES CC(=O)CCc1ccc2c(c1)OCO2
REMARK SMILES IDX 4 1 2 2 1 3 3 4 5 5 6 6 7 7 11 8 8 9 10 10 9 11 12 12 14 13
REMARK SMILES IDX 13 14
REMARK H PARENT
REMARK Flexibility Score: inf
ROOT
ATOM      1  C   UNL     1       6.385   1.189   0.938  1.00  0.00     0.080 C 
ENDROOT
BRANCH   1   2
ATOM      2  C   UNL     1       5.659   0.372   1.950  1.00  0.00     0.130 C 
ATOM      3  C   UNL     1       6.256  -0.858   2.535  1.00  0.00     0.087 C 
ATOM      4  O   UNL     1       4.545   0.693   2.331  1.00  0.00    -0.300 OA
ENDBRANCH   1   2
BRANCH   1   5
ATOM      5  C   UNL     1       5.873   0.913  -0.462  1.00  0.00     0.043 C 
BRANCH   5   6
ATOM      6  C   UNL     1       6.819   0.093  -1.239  1.00  0.00    -0.044 A 
ATOM      7  C   UNL     1       7.500   0.611  -2.346  1.00  0.00     0.008 A 
ATOM      8  C   UNL     1       7.049  -1.214  -0.874  1.00  0.00     0.054 A 
ATOM      9  C   UNL     1       8.377  -0.205  -3.037  1.00  0.00     0.051 A 
ATOM     10  C   UNL     1       7.937  -2.035  -1.575  1.00  0.00     0.166 A 
ATOM     11  C   UNL     1       8.607  -1.526  -2.665  1.00  0.00     0.165 A 
ATOM     12  O   UNL     1       8.331  -3.347  -1.414  1.00  0.00    -0.454 OA
ATOM     13  O   UNL     1       9.407  -2.547  -3.156  1.00  0.00    -0.454 OA
ATOM     14  C   UNL     1       9.331  -3.690  -2.338  1.00  0.00     0.468 C 
ENDBRANCH   5   6
ENDBRANCH   1   5
TORSDOF 3
ENDMDL
MODEL 5
REMARK VINA RESULT:      -6.7      1.180      5.190
REMARK SMILES CC(=O)CCc1ccc2c(c1)OCO2
REMARK SMILES IDX 4 1 2 2 1 3 3 4 5 5 6 6 7 7 11 8 8 9 10 10 9 11 12 12 14 13
REMARK SMILES IDX 13 14
REMARK H PARENT
REMARK Flexibility Score: inf
ROOT
ATOM      1  C   UNL     1       8.362   0.222  -2.557  1.00  0.00     0.080 C 
ENDROOT
BRANCH   1   2
ATOM      2  C   UNL     1       8.049  -1.226  -2.711  1.00  0.00     0.130 C 
ATOM      3  C   UNL     1       9.103  -2.223  -3.039  1.00  0.00     0.087 C 
ATOM      4  O   UNL     1       6.909  -1.638  -2.572  1.00  0.00    -0.300 OA
ENDBRANCH   1   2
BRANCH   1   5
ATOM      5  C   UNL     1       8.864   0.532  -1.161  1.00  0.00     0.043 C 
BRANCH   5   6
ATOM      6  C   UNL     1       7.794   0.406  -0.155  1.00  0.00    -0.044 A 
ATOM      7  C   UNL     1       7.847  -0.563   0.854  1.00  0.00     0.008 A 
ATOM      8  C   UNL     1       6.714   1.258  -0.198  1.00  0.00     0.054 A 
ATOM      9  C   UNL     1       6.814  -0.633   1.770  1.00  0.00     0.051 A 
ATOM     10  C   UNL     1       5.673   1.183   0.732  1.00  0.00     0.166 A 
ATOM     11  C   UNL     1       5.723   0.229   1.724  1.00  0.00     0.165 A 
ATOM     12  O   UNL     1       4.509   1.903   0.899  1.00  0.00    -0.454 OA
ATOM     13  O   UNL     1       4.577   0.386   2.488  1.00  0.00    -0.454 OA
ATOM     14  C   UNL     1       3.825   1.494   2.055  1.00  0.00     0.468 C 
ENDBRANCH   5   6
ENDBRANCH   1   5
TORSDOF 3
ENDMDL
