@<TRIPOS>MOLECULE
/home/cewinharhar/GITHUB/reincatalyze/data/processed/docking_pred/2023-May-25-1902_sub9_nm5_bs15_s42_ex16_mel10_mts10000_k50_ec01_g099_lra3e-4_lrc3e-3/2d2d9026ea33a6842fa37a74e1533968fe9c5ac5_ligand_9.pdbqt
 14 15 0 0 0
SMALL
GASTEIGER

@<TRIPOS>ATOM
      1  C          8.1300   -2.5760   -3.6030 C.3     1  UNL1        0.0800
      2  C          9.2430   -3.5420   -3.3900 C.2     1  UNL1        0.1300
      3  C          8.9930   -5.0010   -3.2470 C.3     1  UNL1        0.0870
      4  O         10.4000   -3.1610   -3.3250 O.2     1  UNL1       -0.3000
      5  C          8.4920   -1.1960   -3.0890 C.3     1  UNL1        0.0430
      6  C          7.7300   -0.8480   -1.8770 C.2     1  UNL1       -0.0440
      7  C          7.7600   -1.6560   -0.7340 C.2     1  UNL1        0.0080
      8  C          6.9690    0.2990   -1.8560 C.2     1  UNL1        0.0540
      9  C          7.0250   -1.2770    0.3750 C.2     1  UNL1        0.0510
     10  C          6.2280    0.6770   -0.7320 C.2     1  UNL1        0.1660
     11  C          6.2560   -0.1180    0.3920 C.2     1  UNL1        0.1650
     12  O          5.4050    1.7510   -0.4670 O.2     1  UNL1       -0.4540
     13  O          5.4430    0.4920    1.3350 O.2     1  UNL1       -0.4540
     14  C          4.9560    1.7260    0.8640 C.3     1  UNL1        0.4680
@<TRIPOS>BOND
     1     1     2    1
     2     1     5    1
     3     2     4    2
     4     2     3    1
     5     5     6    1
     6     6     8    2
     7     6     7    1
     8     8    10    1
     9     7     9    2
    10    10    12    1
    11    10    11    2
    12    12    14    1
    13     9    11    1
    14    11    13    1
    15    14    13    1
