@<TRIPOS>MOLECULE
/home/cewinharhar/GITHUB/reincatalyze/data/processed/docking_pred/2023-May-25-1902_sub9_nm5_bs15_s42_ex16_mel10_mts10000_k50_ec01_g099_lra3e-4_lrc3e-3/2d2d9026ea33a6842fa37a74e1533968fe9c5ac5_ligand_9.pdbqt
 14 15 0 0 0
SMALL
GASTEIGER

@<TRIPOS>ATOM
      1  C          9.6230    1.3380    2.4320 C.3     1  UNL1        0.0800
      2  C         11.0560    0.9460    2.5370 C.2     1  UNL1        0.1300
      3  C         12.0070    1.6880    3.4080 C.3     1  UNL1        0.0870
      4  O         11.4940   -0.0030    1.9070 O.2     1  UNL1       -0.3000
      5  C          9.3300    2.0000    1.1000 C.3     1  UNL1        0.0430
      6  C          8.5820    1.1060    0.1990 C.2     1  UNL1       -0.0440
      7  C          7.1870    1.0060    0.2570 C.2     1  UNL1        0.0080
      8  C          9.2600    0.3480   -0.7280 C.2     1  UNL1        0.0540
      9  C          6.5380    0.1510   -0.6150 C.2     1  UNL1        0.0510
     10  C          8.6000   -0.5150   -1.6080 C.2     1  UNL1        0.1660
     11  C          7.2280   -0.6150   -1.5500 C.2     1  UNL1        0.1650
     12  O          9.0420   -1.3610   -2.6030 O.2     1  UNL1       -0.4540
     13  O          6.8520   -1.5290   -2.5220 O.2     1  UNL1       -0.4540
     14  C          7.9620   -1.9580   -3.2730 C.3     1  UNL1        0.4680
@<TRIPOS>BOND
     1    14    12    1
     2    14    13    1
     3    12    10    1
     4    13    11    1
     5    10    11    2
     6    10     8    1
     7    11     9    1
     8     8     6    2
     9     9     7    2
    10     6     7    1
    11     6     5    1
    12     5     1    1
    13     4     2    2
    14     1     2    1
    15     2     3    1
