@<TRIPOS>MOLECULE
/home/cewinharhar/GITHUB/reincatalyze/data/processed/docking_pred/2023-May-25-1902_sub9_nm5_bs15_s42_ex16_mel10_mts10000_k50_ec01_g099_lra3e-4_lrc3e-3/2d863d4e78c56822cb27942f8f89755da93ab859_ligand_9.pdbqt
 14 15 0 0 0
SMALL
GASTEIGER

@<TRIPOS>ATOM
      1  C          8.3450    0.2050   -2.6720 C.3     1  UNL1        0.0800
      2  C          8.0220   -1.2470   -2.7430 C.2     1  UNL1        0.1300
      3  C          9.0680   -2.2670   -3.0230 C.3     1  UNL1        0.0870
      4  O          6.8810   -1.6450   -2.5730 O.2     1  UNL1       -0.3000
      5  C          8.8700    0.5860   -1.3020 C.3     1  UNL1        0.0430
      6  C          7.8380    0.4370   -0.2610 C.2     1  UNL1       -0.0440
      7  C          7.9500   -0.5250    0.7500 C.2     1  UNL1        0.0080
      8  C          6.7350    1.2590   -0.2710 C.2     1  UNL1        0.0540
      9  C          6.9510   -0.6190    1.7010 C.2     1  UNL1        0.0510
     10  C          5.7280    1.1620    0.6940 C.2     1  UNL1        0.1660
     11  C          5.8370    0.2150    1.6880 C.2     1  UNL1        0.1650
     12  O          4.5510    1.8510    0.8970 O.2     1  UNL1       -0.4540
     13  O          4.7130    0.3440    2.4900 O.2     1  UNL1       -0.4540
     14  C          3.9170    1.4300    2.0780 C.3     1  UNL1        0.4680
@<TRIPOS>BOND
     1     3     2    1
     2     2     1    1
     3     2     4    2
     4     1     5    1
     5     5     6    1
     6     8     6    2
     7     8    10    1
     8     6     7    1
     9    10    12    1
    10    10    11    2
    11     7     9    2
    12    12    14    1
    13    11     9    1
    14    11    13    1
    15    14    13    1
