@<TRIPOS>MOLECULE
/home/cewinharhar/GITHUB/reincatalyze/data/processed/docking_pred/2023-May-25-1902_sub9_nm5_bs15_s42_ex16_mel10_mts10000_k50_ec01_g099_lra3e-4_lrc3e-3/2d863d4e78c56822cb27942f8f89755da93ab859_ligand_9.pdbqt
 14 15 0 0 0
SMALL
GASTEIGER

@<TRIPOS>ATOM
      1  C          5.8010    1.2170   -0.2970 C.3     1  UNL1        0.0800
      2  C          5.2820    1.1820    1.0990 C.2     1  UNL1        0.1300
      3  C          5.4300   -0.0230    1.9570 C.3     1  UNL1        0.0870
      4  O          4.7150    2.1500    1.5810 O.2     1  UNL1       -0.3000
      5  C          7.3070    1.0470   -0.3280 C.3     1  UNL1        0.0430
      6  C          7.6990   -0.2440   -0.9210 C.2     1  UNL1       -0.0440
      7  C          7.8370   -0.4040   -2.3040 C.2     1  UNL1        0.0080
      8  C          7.9410   -1.3250   -0.1030 C.2     1  UNL1        0.0540
      9  C          8.2080   -1.6390   -2.8040 C.2     1  UNL1        0.0510
     10  C          8.3170   -2.5710   -0.6130 C.2     1  UNL1        0.1660
     11  C          8.4510   -2.7290   -1.9740 C.2     1  UNL1        0.1650
     12  O          8.6080   -3.7810   -0.0180 O.2     1  UNL1       -0.4540
     13  O          8.8270   -4.0460   -2.1900 O.2     1  UNL1       -0.4540
     14  C          9.0260   -4.7240   -0.9720 C.3     1  UNL1        0.4680
@<TRIPOS>BOND
     1     9     7    1
     2     9    11    2
     3     7     6    2
     4    13    11    1
     5    13    14    1
     6    11    10    1
     7    14    12    1
     8     6     5    1
     9     6     8    1
    10    10     8    2
    11    10    12    1
    12     5     1    1
    13     1     2    1
    14     2     4    2
    15     2     3    1
