@<TRIPOS>MOLECULE
/home/cewinharhar/GITHUB/reincatalyze/data/processed/docking_pred/2023-May-25-1902_sub9_nm5_bs15_s42_ex16_mel10_mts10000_k50_ec01_g099_lra3e-4_lrc3e-3/2d863d4e78c56822cb27942f8f89755da93ab859_ligand_9.pdbqt
 14 15 0 0 0
SMALL
GASTEIGER

@<TRIPOS>ATOM
      1  C          5.5050    1.9250    1.2570 C.3     1  UNL1        0.0800
      2  C          5.0550    0.7120    1.9960 C.2     1  UNL1        0.1300
      3  C          5.9300   -0.4810    2.1430 C.3     1  UNL1        0.0870
      4  O          3.9470    0.6630    2.5050 O.2     1  UNL1       -0.3000
      5  C          5.3830    1.7340   -0.2410 C.3     1  UNL1        0.0430
      6  C          6.5540    1.0360   -0.8000 C.2     1  UNL1       -0.0440
      7  C          7.8590    1.4750   -0.5460 C.2     1  UNL1        0.0080
      8  C          6.3730   -0.0760   -1.5910 C.2     1  UNL1        0.0540
      9  C          8.9200    0.7800   -1.0970 C.2     1  UNL1        0.0510
     10  C          7.4490   -0.7760   -2.1450 C.2     1  UNL1        0.1660
     11  C          8.7330   -0.3440   -1.8970 C.2     1  UNL1        0.1650
     12  O          7.5290   -1.8910   -2.9510 O.2     1  UNL1       -0.4540
     13  O          9.5840   -1.2130   -2.5620 O.2     1  UNL1       -0.4540
     14  C          8.8670   -2.2610   -3.1680 C.3     1  UNL1        0.4680
@<TRIPOS>BOND
     1    14    12    1
     2    14    13    1
     3    12    10    1
     4    13    11    1
     5    10    11    2
     6    10     8    1
     7    11     9    1
     8     8     6    2
     9     9     7    2
    10     6     7    1
    11     6     5    1
    12     5     1    1
    13     1     2    1
    14     2     3    1
    15     2     4    2
