MODEL 1
REMARK VINA RESULT:      -7.7      0.000      0.000
REMARK SMILES CC(=O)CCc1ccc2c(c1)OCO2
REMARK SMILES IDX 4 1 2 2 1 3 3 4 5 5 6 6 7 7 11 8 8 9 10 10 9 11 12 12 14 13
REMARK SMILES IDX 13 14
REMARK H PARENT
REMARK Flexibility Score: inf
ROOT
ATOM      1  C   UNL     1       5.505   1.925   1.257  1.00  0.00     0.080 C 
ENDROOT
BRANCH   1   2
ATOM      2  C   UNL     1       5.055   0.712   1.996  1.00  0.00     0.130 C 
ATOM      3  C   UNL     1       5.930  -0.481   2.143  1.00  0.00     0.087 C 
ATOM      4  O   UNL     1       3.947   0.663   2.505  1.00  0.00    -0.300 OA
ENDBRANCH   1   2
BRANCH   1   5
ATOM      5  C   UNL     1       5.383   1.734  -0.241  1.00  0.00     0.043 C 
BRANCH   5   6
ATOM      6  C   UNL     1       6.554   1.036  -0.800  1.00  0.00    -0.044 A 
ATOM      7  C   UNL     1       7.859   1.475  -0.546  1.00  0.00     0.008 A 
ATOM      8  C   UNL     1       6.373  -0.076  -1.591  1.00  0.00     0.054 A 
ATOM      9  C   UNL     1       8.920   0.780  -1.097  1.00  0.00     0.051 A 
ATOM     10  C   UNL     1       7.449  -0.776  -2.145  1.00  0.00     0.166 A 
ATOM     11  C   UNL     1       8.733  -0.344  -1.897  1.00  0.00     0.165 A 
ATOM     12  O   UNL     1       7.529  -1.891  -2.951  1.00  0.00    -0.454 OA
ATOM     13  O   UNL     1       9.584  -1.213  -2.562  1.00  0.00    -0.454 OA
ATOM     14  C   UNL     1       8.867  -2.261  -3.168  1.00  0.00     0.468 C 
ENDBRANCH   5   6
ENDBRANCH   1   5
TORSDOF 3
ENDMDL
MODEL 2
REMARK VINA RESULT:      -7.4      1.944      2.429
REMARK SMILES CC(=O)CCc1ccc2c(c1)OCO2
REMARK SMILES IDX 4 1 2 2 1 3 3 4 5 5 6 6 7 7 11 8 8 9 10 10 9 11 12 12 14 13
REMARK SMILES IDX 13 14
REMARK H PARENT
REMARK Flexibility Score: inf
ROOT
ATOM      1  C   UNL     1       5.801   1.217  -0.297  1.00  0.00     0.080 C 
ENDROOT
BRANCH   1   2
ATOM      2  C   UNL     1       5.282   1.182   1.099  1.00  0.00     0.130 C 
ATOM      3  C   UNL     1       5.430  -0.023   1.957  1.00  0.00     0.087 C 
ATOM      4  O   UNL     1       4.715   2.150   1.581  1.00  0.00    -0.300 OA
ENDBRANCH   1   2
BRANCH   1   5
ATOM      5  C   UNL     1       7.307   1.047  -0.328  1.00  0.00     0.043 C 
BRANCH   5   6
ATOM      6  C   UNL     1       7.699  -0.244  -0.921  1.00  0.00    -0.044 A 
ATOM      7  C   UNL     1       7.837  -0.404  -2.304  1.00  0.00     0.008 A 
ATOM      8  C   UNL     1       7.941  -1.325  -0.103  1.00  0.00     0.054 A 
ATOM      9  C   UNL     1       8.208  -1.639  -2.804  1.00  0.00     0.051 A 
ATOM     10  C   UNL     1       8.317  -2.571  -0.613  1.00  0.00     0.166 A 
ATOM     11  C   UNL     1       8.451  -2.729  -1.974  1.00  0.00     0.165 A 
ATOM     12  O   UNL     1       8.608  -3.781  -0.018  1.00  0.00    -0.454 OA
ATOM     13  O   UNL     1       8.827  -4.046  -2.190  1.00  0.00    -0.454 OA
ATOM     14  C   UNL     1       9.026  -4.724  -0.972  1.00  0.00     0.468 C 
ENDBRANCH   5   6
ENDBRANCH   1   5
TORSDOF 3
ENDMDL
MODEL 3
REMARK VINA RESULT:      -7.2      2.079      2.647
REMARK SMILES CC(=O)CCc1ccc2c(c1)OCO2
REMARK SMILES IDX 4 1 2 2 1 3 3 4 5 5 6 6 7 7 11 8 8 9 10 10 9 11 12 12 14 13
REMARK SMILES IDX 13 14
REMARK H PARENT
REMARK Flexibility Score: inf
ROOT
ATOM      1  C   UNL     1       5.452  -0.043   2.004  1.00  0.00     0.080 C 
ENDROOT
BRANCH   1   2
ATOM      2  C   UNL     1       4.594   1.148   1.751  1.00  0.00     0.130 C 
ATOM      3  C   UNL     1       4.913   2.126   0.676  1.00  0.00     0.087 C 
ATOM      4  O   UNL     1       3.598   1.357   2.424  1.00  0.00    -0.300 OA
ENDBRANCH   1   2
BRANCH   1   5
ATOM      5  C   UNL     1       6.882   0.207   1.568  1.00  0.00     0.043 C 
BRANCH   5   6
ATOM      6  C   UNL     1       7.305  -0.734   0.516  1.00  0.00    -0.044 A 
ATOM      7  C   UNL     1       7.185  -0.418  -0.842  1.00  0.00     0.008 A 
ATOM      8  C   UNL     1       7.835  -1.956   0.866  1.00  0.00     0.054 A 
ATOM      9  C   UNL     1       7.600  -1.340  -1.785  1.00  0.00     0.051 A 
ATOM     10  C   UNL     1       8.253  -2.885  -0.092  1.00  0.00     0.166 A 
ATOM     11  C   UNL     1       8.134  -2.574  -1.428  1.00  0.00     0.165 A 
ATOM     12  O   UNL     1       8.803  -4.146  -0.000  1.00  0.00    -0.454 OA
ATOM     13  O   UNL     1       8.619  -3.662  -2.137  1.00  0.00    -0.454 OA
ATOM     14  C   UNL     1       9.137  -4.644  -1.270  1.00  0.00     0.468 C 
ENDBRANCH   5   6
ENDBRANCH   1   5
TORSDOF 3
ENDMDL
MODEL 4
REMARK VINA RESULT:      -7.1      1.261      1.462
REMARK SMILES CC(=O)CCc1ccc2c(c1)OCO2
REMARK SMILES IDX 4 1 2 2 1 3 3 4 5 5 6 6 7 7 11 8 8 9 10 10 9 11 12 12 14 13
REMARK SMILES IDX 13 14
REMARK H PARENT
REMARK Flexibility Score: inf
ROOT
ATOM      1  C   UNL     1       6.363   1.222   0.964  1.00  0.00     0.080 C 
ENDROOT
BRANCH   1   2
ATOM      2  C   UNL     1       5.658   0.363   1.956  1.00  0.00     0.130 C 
ATOM      3  C   UNL     1       6.289  -0.863   2.515  1.00  0.00     0.087 C 
ATOM      4  O   UNL     1       4.534   0.642   2.340  1.00  0.00    -0.300 OA
ENDBRANCH   1   2
BRANCH   1   5
ATOM      5  C   UNL     1       5.855   0.971  -0.442  1.00  0.00     0.043 C 
BRANCH   5   6
ATOM      6  C   UNL     1       6.790   0.138  -1.219  1.00  0.00    -0.044 A 
ATOM      7  C   UNL     1       7.456   0.638  -2.344  1.00  0.00     0.008 A 
ATOM      8  C   UNL     1       7.023  -1.164  -0.838  1.00  0.00     0.054 A 
ATOM      9  C   UNL     1       8.322  -0.189  -3.035  1.00  0.00     0.051 A 
ATOM     10  C   UNL     1       7.900  -1.997  -1.539  1.00  0.00     0.166 A 
ATOM     11  C   UNL     1       8.555  -1.505  -2.647  1.00  0.00     0.165 A 
ATOM     12  O   UNL     1       8.294  -3.306  -1.365  1.00  0.00    -0.454 OA
ATOM     13  O   UNL     1       9.346  -2.534  -3.133  1.00  0.00    -0.454 OA
ATOM     14  C   UNL     1       9.281  -3.665  -2.298  1.00  0.00     0.468 C 
ENDBRANCH   5   6
ENDBRANCH   1   5
TORSDOF 3
ENDMDL
MODEL 5
REMARK VINA RESULT:      -6.8      1.196      5.157
REMARK SMILES CC(=O)CCc1ccc2c(c1)OCO2
REMARK SMILES IDX 4 1 2 2 1 3 3 4 5 5 6 6 7 7 11 8 8 9 10 10 9 11 12 12 14 13
REMARK SMILES IDX 13 14
REMARK H PARENT
REMARK Flexibility Score: inf
ROOT
ATOM      1  C   UNL     1       8.345   0.205  -2.672  1.00  0.00     0.080 C 
ENDROOT
BRANCH   1   2
ATOM      2  C   UNL     1       8.022  -1.247  -2.743  1.00  0.00     0.130 C 
ATOM      3  C   UNL     1       9.068  -2.267  -3.023  1.00  0.00     0.087 C 
ATOM      4  O   UNL     1       6.881  -1.645  -2.573  1.00  0.00    -0.300 OA
ENDBRANCH   1   2
BRANCH   1   5
ATOM      5  C   UNL     1       8.870   0.586  -1.302  1.00  0.00     0.043 C 
BRANCH   5   6
ATOM      6  C   UNL     1       7.838   0.437  -0.261  1.00  0.00    -0.044 A 
ATOM      7  C   UNL     1       7.950  -0.525   0.750  1.00  0.00     0.008 A 
ATOM      8  C   UNL     1       6.735   1.259  -0.271  1.00  0.00     0.054 A 
ATOM      9  C   UNL     1       6.951  -0.619   1.701  1.00  0.00     0.051 A 
ATOM     10  C   UNL     1       5.728   1.162   0.694  1.00  0.00     0.166 A 
ATOM     11  C   UNL     1       5.837   0.215   1.688  1.00  0.00     0.165 A 
ATOM     12  O   UNL     1       4.551   1.851   0.897  1.00  0.00    -0.454 OA
ATOM     13  O   UNL     1       4.713   0.344   2.490  1.00  0.00    -0.454 OA
ATOM     14  C   UNL     1       3.917   1.430   2.078  1.00  0.00     0.468 C 
ENDBRANCH   5   6
ENDBRANCH   1   5
TORSDOF 3
ENDMDL
