@<TRIPOS>MOLECULE
/home/cewinharhar/GITHUB/reincatalyze/data/processed/docking_pred/2023-May-25-1902_sub9_nm5_bs15_s42_ex16_mel10_mts10000_k50_ec01_g099_lra3e-4_lrc3e-3/2f41e52dfc6618f39d2325611a45b0a1c53476a0_ligand_9.pdbqt
 14 15 0 0 0
SMALL
GASTEIGER

@<TRIPOS>ATOM
      1  C          6.3640    1.2100    0.9190 C.3     1  UNL1        0.0800
      2  C          5.6520    0.3880    1.9380 C.2     1  UNL1        0.1300
      3  C          6.2590   -0.8420    2.5120 C.3     1  UNL1        0.0870
      4  O          4.5410    0.7040    2.3330 O.2     1  UNL1       -0.3000
      5  C          5.8540    0.9180   -0.4780 C.3     1  UNL1        0.0430
      6  C          6.8090    0.1010   -1.2480 C.2     1  UNL1       -0.0440
      7  C          7.5070    0.6260   -2.3420 C.2     1  UNL1        0.0080
      8  C          7.0290   -1.2100   -0.8910 C.2     1  UNL1        0.0540
      9  C          8.3910   -0.1880   -3.0260 C.2     1  UNL1        0.0510
     10  C          7.9240   -2.0280   -1.5860 C.2     1  UNL1        0.1660
     11  C          8.6110   -1.5130   -2.6630 C.2     1  UNL1        0.1650
     12  O          8.3110   -3.3420   -1.4310 O.2     1  UNL1       -0.4540
     13  O          9.4140   -2.5310   -3.1510 O.2     1  UNL1       -0.4540
     14  C          9.3230   -3.6810   -2.3440 C.3     1  UNL1        0.4680
@<TRIPOS>BOND
     1    13    11    1
     2    13    14    1
     3     9    11    2
     4     9     7    1
     5    11    10    1
     6    14    12    1
     7     7     6    2
     8    10    12    1
     9    10     8    2
    10     6     8    1
    11     6     5    1
    12     5     1    1
    13     1     2    1
    14     2     4    2
    15     2     3    1
