MODEL 1
REMARK VINA RESULT:      -7.3      0.000      0.000
REMARK SMILES CC(=O)CCc1ccc2c(c1)OCO2
REMARK SMILES IDX 4 1 2 2 1 3 3 4 5 5 6 6 7 7 11 8 8 9 10 10 9 11 12 12 14 13
REMARK SMILES IDX 13 14
REMARK H PARENT
REMARK Flexibility Score: inf
ROOT
ATOM      1  C   UNL     1       5.882   1.636   1.347  1.00  0.00     0.080 C 
ENDROOT
BRANCH   1   2
ATOM      2  C   UNL     1       5.344   0.449   2.068  1.00  0.00     0.130 C 
ATOM      3  C   UNL     1       6.166  -0.771   2.285  1.00  0.00     0.087 C 
ATOM      4  O   UNL     1       4.204   0.444   2.504  1.00  0.00    -0.300 OA
ENDBRANCH   1   2
BRANCH   1   5
ATOM      5  C   UNL     1       5.674   1.512  -0.150  1.00  0.00     0.043 C 
BRANCH   5   6
ATOM      6  C   UNL     1       6.794   0.807  -0.800  1.00  0.00    -0.044 A 
ATOM      7  C   UNL     1       8.094   1.324  -0.784  1.00  0.00     0.008 A 
ATOM      8  C   UNL     1       6.567  -0.391  -1.439  1.00  0.00     0.054 A 
ATOM      9  C   UNL     1       9.105   0.618  -1.410  1.00  0.00     0.051 A 
ATOM     10  C   UNL     1       7.592  -1.101  -2.070  1.00  0.00     0.166 A 
ATOM     11  C   UNL     1       8.872  -0.592  -2.056  1.00  0.00     0.165 A 
ATOM     12  O   UNL     1       7.622  -2.293  -2.762  1.00  0.00    -0.454 OA
ATOM     13  O   UNL     1       9.669  -1.492  -2.746  1.00  0.00    -0.454 OA
ATOM     14  C   UNL     1       8.934  -2.629  -3.132  1.00  0.00     0.468 C 
ENDBRANCH   5   6
ENDBRANCH   1   5
TORSDOF 3
ENDMDL
MODEL 2
REMARK VINA RESULT:      -7.2      1.131      1.178
REMARK SMILES CC(=O)CCc1ccc2c(c1)OCO2
REMARK SMILES IDX 4 1 2 2 1 3 3 4 5 5 6 6 7 7 11 8 8 9 10 10 9 11 12 12 14 13
REMARK SMILES IDX 13 14
REMARK H PARENT
REMARK Flexibility Score: inf
ROOT
ATOM      1  C   UNL     1       6.364   1.210   0.919  1.00  0.00     0.080 C 
ENDROOT
BRANCH   1   2
ATOM      2  C   UNL     1       5.652   0.388   1.938  1.00  0.00     0.130 C 
ATOM      3  C   UNL     1       6.259  -0.842   2.512  1.00  0.00     0.087 C 
ATOM      4  O   UNL     1       4.541   0.704   2.333  1.00  0.00    -0.300 OA
ENDBRANCH   1   2
BRANCH   1   5
ATOM      5  C   UNL     1       5.854   0.918  -0.478  1.00  0.00     0.043 C 
BRANCH   5   6
ATOM      6  C   UNL     1       6.809   0.101  -1.248  1.00  0.00    -0.044 A 
ATOM      7  C   UNL     1       7.507   0.626  -2.342  1.00  0.00     0.008 A 
ATOM      8  C   UNL     1       7.029  -1.210  -0.891  1.00  0.00     0.054 A 
ATOM      9  C   UNL     1       8.391  -0.188  -3.026  1.00  0.00     0.051 A 
ATOM     10  C   UNL     1       7.924  -2.028  -1.586  1.00  0.00     0.166 A 
ATOM     11  C   UNL     1       8.611  -1.513  -2.663  1.00  0.00     0.165 A 
ATOM     12  O   UNL     1       8.311  -3.342  -1.431  1.00  0.00    -0.454 OA
ATOM     13  O   UNL     1       9.414  -2.531  -3.151  1.00  0.00    -0.454 OA
ATOM     14  C   UNL     1       9.323  -3.681  -2.344  1.00  0.00     0.468 C 
ENDBRANCH   5   6
ENDBRANCH   1   5
TORSDOF 3
ENDMDL
MODEL 3
REMARK VINA RESULT:      -7.0      1.821      2.318
REMARK SMILES CC(=O)CCc1ccc2c(c1)OCO2
REMARK SMILES IDX 4 1 2 2 1 3 3 4 5 5 6 6 7 7 11 8 8 9 10 10 9 11 12 12 14 13
REMARK SMILES IDX 13 14
REMARK H PARENT
REMARK Flexibility Score: inf
ROOT
ATOM      1  C   UNL     1       5.895   1.085  -0.220  1.00  0.00     0.080 C 
ENDROOT
BRANCH   1   2
ATOM      2  C   UNL     1       5.872   1.142   1.268  1.00  0.00     0.130 C 
ATOM      3  C   UNL     1       5.304   0.035   2.083  1.00  0.00     0.087 C 
ATOM      4  O   UNL     1       6.323   2.106   1.865  1.00  0.00    -0.300 OA
ENDBRANCH   1   2
BRANCH   1   5
ATOM      5  C   UNL     1       7.316   1.090  -0.750  1.00  0.00     0.043 C 
BRANCH   5   6
ATOM      6  C   UNL     1       7.729  -0.245  -1.220  1.00  0.00    -0.044 A 
ATOM      7  C   UNL     1       7.959  -0.505  -2.575  1.00  0.00     0.008 A 
ATOM      8  C   UNL     1       7.897  -1.265  -0.312  1.00  0.00     0.054 A 
ATOM      9  C   UNL     1       8.345  -1.777  -2.958  1.00  0.00     0.051 A 
ATOM     10  C   UNL     1       8.289  -2.549  -0.704  1.00  0.00     0.166 A 
ATOM     11  C   UNL     1       8.514  -2.807  -2.038  1.00  0.00     0.165 A 
ATOM     12  O   UNL     1       8.520  -3.715  -0.006  1.00  0.00    -0.454 OA
ATOM     13  O   UNL     1       8.884  -4.139  -2.132  1.00  0.00    -0.454 OA
ATOM     14  C   UNL     1       8.989  -4.729  -0.858  1.00  0.00     0.468 C 
ENDBRANCH   5   6
ENDBRANCH   1   5
TORSDOF 3
ENDMDL
MODEL 4
REMARK VINA RESULT:      -6.6      2.044      2.594
REMARK SMILES CC(=O)CCc1ccc2c(c1)OCO2
REMARK SMILES IDX 4 1 2 2 1 3 3 4 5 5 6 6 7 7 11 8 8 9 10 10 9 11 12 12 14 13
REMARK SMILES IDX 13 14
REMARK H PARENT
REMARK Flexibility Score: inf
ROOT
ATOM      1  C   UNL     1       6.166  -0.401   2.309  1.00  0.00     0.080 C 
ENDROOT
BRANCH   1   2
ATOM      2  C   UNL     1       5.110   0.554   1.872  1.00  0.00     0.130 C 
ATOM      3  C   UNL     1       5.260   1.375   0.640  1.00  0.00     0.087 C 
ATOM      4  O   UNL     1       4.083   0.692   2.518  1.00  0.00    -0.300 OA
ENDBRANCH   1   2
BRANCH   1   5
ATOM      5  C   UNL     1       7.495  -0.090   1.651  1.00  0.00     0.043 C 
BRANCH   5   6
ATOM      6  C   UNL     1       7.791  -1.022   0.548  1.00  0.00    -0.044 A 
ATOM      7  C   UNL     1       7.684  -0.631  -0.791  1.00  0.00     0.008 A 
ATOM      8  C   UNL     1       8.186  -2.310   0.832  1.00  0.00     0.054 A 
ATOM      9  C   UNL     1       7.975  -1.549  -1.784  1.00  0.00     0.051 A 
ATOM     10  C   UNL     1       8.480  -3.234  -0.175  1.00  0.00     0.166 A 
ATOM     11  C   UNL     1       8.373  -2.851  -1.494  1.00  0.00     0.165 A 
ATOM     12  O   UNL     1       8.885  -4.552  -0.152  1.00  0.00    -0.454 OA
ATOM     13  O   UNL     1       8.720  -3.952  -2.261  1.00  0.00    -0.454 OA
ATOM     14  C   UNL     1       9.139  -5.024  -1.451  1.00  0.00     0.468 C 
ENDBRANCH   5   6
ENDBRANCH   1   5
TORSDOF 3
ENDMDL
MODEL 5
REMARK VINA RESULT:      -6.4      0.914      1.008
REMARK SMILES CC(=O)CCc1ccc2c(c1)OCO2
REMARK SMILES IDX 4 1 2 2 1 3 3 4 5 5 6 6 7 7 11 8 8 9 10 10 9 11 12 12 14 13
REMARK SMILES IDX 13 14
REMARK H PARENT
REMARK Flexibility Score: inf
ROOT
ATOM      1  C   UNL     1       5.124   0.466   1.535  1.00  0.00     0.080 C 
ENDROOT
BRANCH   1   2
ATOM      2  C   UNL     1       6.282  -0.186   2.207  1.00  0.00     0.130 C 
ATOM      3  C   UNL     1       6.513  -1.652   2.117  1.00  0.00     0.087 C 
ATOM      4  O   UNL     1       7.081   0.470   2.856  1.00  0.00    -0.300 OA
ENDBRANCH   1   2
BRANCH   1   5
ATOM      5  C   UNL     1       5.581   1.402   0.434  1.00  0.00     0.043 C 
BRANCH   5   6
ATOM      6  C   UNL     1       6.683   0.821  -0.354  1.00  0.00    -0.044 A 
ATOM      7  C   UNL     1       7.949   1.417  -0.395  1.00  0.00     0.008 A 
ATOM      8  C   UNL     1       6.473  -0.336  -1.069  1.00  0.00     0.054 A 
ATOM      9  C   UNL     1       8.944   0.826  -1.151  1.00  0.00     0.051 A 
ATOM     10  C   UNL     1       7.483  -0.930  -1.832  1.00  0.00     0.166 A 
ATOM     11  C   UNL     1       8.729  -0.344  -1.873  1.00  0.00     0.165 A 
ATOM     12  O   UNL     1       7.525  -2.062  -2.619  1.00  0.00    -0.454 OA
ATOM     13  O   UNL     1       9.518  -1.137  -2.693  1.00  0.00    -0.454 OA
ATOM     14  C   UNL     1       8.820  -2.285  -3.113  1.00  0.00     0.468 C 
ENDBRANCH   5   6
ENDBRANCH   1   5
TORSDOF 3
ENDMDL
