@<TRIPOS>MOLECULE
/home/cewinharhar/GITHUB/reincatalyze/data/processed/docking_pred/2023-May-25-1902_sub9_nm5_bs15_s42_ex16_mel10_mts10000_k50_ec01_g099_lra3e-4_lrc3e-3/2f41e52dfc6618f39d2325611a45b0a1c53476a0_ligand_9.pdbqt
 14 15 0 0 0
SMALL
GASTEIGER

@<TRIPOS>ATOM
      1  C          5.8950    1.0850   -0.2200 C.3     1  UNL1        0.0800
      2  C          5.8720    1.1420    1.2680 C.2     1  UNL1        0.1300
      3  C          5.3040    0.0350    2.0830 C.3     1  UNL1        0.0870
      4  O          6.3230    2.1060    1.8650 O.2     1  UNL1       -0.3000
      5  C          7.3160    1.0900   -0.7500 C.3     1  UNL1        0.0430
      6  C          7.7290   -0.2450   -1.2200 C.2     1  UNL1       -0.0440
      7  C          7.9590   -0.5050   -2.5750 C.2     1  UNL1        0.0080
      8  C          7.8970   -1.2650   -0.3120 C.2     1  UNL1        0.0540
      9  C          8.3450   -1.7770   -2.9580 C.2     1  UNL1        0.0510
     10  C          8.2890   -2.5490   -0.7040 C.2     1  UNL1        0.1660
     11  C          8.5140   -2.8070   -2.0380 C.2     1  UNL1        0.1650
     12  O          8.5200   -3.7150   -0.0060 O.2     1  UNL1       -0.4540
     13  O          8.8840   -4.1390   -2.1320 O.2     1  UNL1       -0.4540
     14  C          8.9890   -4.7290   -0.8580 C.3     1  UNL1        0.4680
@<TRIPOS>BOND
     1     9     7    1
     2     9    11    2
     3     7     6    2
     4    13    11    1
     5    13    14    1
     6    11    10    1
     7     6     5    1
     8     6     8    1
     9    14    12    1
    10     5     1    1
    11    10     8    2
    12    10    12    1
    13     1     2    1
    14     2     4    2
    15     2     3    1
