@<TRIPOS>MOLECULE
/home/cewinharhar/GITHUB/reincatalyze/data/processed/docking_pred/2023-May-25-1902_sub9_nm5_bs15_s42_ex16_mel10_mts10000_k50_ec01_g099_lra3e-4_lrc3e-3/2f41e52dfc6618f39d2325611a45b0a1c53476a0_ligand_9.pdbqt
 14 15 0 0 0
SMALL
GASTEIGER

@<TRIPOS>ATOM
      1  C          5.1240    0.4660    1.5350 C.3     1  UNL1        0.0800
      2  C          6.2820   -0.1860    2.2070 C.2     1  UNL1        0.1300
      3  C          6.5130   -1.6520    2.1170 C.3     1  UNL1        0.0870
      4  O          7.0810    0.4700    2.8560 O.2     1  UNL1       -0.3000
      5  C          5.5810    1.4020    0.4340 C.3     1  UNL1        0.0430
      6  C          6.6830    0.8210   -0.3540 C.2     1  UNL1       -0.0440
      7  C          7.9490    1.4170   -0.3950 C.2     1  UNL1        0.0080
      8  C          6.4730   -0.3360   -1.0690 C.2     1  UNL1        0.0540
      9  C          8.9440    0.8260   -1.1510 C.2     1  UNL1        0.0510
     10  C          7.4830   -0.9300   -1.8320 C.2     1  UNL1        0.1660
     11  C          8.7290   -0.3440   -1.8730 C.2     1  UNL1        0.1650
     12  O          7.5250   -2.0620   -2.6190 O.2     1  UNL1       -0.4540
     13  O          9.5180   -1.1370   -2.6930 O.2     1  UNL1       -0.4540
     14  C          8.8200   -2.2850   -3.1130 C.3     1  UNL1        0.4680
@<TRIPOS>BOND
     1    14    13    1
     2    14    12    1
     3    13    11    1
     4    12    10    1
     5    11    10    2
     6    11     9    1
     7    10     8    1
     8     9     7    2
     9     8     6    2
    10     7     6    1
    11     6     5    1
    12     5     1    1
    13     1     2    1
    14     3     2    1
    15     2     4    2
