@<TRIPOS>MOLECULE
/home/cewinharhar/GITHUB/reincatalyze/data/processed/docking_pred/2023-May-25-1902_sub9_nm5_bs15_s42_ex16_mel10_mts10000_k50_ec01_g099_lra3e-4_lrc3e-3/2f41e52dfc6618f39d2325611a45b0a1c53476a0_ligand_9.pdbqt
 14 15 0 0 0
SMALL
GASTEIGER

@<TRIPOS>ATOM
      1  C          5.8820    1.6360    1.3470 C.3     1  UNL1        0.0800
      2  C          5.3440    0.4490    2.0680 C.2     1  UNL1        0.1300
      3  C          6.1660   -0.7710    2.2850 C.3     1  UNL1        0.0870
      4  O          4.2040    0.4440    2.5040 O.2     1  UNL1       -0.3000
      5  C          5.6740    1.5120   -0.1500 C.3     1  UNL1        0.0430
      6  C          6.7940    0.8070   -0.8000 C.2     1  UNL1       -0.0440
      7  C          8.0940    1.3240   -0.7840 C.2     1  UNL1        0.0080
      8  C          6.5670   -0.3910   -1.4390 C.2     1  UNL1        0.0540
      9  C          9.1050    0.6180   -1.4100 C.2     1  UNL1        0.0510
     10  C          7.5920   -1.1010   -2.0700 C.2     1  UNL1        0.1660
     11  C          8.8720   -0.5920   -2.0560 C.2     1  UNL1        0.1650
     12  O          7.6220   -2.2930   -2.7620 O.2     1  UNL1       -0.4540
     13  O          9.6690   -1.4920   -2.7460 O.2     1  UNL1       -0.4540
     14  C          8.9340   -2.6290   -3.1320 C.3     1  UNL1        0.4680
@<TRIPOS>BOND
     1    14    12    1
     2    14    13    1
     3    12    10    1
     4    13    11    1
     5    10    11    2
     6    10     8    1
     7    11     9    1
     8     8     6    2
     9     9     7    2
    10     6     7    1
    11     6     5    1
    12     5     1    1
    13     1     2    1
    14     2     3    1
    15     2     4    2
