@<TRIPOS>MOLECULE
/home/cewinharhar/GITHUB/reincatalyze/data/processed/docking_pred/2023-May-25-1902_sub9_nm5_bs15_s42_ex16_mel10_mts10000_k50_ec01_g099_lra3e-4_lrc3e-3/2f41e52dfc6618f39d2325611a45b0a1c53476a0_ligand_9.pdbqt
 14 15 0 0 0
SMALL
GASTEIGER

@<TRIPOS>ATOM
      1  C          6.1660   -0.4010    2.3090 C.3     1  UNL1        0.0800
      2  C          5.1100    0.5540    1.8720 C.2     1  UNL1        0.1300
      3  C          5.2600    1.3750    0.6400 C.3     1  UNL1        0.0870
      4  O          4.0830    0.6920    2.5180 O.2     1  UNL1       -0.3000
      5  C          7.4950   -0.0900    1.6510 C.3     1  UNL1        0.0430
      6  C          7.7910   -1.0220    0.5480 C.2     1  UNL1       -0.0440
      7  C          7.6840   -0.6310   -0.7910 C.2     1  UNL1        0.0080
      8  C          8.1860   -2.3100    0.8320 C.2     1  UNL1        0.0540
      9  C          7.9750   -1.5490   -1.7840 C.2     1  UNL1        0.0510
     10  C          8.4800   -3.2340   -0.1750 C.2     1  UNL1        0.1660
     11  C          8.3730   -2.8510   -1.4940 C.2     1  UNL1        0.1650
     12  O          8.8850   -4.5520   -0.1520 O.2     1  UNL1       -0.4540
     13  O          8.7200   -3.9520   -2.2610 O.2     1  UNL1       -0.4540
     14  C          9.1390   -5.0240   -1.4510 C.3     1  UNL1        0.4680
@<TRIPOS>BOND
     1    13    11    1
     2    13    14    1
     3     9    11    2
     4     9     7    1
     5    11    10    1
     6    14    12    1
     7     7     6    2
     8    10    12    1
     9    10     8    2
    10     6     8    1
    11     6     5    1
    12     3     2    1
    13     5     1    1
    14     2     1    1
    15     2     4    2
