@<TRIPOS>MOLECULE
/home/cewinharhar/GITHUB/reincatalyze/data/processed/docking_pred/2023-May-25-1902_sub9_nm5_bs15_s42_ex16_mel10_mts10000_k50_ec01_g099_lra3e-4_lrc3e-3/3109bb1a4c888d48ff6ee722b945383cff227a99_ligand_9.pdbqt
 14 15 0 0 0
SMALL
GASTEIGER

@<TRIPOS>ATOM
      1  C          5.5090    1.9350    1.2540 C.3     1  UNL1        0.0800
      2  C          5.0880    0.7160    1.9990 C.2     1  UNL1        0.1300
      3  C          6.0010   -0.4450    2.1760 C.3     1  UNL1        0.0870
      4  O          3.9740    0.6340    2.4890 O.2     1  UNL1       -0.3000
      5  C          5.3850    1.7350   -0.2430 C.3     1  UNL1        0.0430
      6  C          6.5530    1.0280   -0.7990 C.2     1  UNL1       -0.0440
      7  C          7.8600    1.4540   -0.5370 C.2     1  UNL1        0.0080
      8  C          6.3650   -0.0790   -1.5950 C.2     1  UNL1        0.0540
      9  C          8.9170    0.7510   -1.0850 C.2     1  UNL1        0.0510
     10  C          7.4380   -0.7870   -2.1460 C.2     1  UNL1        0.1660
     11  C          8.7240   -0.3680   -1.8900 C.2     1  UNL1        0.1650
     12  O          7.5120   -1.9000   -2.9570 O.2     1  UNL1       -0.4540
     13  O          9.5710   -1.2420   -2.5540 O.2     1  UNL1       -0.4540
     14  C          8.8470   -2.2820   -3.1680 C.3     1  UNL1        0.4680
@<TRIPOS>BOND
     1    14    12    1
     2    14    13    1
     3    12    10    1
     4    13    11    1
     5    10    11    2
     6    10     8    1
     7    11     9    1
     8     8     6    2
     9     9     7    2
    10     6     7    1
    11     6     5    1
    12     5     1    1
    13     1     2    1
    14     2     3    1
    15     2     4    2
