@<TRIPOS>MOLECULE
/home/cewinharhar/GITHUB/reincatalyze/data/processed/docking_pred/2023-May-25-1902_sub9_nm5_bs15_s42_ex16_mel10_mts10000_k50_ec01_g099_lra3e-4_lrc3e-3/3110d36e974f17e9d190d2a4a051583463654b40_ligand_9.pdbqt
 14 15 0 0 0
SMALL
GASTEIGER

@<TRIPOS>ATOM
      1  C          8.1130   -2.5910   -3.6110 C.3     1  UNL1        0.0800
      2  C          9.2450   -3.5380   -3.4130 C.2     1  UNL1        0.1300
      3  C          9.0260   -5.0060   -3.3080 C.3     1  UNL1        0.0870
      4  O         10.3930   -3.1340   -3.3310 O.2     1  UNL1       -0.3000
      5  C          8.4860   -1.1880   -3.1760 C.3     1  UNL1        0.0430
      6  C          7.7240   -0.7620   -1.9890 C.2     1  UNL1       -0.0440
      7  C          6.8730    0.3490   -2.0240 C.2     1  UNL1        0.0080
      8  C          7.8420   -1.4690   -0.8140 C.2     1  UNL1        0.0540
      9  C          6.1820    0.7000   -0.8780 C.2     1  UNL1        0.0510
     10  C          7.1400   -1.1090    0.3410 C.2     1  UNL1        0.1660
     11  C          6.3040   -0.0160    0.3090 C.2     1  UNL1        0.1650
     12  O          7.0880   -1.6400    1.6120 O.2     1  UNL1       -0.4540
     13  O          5.7500    0.1030    1.5730 O.2     1  UNL1       -0.4540
     14  C          6.1490   -0.9600    2.4050 C.3     1  UNL1        0.4680
@<TRIPOS>BOND
     1     1     2    1
     2     1     5    1
     3     2     4    2
     4     2     3    1
     5     5     6    1
     6     7     6    2
     7     7     9    1
     8     6     8    1
     9     9    11    2
    10     8    10    2
    11    11    10    1
    12    11    13    1
    13    10    12    1
    14    13    14    1
    15    12    14    1
