@<TRIPOS>MOLECULE
/home/cewinharhar/GITHUB/reincatalyze/data/processed/docking_pred/2023-May-25-1902_sub9_nm5_bs15_s42_ex16_mel10_mts10000_k50_ec01_g099_lra3e-4_lrc3e-3/31de0aabf4a391366091aaa04775d5537fef7eaf_ligand_9.pdbqt
 14 15 0 0 0
SMALL
GASTEIGER

@<TRIPOS>ATOM
      1  C          6.3850    1.1820    0.9550 C.3     1  UNL1        0.0800
      2  C          5.6470    0.3650    1.9590 C.2     1  UNL1        0.1300
      3  C          6.2380   -0.8640    2.5520 C.3     1  UNL1        0.0870
      4  O          4.5270    0.6840    2.3250 O.2     1  UNL1       -0.3000
      5  C          5.8740    0.9230   -0.4480 C.3     1  UNL1        0.0430
      6  C          6.8130    0.0960   -1.2270 C.2     1  UNL1       -0.0440
      7  C          7.4770    0.6010   -2.3510 C.2     1  UNL1        0.0080
      8  C          7.0520   -1.2060   -0.8480 C.2     1  UNL1        0.0540
      9  C          8.3480   -0.2210   -3.0420 C.2     1  UNL1        0.0510
     10  C          7.9340   -2.0330   -1.5500 C.2     1  UNL1        0.1660
     11  C          8.5870   -1.5370   -2.6570 C.2     1  UNL1        0.1650
     12  O          8.3340   -3.3410   -1.3780 O.2     1  UNL1       -0.4540
     13  O          9.3830   -2.5610   -3.1450 O.2     1  UNL1       -0.4540
     14  C          9.3230   -3.6930   -2.3110 C.3     1  UNL1        0.4680
@<TRIPOS>BOND
     1    13    11    1
     2    13    14    1
     3     9    11    2
     4     9     7    1
     5    11    10    1
     6     7     6    2
     7    14    12    1
     8    10    12    1
     9    10     8    2
    10     6     8    1
    11     6     5    1
    12     5     1    1
    13     1     2    1
    14     2     4    2
    15     2     3    1
