@<TRIPOS>MOLECULE
/home/cewinharhar/GITHUB/reincatalyze/data/processed/docking_pred/2023-May-25-1902_sub9_nm5_bs15_s42_ex16_mel10_mts10000_k50_ec01_g099_lra3e-4_lrc3e-3/31de0aabf4a391366091aaa04775d5537fef7eaf_ligand_9.pdbqt
 14 15 0 0 0
SMALL
GASTEIGER

@<TRIPOS>ATOM
      1  C          7.0770    0.8500    0.8750 C.3     1  UNL1        0.0800
      2  C          5.6790    1.2970    1.1270 C.2     1  UNL1        0.1300
      3  C          4.9440    2.1470    0.1520 C.3     1  UNL1        0.0870
      4  O          5.0930    0.9770    2.1480 O.2     1  UNL1       -0.3000
      5  C          7.4190    0.9170   -0.6000 C.3     1  UNL1        0.0430
      6  C          7.8390   -0.3950   -1.1250 C.2     1  UNL1       -0.0440
      7  C          8.1120   -0.5870   -2.4840 C.2     1  UNL1        0.0080
      8  C          7.9710   -1.4620   -0.2660 C.2     1  UNL1        0.0540
      9  C          8.5030   -1.8410   -2.9180 C.2     1  UNL1        0.0510
     10  C          8.3670   -2.7270   -0.7100 C.2     1  UNL1        0.1660
     11  C          8.6350   -2.9180   -2.0470 C.2     1  UNL1        0.1650
     12  O          8.5670   -3.9290   -0.0650 O.2     1  UNL1       -0.4540
     13  O          8.9990   -4.2470   -2.1970 O.2     1  UNL1       -0.4540
     14  C          9.0570   -4.9020   -0.9520 C.3     1  UNL1        0.4680
@<TRIPOS>BOND
     1     9     7    1
     2     9    11    2
     3     7     6    2
     4    13    11    1
     5    13    14    1
     6    11    10    1
     7     6     5    1
     8     6     8    1
     9    14    12    1
    10    10     8    2
    11    10    12    1
    12     5     1    1
    13     3     2    1
    14     1     2    1
    15     2     4    2
