MODEL 1
REMARK VINA RESULT:      -7.7      0.000      0.000
REMARK SMILES CC(=O)CCc1ccc2c(c1)OCO2
REMARK SMILES IDX 4 1 2 2 1 3 3 4 5 5 6 6 7 7 11 8 8 9 10 10 9 11 12 12 14 13
REMARK SMILES IDX 13 14
REMARK H PARENT
REMARK Flexibility Score: inf
ROOT
ATOM      1  C   UNL     1       5.529   1.913   1.254  1.00  0.00     0.080 C 
ENDROOT
BRANCH   1   2
ATOM      2  C   UNL     1       5.079   0.706   2.002  1.00  0.00     0.130 C 
ATOM      3  C   UNL     1       5.961  -0.480   2.174  1.00  0.00     0.087 C 
ATOM      4  O   UNL     1       3.966   0.655   2.499  1.00  0.00    -0.300 OA
ENDBRANCH   1   2
BRANCH   1   5
ATOM      5  C   UNL     1       5.400   1.712  -0.243  1.00  0.00     0.043 C 
BRANCH   5   6
ATOM      6  C   UNL     1       6.571   1.013  -0.803  1.00  0.00    -0.044 A 
ATOM      7  C   UNL     1       7.876   1.452  -0.551  1.00  0.00     0.008 A 
ATOM      8  C   UNL     1       6.388  -0.099  -1.592  1.00  0.00     0.054 A 
ATOM      9  C   UNL     1       8.936   0.756  -1.103  1.00  0.00     0.051 A 
ATOM     10  C   UNL     1       7.463  -0.800  -2.147  1.00  0.00     0.166 A 
ATOM     11  C   UNL     1       8.747  -0.369  -1.901  1.00  0.00     0.165 A 
ATOM     12  O   UNL     1       7.542  -1.916  -2.952  1.00  0.00    -0.454 OA
ATOM     13  O   UNL     1       9.597  -1.239  -2.566  1.00  0.00    -0.454 OA
ATOM     14  C   UNL     1       8.879  -2.287  -3.171  1.00  0.00     0.468 C 
ENDBRANCH   5   6
ENDBRANCH   1   5
TORSDOF 3
ENDMDL
MODEL 2
REMARK VINA RESULT:      -7.4      1.933      2.391
REMARK SMILES CC(=O)CCc1ccc2c(c1)OCO2
REMARK SMILES IDX 4 1 2 2 1 3 3 4 5 5 6 6 7 7 11 8 8 9 10 10 9 11 12 12 14 13
REMARK SMILES IDX 13 14
REMARK H PARENT
REMARK Flexibility Score: inf
ROOT
ATOM      1  C   UNL     1       5.740   1.339  -0.308  1.00  0.00     0.080 C 
ENDROOT
BRANCH   1   2
ATOM      2  C   UNL     1       5.171   1.242   1.065  1.00  0.00     0.130 C 
ATOM      3  C   UNL     1       5.392   0.044   1.919  1.00  0.00     0.087 C 
ATOM      4  O   UNL     1       4.503   2.150   1.532  1.00  0.00    -0.300 OA
ENDBRANCH   1   2
BRANCH   1   5
ATOM      5  C   UNL     1       7.241   1.126  -0.299  1.00  0.00     0.043 C 
BRANCH   5   6
ATOM      6  C   UNL     1       7.612  -0.176  -0.881  1.00  0.00    -0.044 A 
ATOM      7  C   UNL     1       7.667  -0.370  -2.266  1.00  0.00     0.008 A 
ATOM      8  C   UNL     1       7.917  -1.232  -0.053  1.00  0.00     0.054 A 
ATOM      9  C   UNL     1       8.022  -1.614  -2.755  1.00  0.00     0.051 A 
ATOM     10  C   UNL     1       8.277  -2.487  -0.552  1.00  0.00     0.166 A 
ATOM     11  C   UNL     1       8.329  -2.680  -1.915  1.00  0.00     0.165 A 
ATOM     12  O   UNL     1       8.619  -3.677   0.054  1.00  0.00    -0.454 OA
ATOM     13  O   UNL     1       8.708  -3.998  -2.119  1.00  0.00    -0.454 OA
ATOM     14  C   UNL     1       8.989  -4.640  -0.899  1.00  0.00     0.468 C 
ENDBRANCH   5   6
ENDBRANCH   1   5
TORSDOF 3
ENDMDL
MODEL 3
REMARK VINA RESULT:      -7.2      2.076      2.619
REMARK SMILES CC(=O)CCc1ccc2c(c1)OCO2
REMARK SMILES IDX 4 1 2 2 1 3 3 4 5 5 6 6 7 7 11 8 8 9 10 10 9 11 12 12 14 13
REMARK SMILES IDX 13 14
REMARK H PARENT
REMARK Flexibility Score: inf
ROOT
ATOM      1  C   UNL     1       5.520   0.008   1.966  1.00  0.00     0.080 C 
ENDROOT
BRANCH   1   2
ATOM      2  C   UNL     1       4.653   1.180   1.665  1.00  0.00     0.130 C 
ATOM      3  C   UNL     1       4.982   2.135   0.573  1.00  0.00     0.087 C 
ATOM      4  O   UNL     1       3.639   1.393   2.310  1.00  0.00    -0.300 OA
ENDBRANCH   1   2
BRANCH   1   5
ATOM      5  C   UNL     1       6.947   0.248   1.516  1.00  0.00     0.043 C 
BRANCH   5   6
ATOM      6  C   UNL     1       7.358  -0.705   0.470  1.00  0.00    -0.044 A 
ATOM      7  C   UNL     1       7.255  -0.390  -0.890  1.00  0.00     0.008 A 
ATOM      8  C   UNL     1       7.859  -1.936   0.827  1.00  0.00     0.054 A 
ATOM      9  C   UNL     1       7.657  -1.324  -1.828  1.00  0.00     0.051 A 
ATOM     10  C   UNL     1       8.264  -2.877  -0.125  1.00  0.00     0.166 A 
ATOM     11  C   UNL     1       8.162  -2.568  -1.463  1.00  0.00     0.165 A 
ATOM     12  O   UNL     1       8.786  -4.149  -0.025  1.00  0.00    -0.454 OA
ATOM     13  O   UNL     1       8.629  -3.669  -2.165  1.00  0.00    -0.454 OA
ATOM     14  C   UNL     1       9.119  -4.658  -1.291  1.00  0.00     0.468 C 
ENDBRANCH   5   6
ENDBRANCH   1   5
TORSDOF 3
ENDMDL
MODEL 4
REMARK VINA RESULT:      -7.1      1.249      1.446
REMARK SMILES CC(=O)CCc1ccc2c(c1)OCO2
REMARK SMILES IDX 4 1 2 2 1 3 3 4 5 5 6 6 7 7 11 8 8 9 10 10 9 11 12 12 14 13
REMARK SMILES IDX 13 14
REMARK H PARENT
REMARK Flexibility Score: inf
ROOT
ATOM      1  C   UNL     1       6.376   1.169   0.972  1.00  0.00     0.080 C 
ENDROOT
BRANCH   1   2
ATOM      2  C   UNL     1       5.652   0.335   1.972  1.00  0.00     0.130 C 
ATOM      3  C   UNL     1       6.261  -0.890   2.554  1.00  0.00     0.087 C 
ATOM      4  O   UNL     1       4.530   0.637   2.344  1.00  0.00    -0.300 OA
ENDBRANCH   1   2
BRANCH   1   5
ATOM      5  C   UNL     1       5.866   0.912  -0.432  1.00  0.00     0.043 C 
BRANCH   5   6
ATOM      6  C   UNL     1       6.812   0.100  -1.218  1.00  0.00    -0.044 A 
ATOM      7  C   UNL     1       7.490   0.628  -2.322  1.00  0.00     0.008 A 
ATOM      8  C   UNL     1       7.044  -1.210  -0.864  1.00  0.00     0.054 A 
ATOM      9  C   UNL     1       8.367  -0.181  -3.021  1.00  0.00     0.051 A 
ATOM     10  C   UNL     1       7.933  -2.024  -1.573  1.00  0.00     0.166 A 
ATOM     11  C   UNL     1       8.599  -1.505  -2.661  1.00  0.00     0.165 A 
ATOM     12  O   UNL     1       8.328  -3.336  -1.424  1.00  0.00    -0.454 OA
ATOM     13  O   UNL     1       9.400  -2.520  -3.162  1.00  0.00    -0.454 OA
ATOM     14  C   UNL     1       9.327  -3.670  -2.354  1.00  0.00     0.468 C 
ENDBRANCH   5   6
ENDBRANCH   1   5
TORSDOF 3
ENDMDL
MODEL 5
REMARK VINA RESULT:      -7.1      1.947      2.507
REMARK SMILES CC(=O)CCc1ccc2c(c1)OCO2
REMARK SMILES IDX 4 1 2 2 1 3 3 4 5 5 6 6 7 7 11 8 8 9 10 10 9 11 12 12 14 13
REMARK SMILES IDX 13 14
REMARK H PARENT
REMARK Flexibility Score: inf
ROOT
ATOM      1  C   UNL     1       6.939   0.987   1.276  1.00  0.00     0.080 C 
ENDROOT
BRANCH   1   2
ATOM      2  C   UNL     1       5.475   1.238   1.391  1.00  0.00     0.130 C 
ATOM      3  C   UNL     1       4.763   2.148   0.454  1.00  0.00     0.087 C 
ATOM      4  O   UNL     1       4.814   0.699   2.263  1.00  0.00    -0.300 OA
ENDBRANCH   1   2
BRANCH   1   5
ATOM      5  C   UNL     1       7.415   1.148  -0.154  1.00  0.00     0.043 C 
BRANCH   5   6
ATOM      6  C   UNL     1       7.728  -0.151  -0.776  1.00  0.00    -0.044 A 
ATOM      7  C   UNL     1       7.748  -0.313  -2.166  1.00  0.00     0.008 A 
ATOM      8  C   UNL     1       8.013  -1.237   0.021  1.00  0.00     0.054 A 
ATOM      9  C   UNL     1       8.050  -1.555  -2.692  1.00  0.00     0.051 A 
ATOM     10  C   UNL     1       8.318  -2.491  -0.517  1.00  0.00     0.166 A 
ATOM     11  C   UNL     1       8.336  -2.652  -1.884  1.00  0.00     0.165 A 
ATOM     12  O   UNL     1       8.631  -3.707   0.053  1.00  0.00    -0.454 OA
ATOM     13  O   UNL     1       8.664  -3.976  -2.128  1.00  0.00    -0.454 OA
ATOM     14  C   UNL     1       8.948  -4.658  -0.930  1.00  0.00     0.468 C 
ENDBRANCH   5   6
ENDBRANCH   1   5
TORSDOF 3
ENDMDL
