@<TRIPOS>MOLECULE
/home/cewinharhar/GITHUB/reincatalyze/data/processed/docking_pred/2023-May-25-1902_sub9_nm5_bs15_s42_ex16_mel10_mts10000_k50_ec01_g099_lra3e-4_lrc3e-3/325804283c972141be72207ce76252ef5fb41c17_ligand_9.pdbqt
 14 15 0 0 0
SMALL
GASTEIGER

@<TRIPOS>ATOM
      1  C          6.3760    1.1690    0.9720 C.3     1  UNL1        0.0800
      2  C          5.6520    0.3350    1.9720 C.2     1  UNL1        0.1300
      3  C          6.2610   -0.8900    2.5540 C.3     1  UNL1        0.0870
      4  O          4.5300    0.6370    2.3440 O.2     1  UNL1       -0.3000
      5  C          5.8660    0.9120   -0.4320 C.3     1  UNL1        0.0430
      6  C          6.8120    0.1000   -1.2180 C.2     1  UNL1       -0.0440
      7  C          7.4900    0.6280   -2.3220 C.2     1  UNL1        0.0080
      8  C          7.0440   -1.2100   -0.8640 C.2     1  UNL1        0.0540
      9  C          8.3670   -0.1810   -3.0210 C.2     1  UNL1        0.0510
     10  C          7.9330   -2.0240   -1.5730 C.2     1  UNL1        0.1660
     11  C          8.5990   -1.5050   -2.6610 C.2     1  UNL1        0.1650
     12  O          8.3280   -3.3360   -1.4240 O.2     1  UNL1       -0.4540
     13  O          9.4000   -2.5200   -3.1620 O.2     1  UNL1       -0.4540
     14  C          9.3270   -3.6700   -2.3540 C.3     1  UNL1        0.4680
@<TRIPOS>BOND
     1    13    11    1
     2    13    14    1
     3     9    11    2
     4     9     7    1
     5    11    10    1
     6    14    12    1
     7     7     6    2
     8    10    12    1
     9    10     8    2
    10     6     8    1
    11     6     5    1
    12     5     1    1
    13     1     2    1
    14     2     4    2
    15     2     3    1
