@<TRIPOS>MOLECULE
/home/cewinharhar/GITHUB/reincatalyze/data/processed/docking_pred/2023-May-25-1902_sub9_nm5_bs15_s42_ex16_mel10_mts10000_k50_ec01_g099_lra3e-4_lrc3e-3/325804283c972141be72207ce76252ef5fb41c17_ligand_9.pdbqt
 14 15 0 0 0
SMALL
GASTEIGER

@<TRIPOS>ATOM
      1  C          5.7400    1.3390   -0.3080 C.3     1  UNL1        0.0800
      2  C          5.1710    1.2420    1.0650 C.2     1  UNL1        0.1300
      3  C          5.3920    0.0440    1.9190 C.3     1  UNL1        0.0870
      4  O          4.5030    2.1500    1.5320 O.2     1  UNL1       -0.3000
      5  C          7.2410    1.1260   -0.2990 C.3     1  UNL1        0.0430
      6  C          7.6120   -0.1760   -0.8810 C.2     1  UNL1       -0.0440
      7  C          7.6670   -0.3700   -2.2660 C.2     1  UNL1        0.0080
      8  C          7.9170   -1.2320   -0.0530 C.2     1  UNL1        0.0540
      9  C          8.0220   -1.6140   -2.7550 C.2     1  UNL1        0.0510
     10  C          8.2770   -2.4870   -0.5520 C.2     1  UNL1        0.1660
     11  C          8.3290   -2.6800   -1.9150 C.2     1  UNL1        0.1650
     12  O          8.6190   -3.6770    0.0540 O.2     1  UNL1       -0.4540
     13  O          8.7080   -3.9980   -2.1190 O.2     1  UNL1       -0.4540
     14  C          8.9890   -4.6400   -0.8990 C.3     1  UNL1        0.4680
@<TRIPOS>BOND
     1     9     7    1
     2     9    11    2
     3     7     6    2
     4    13    11    1
     5    13    14    1
     6    11    10    1
     7    14    12    1
     8     6     5    1
     9     6     8    1
    10    10     8    2
    11    10    12    1
    12     1     5    1
    13     1     2    1
    14     2     4    2
    15     2     3    1
