@<TRIPOS>MOLECULE
/home/cewinharhar/GITHUB/reincatalyze/data/processed/docking_pred/2023-May-25-1902_sub9_nm5_bs15_s42_ex16_mel10_mts10000_k50_ec01_g099_lra3e-4_lrc3e-3/325804283c972141be72207ce76252ef5fb41c17_ligand_9.pdbqt
 14 15 0 0 0
SMALL
GASTEIGER

@<TRIPOS>ATOM
      1  C          6.9390    0.9870    1.2760 C.3     1  UNL1        0.0800
      2  C          5.4750    1.2380    1.3910 C.2     1  UNL1        0.1300
      3  C          4.7630    2.1480    0.4540 C.3     1  UNL1        0.0870
      4  O          4.8140    0.6990    2.2630 O.2     1  UNL1       -0.3000
      5  C          7.4150    1.1480   -0.1540 C.3     1  UNL1        0.0430
      6  C          7.7280   -0.1510   -0.7760 C.2     1  UNL1       -0.0440
      7  C          7.7480   -0.3130   -2.1660 C.2     1  UNL1        0.0080
      8  C          8.0130   -1.2370    0.0210 C.2     1  UNL1        0.0540
      9  C          8.0500   -1.5550   -2.6920 C.2     1  UNL1        0.0510
     10  C          8.3180   -2.4910   -0.5170 C.2     1  UNL1        0.1660
     11  C          8.3360   -2.6520   -1.8840 C.2     1  UNL1        0.1650
     12  O          8.6310   -3.7070    0.0530 O.2     1  UNL1       -0.4540
     13  O          8.6640   -3.9760   -2.1280 O.2     1  UNL1       -0.4540
     14  C          8.9480   -4.6580   -0.9300 C.3     1  UNL1        0.4680
@<TRIPOS>BOND
     1     9     7    1
     2     9    11    2
     3     7     6    2
     4    13    11    1
     5    13    14    1
     6    11    10    1
     7    14    12    1
     8     6     5    1
     9     6     8    1
    10    10     8    2
    11    10    12    1
    12     5     1    1
    13     3     2    1
    14     1     2    1
    15     2     4    2
