MODEL 1
REMARK VINA RESULT:      -7.6      0.000      0.000
REMARK SMILES CC(=O)CCc1ccc2c(c1)OCO2
REMARK SMILES IDX 4 1 2 2 1 3 3 4 5 5 6 6 7 7 11 8 8 9 10 10 9 11 12 12 14 13
REMARK SMILES IDX 13 14
REMARK H PARENT
REMARK Flexibility Score: inf
ROOT
ATOM      1  C   UNL     1       5.497   1.880   1.308  1.00  0.00     0.080 C 
ENDROOT
BRANCH   1   2
ATOM      2  C   UNL     1       5.033   0.649   2.007  1.00  0.00     0.130 C 
ATOM      3  C   UNL     1       5.902  -0.552   2.132  1.00  0.00     0.087 C 
ATOM      4  O   UNL     1       3.918   0.590   2.499  1.00  0.00    -0.300 OA
ENDBRANCH   1   2
BRANCH   1   5
ATOM      5  C   UNL     1       5.383   1.735  -0.196  1.00  0.00     0.043 C 
BRANCH   5   6
ATOM      6  C   UNL     1       6.550   1.040  -0.768  1.00  0.00    -0.044 A 
ATOM      7  C   UNL     1       7.857   1.473  -0.517  1.00  0.00     0.008 A 
ATOM      8  C   UNL     1       6.362  -0.065  -1.567  1.00  0.00     0.054 A 
ATOM      9  C   UNL     1       8.914   0.780  -1.080  1.00  0.00     0.051 A 
ATOM     10  C   UNL     1       7.434  -0.762  -2.133  1.00  0.00     0.166 A 
ATOM     11  C   UNL     1       8.720  -0.336  -1.888  1.00  0.00     0.165 A 
ATOM     12  O   UNL     1       7.507  -1.871  -2.950  1.00  0.00    -0.454 OA
ATOM     13  O   UNL     1       9.565  -1.201  -2.565  1.00  0.00    -0.454 OA
ATOM     14  C   UNL     1       8.842  -2.242  -3.177  1.00  0.00     0.468 C 
ENDBRANCH   5   6
ENDBRANCH   1   5
TORSDOF 3
ENDMDL
MODEL 2
REMARK VINA RESULT:      -7.4      1.954      2.450
REMARK SMILES CC(=O)CCc1ccc2c(c1)OCO2
REMARK SMILES IDX 4 1 2 2 1 3 3 4 5 5 6 6 7 7 11 8 8 9 10 10 9 11 12 12 14 13
REMARK SMILES IDX 13 14
REMARK H PARENT
REMARK Flexibility Score: inf
ROOT
ATOM      1  C   UNL     1       5.744   1.137  -0.375  1.00  0.00     0.080 C 
ENDROOT
BRANCH   1   2
ATOM      2  C   UNL     1       5.221   1.163   1.020  1.00  0.00     0.130 C 
ATOM      3  C   UNL     1       5.367  -0.005   1.930  1.00  0.00     0.087 C 
ATOM      4  O   UNL     1       4.653   2.150   1.458  1.00  0.00    -0.300 OA
ENDBRANCH   1   2
BRANCH   1   5
ATOM      5  C   UNL     1       7.255   1.013  -0.394  1.00  0.00     0.043 C 
BRANCH   5   6
ATOM      6  C   UNL     1       7.691  -0.270  -0.973  1.00  0.00    -0.044 A 
ATOM      7  C   UNL     1       7.906  -0.418  -2.348  1.00  0.00     0.008 A 
ATOM      8  C   UNL     1       7.898  -1.354  -0.151  1.00  0.00     0.054 A 
ATOM      9  C   UNL     1       8.316  -1.646  -2.834  1.00  0.00     0.051 A 
ATOM     10  C   UNL     1       8.313  -2.593  -0.647  1.00  0.00     0.166 A 
ATOM     11  C   UNL     1       8.523  -2.741  -2.001  1.00  0.00     0.165 A 
ATOM     12  O   UNL     1       8.582  -3.805  -0.046  1.00  0.00    -0.454 OA
ATOM     13  O   UNL     1       8.922  -4.052  -2.204  1.00  0.00    -0.454 OA
ATOM     14  C   UNL     1       9.060  -4.737  -0.981  1.00  0.00     0.468 C 
ENDBRANCH   5   6
ENDBRANCH   1   5
TORSDOF 3
ENDMDL
MODEL 3
REMARK VINA RESULT:      -7.3      2.070      2.636
REMARK SMILES CC(=O)CCc1ccc2c(c1)OCO2
REMARK SMILES IDX 4 1 2 2 1 3 3 4 5 5 6 6 7 7 11 8 8 9 10 10 9 11 12 12 14 13
REMARK SMILES IDX 13 14
REMARK H PARENT
REMARK Flexibility Score: inf
ROOT
ATOM      1  C   UNL     1       5.383  -0.068   2.009  1.00  0.00     0.080 C 
ENDROOT
BRANCH   1   2
ATOM      2  C   UNL     1       4.516   1.116   1.754  1.00  0.00     0.130 C 
ATOM      3  C   UNL     1       4.821   2.089   0.671  1.00  0.00     0.087 C 
ATOM      4  O   UNL     1       3.523   1.323   2.432  1.00  0.00    -0.300 OA
ENDBRANCH   1   2
BRANCH   1   5
ATOM      5  C   UNL     1       6.815   0.198   1.588  1.00  0.00     0.043 C 
BRANCH   5   6
ATOM      6  C   UNL     1       7.253  -0.729   0.529  1.00  0.00    -0.044 A 
ATOM      7  C   UNL     1       7.119  -0.409  -0.827  1.00  0.00     0.008 A 
ATOM      8  C   UNL     1       7.812  -1.939   0.870  1.00  0.00     0.054 A 
ATOM      9  C   UNL     1       7.549  -1.318  -1.777  1.00  0.00     0.051 A 
ATOM     10  C   UNL     1       8.246  -2.854  -0.094  1.00  0.00     0.166 A 
ATOM     11  C   UNL     1       8.113  -2.541  -1.429  1.00  0.00     0.165 A 
ATOM     12  O   UNL     1       8.825  -4.103  -0.012  1.00  0.00    -0.454 OA
ATOM     13  O   UNL     1       8.618  -3.614  -2.145  1.00  0.00    -0.454 OA
ATOM     14  C   UNL     1       9.163  -4.587  -1.286  1.00  0.00     0.468 C 
ENDBRANCH   5   6
ENDBRANCH   1   5
TORSDOF 3
ENDMDL
MODEL 4
REMARK VINA RESULT:      -7.0      1.269      1.498
REMARK SMILES CC(=O)CCc1ccc2c(c1)OCO2
REMARK SMILES IDX 4 1 2 2 1 3 3 4 5 5 6 6 7 7 11 8 8 9 10 10 9 11 12 12 14 13
REMARK SMILES IDX 13 14
REMARK H PARENT
REMARK Flexibility Score: inf
ROOT
ATOM      1  C   UNL     1       6.363   1.174   0.932  1.00  0.00     0.080 C 
ENDROOT
BRANCH   1   2
ATOM      2  C   UNL     1       5.662   0.346   1.952  1.00  0.00     0.130 C 
ATOM      3  C   UNL     1       6.289  -0.870   2.536  1.00  0.00     0.087 C 
ATOM      4  O   UNL     1       4.544   0.644   2.341  1.00  0.00    -0.300 OA
ENDBRANCH   1   2
BRANCH   1   5
ATOM      5  C   UNL     1       5.852   0.877  -0.464  1.00  0.00     0.043 C 
BRANCH   5   6
ATOM      6  C   UNL     1       6.810   0.064  -1.235  1.00  0.00    -0.044 A 
ATOM      7  C   UNL     1       7.503   0.591  -2.331  1.00  0.00     0.008 A 
ATOM      8  C   UNL     1       7.038  -1.245  -0.876  1.00  0.00     0.054 A 
ATOM      9  C   UNL     1       8.390  -0.219  -3.016  1.00  0.00     0.051 A 
ATOM     10  C   UNL     1       7.936  -2.060  -1.571  1.00  0.00     0.166 A 
ATOM     11  C   UNL     1       8.618  -1.543  -2.651  1.00  0.00     0.165 A 
ATOM     12  O   UNL     1       8.330  -3.371  -1.414  1.00  0.00    -0.454 OA
ATOM     13  O   UNL     1       9.425  -2.558  -3.138  1.00  0.00    -0.454 OA
ATOM     14  C   UNL     1       9.342  -3.707  -2.329  1.00  0.00     0.468 C 
ENDBRANCH   5   6
ENDBRANCH   1   5
TORSDOF 3
ENDMDL
MODEL 5
REMARK VINA RESULT:      -7.0      1.946      2.541
REMARK SMILES CC(=O)CCc1ccc2c(c1)OCO2
REMARK SMILES IDX 4 1 2 2 1 3 3 4 5 5 6 6 7 7 11 8 8 9 10 10 9 11 12 12 14 13
REMARK SMILES IDX 13 14
REMARK H PARENT
REMARK Flexibility Score: inf
ROOT
ATOM      1  C   UNL     1       6.837   0.931   1.177  1.00  0.00     0.080 C 
ENDROOT
BRANCH   1   2
ATOM      2  C   UNL     1       5.384   1.213   1.352  1.00  0.00     0.130 C 
ATOM      3  C   UNL     1       4.657   2.150   0.454  1.00  0.00     0.087 C 
ATOM      4  O   UNL     1       4.745   0.679   2.244  1.00  0.00    -0.300 OA
ENDBRANCH   1   2
BRANCH   1   5
ATOM      5  C   UNL     1       7.256   1.081  -0.272  1.00  0.00     0.043 C 
BRANCH   5   6
ATOM      6  C   UNL     1       7.611  -0.216  -0.875  1.00  0.00    -0.044 A 
ATOM      7  C   UNL     1       7.627  -0.400  -2.262  1.00  0.00     0.008 A 
ATOM      8  C   UNL     1       7.940  -1.278  -0.064  1.00  0.00     0.054 A 
ATOM      9  C   UNL     1       7.969  -1.639  -2.771  1.00  0.00     0.051 A 
ATOM     10  C   UNL     1       8.285  -2.529  -0.583  1.00  0.00     0.166 A 
ATOM     11  C   UNL     1       8.300  -2.711  -1.948  1.00  0.00     0.165 A 
ATOM     12  O   UNL     1       8.645  -3.724   0.004  1.00  0.00    -0.454 OA
ATOM     13  O   UNL     1       8.673  -4.027  -2.173  1.00  0.00    -0.454 OA
ATOM     14  C   UNL     1       8.989  -4.679  -0.967  1.00  0.00     0.468 C 
ENDBRANCH   5   6
ENDBRANCH   1   5
TORSDOF 3
ENDMDL
