@<TRIPOS>MOLECULE
/home/cewinharhar/GITHUB/reincatalyze/data/processed/docking_pred/2023-May-25-1902_sub9_nm5_bs15_s42_ex16_mel10_mts10000_k50_ec01_g099_lra3e-4_lrc3e-3/36543b95c0c748273319382419c31c9b55863a9a_ligand_9.pdbqt
 14 15 0 0 0
SMALL
GASTEIGER

@<TRIPOS>ATOM
      1  C          6.3530    1.2270    0.8690 C.3     1  UNL1        0.0800
      2  C          5.6640    0.4200    1.9150 C.2     1  UNL1        0.1300
      3  C          6.2800   -0.8090    2.4840 C.3     1  UNL1        0.0870
      4  O          4.5670    0.7470    2.3370 O.2     1  UNL1       -0.3000
      5  C          5.8360    0.8900   -0.5160 C.3     1  UNL1        0.0430
      6  C          6.8040    0.0810   -1.2780 C.2     1  UNL1       -0.0440
      7  C          7.5160    0.6160   -2.3580 C.2     1  UNL1        0.0080
      8  C          7.0210   -1.2320   -0.9280 C.2     1  UNL1        0.0540
      9  C          8.4120   -0.1910   -3.0360 C.2     1  UNL1        0.0510
     10  C          7.9280   -2.0430   -1.6160 C.2     1  UNL1        0.1660
     11  C          8.6290   -1.5180   -2.6790 C.2     1  UNL1        0.1650
     12  O          8.3150   -3.3580   -1.4650 O.2     1  UNL1       -0.4540
     13  O          9.4410   -2.5320   -3.1630 O.2     1  UNL1       -0.4540
     14  C          9.3410   -3.6880   -2.3660 C.3     1  UNL1        0.4680
@<TRIPOS>BOND
     1    13    11    1
     2    13    14    1
     3     9    11    2
     4     9     7    1
     5    11    10    1
     6    14    12    1
     7     7     6    2
     8    10    12    1
     9    10     8    2
    10     6     8    1
    11     6     5    1
    12     5     1    1
    13     1     2    1
    14     2     4    2
    15     2     3    1
