MODEL 1
REMARK VINA RESULT:      -7.6      0.000      0.000
REMARK SMILES CC(=O)CCc1ccc2c(c1)OCO2
REMARK SMILES IDX 4 1 2 2 1 3 3 4 5 5 6 6 7 7 11 8 8 9 10 10 9 11 12 12 14 13
REMARK SMILES IDX 13 14
REMARK H PARENT
REMARK Flexibility Score: inf
ROOT
ATOM      1  C   UNL     1       5.508   1.934   1.259  1.00  0.00     0.080 C 
ENDROOT
BRANCH   1   2
ATOM      2  C   UNL     1       5.070   0.719   2.002  1.00  0.00     0.130 C 
ATOM      3  C   UNL     1       5.962  -0.460   2.167  1.00  0.00     0.087 C 
ATOM      4  O   UNL     1       3.957   0.656   2.499  1.00  0.00    -0.300 OA
ENDBRANCH   1   2
BRANCH   1   5
ATOM      5  C   UNL     1       5.384   1.737  -0.239  1.00  0.00     0.043 C 
BRANCH   5   6
ATOM      6  C   UNL     1       6.555   1.036  -0.797  1.00  0.00    -0.044 A 
ATOM      7  C   UNL     1       7.860   1.471  -0.540  1.00  0.00     0.008 A 
ATOM      8  C   UNL     1       6.371  -0.074  -1.588  1.00  0.00     0.054 A 
ATOM      9  C   UNL     1       8.920   0.773  -1.090  1.00  0.00     0.051 A 
ATOM     10  C   UNL     1       7.446  -0.777  -2.141  1.00  0.00     0.166 A 
ATOM     11  C   UNL     1       8.731  -0.349  -1.890  1.00  0.00     0.165 A 
ATOM     12  O   UNL     1       7.524  -1.892  -2.948  1.00  0.00    -0.454 OA
ATOM     13  O   UNL     1       9.580  -1.221  -2.555  1.00  0.00    -0.454 OA
ATOM     14  C   UNL     1       8.861  -2.266  -3.163  1.00  0.00     0.468 C 
ENDBRANCH   5   6
ENDBRANCH   1   5
TORSDOF 3
ENDMDL
MODEL 2
REMARK VINA RESULT:      -7.5      1.930      2.371
REMARK SMILES CC(=O)CCc1ccc2c(c1)OCO2
REMARK SMILES IDX 4 1 2 2 1 3 3 4 5 5 6 6 7 7 11 8 8 9 10 10 9 11 12 12 14 13
REMARK SMILES IDX 13 14
REMARK H PARENT
REMARK Flexibility Score: inf
ROOT
ATOM      1  C   UNL     1       5.732   1.385  -0.258  1.00  0.00     0.080 C 
ENDROOT
BRANCH   1   2
ATOM      2  C   UNL     1       5.086   1.266   1.079  1.00  0.00     0.130 C 
ATOM      3  C   UNL     1       5.370   0.121   1.984  1.00  0.00     0.087 C 
ATOM      4  O   UNL     1       4.297   2.110   1.471  1.00  0.00    -0.300 OA
ENDBRANCH   1   2
BRANCH   1   5
ATOM      5  C   UNL     1       7.224   1.129  -0.172  1.00  0.00     0.043 C 
BRANCH   5   6
ATOM      6  C   UNL     1       7.594  -0.156  -0.792  1.00  0.00    -0.044 A 
ATOM      7  C   UNL     1       7.651  -0.310  -2.181  1.00  0.00     0.008 A 
ATOM      8  C   UNL     1       7.896  -1.236   0.006  1.00  0.00     0.054 A 
ATOM      9  C   UNL     1       8.006  -1.539  -2.706  1.00  0.00     0.051 A 
ATOM     10  C   UNL     1       8.255  -2.476  -0.529  1.00  0.00     0.166 A 
ATOM     11  C   UNL     1       8.310  -2.630  -1.896  1.00  0.00     0.165 A 
ATOM     12  O   UNL     1       8.594  -3.684   0.043  1.00  0.00    -0.454 OA
ATOM     13  O   UNL     1       8.687  -3.941  -2.138  1.00  0.00    -0.454 OA
ATOM     14  C   UNL     1       8.965  -4.620  -0.936  1.00  0.00     0.468 C 
ENDBRANCH   5   6
ENDBRANCH   1   5
TORSDOF 3
ENDMDL
MODEL 3
REMARK VINA RESULT:      -7.2      2.060      2.633
REMARK SMILES CC(=O)CCc1ccc2c(c1)OCO2
REMARK SMILES IDX 4 1 2 2 1 3 3 4 5 5 6 6 7 7 11 8 8 9 10 10 9 11 12 12 14 13
REMARK SMILES IDX 13 14
REMARK H PARENT
REMARK Flexibility Score: inf
ROOT
ATOM      1  C   UNL     1       5.457  -0.043   2.004  1.00  0.00     0.080 C 
ENDROOT
BRANCH   1   2
ATOM      2  C   UNL     1       4.601   1.151   1.758  1.00  0.00     0.130 C 
ATOM      3  C   UNL     1       4.925   2.138   0.693  1.00  0.00     0.087 C 
ATOM      4  O   UNL     1       3.602   1.355   2.428  1.00  0.00    -0.300 OA
ENDBRANCH   1   2
BRANCH   1   5
ATOM      5  C   UNL     1       6.887   0.204   1.564  1.00  0.00     0.043 C 
BRANCH   5   6
ATOM      6  C   UNL     1       7.301  -0.732   0.503  1.00  0.00    -0.044 A 
ATOM      7  C   UNL     1       7.157  -0.414  -0.852  1.00  0.00     0.008 A 
ATOM      8  C   UNL     1       7.847  -1.949   0.843  1.00  0.00     0.054 A 
ATOM      9  C   UNL     1       7.564  -1.332  -1.803  1.00  0.00     0.051 A 
ATOM     10  C   UNL     1       8.258  -2.873  -0.123  1.00  0.00     0.166 A 
ATOM     11  C   UNL     1       8.115  -2.562  -1.457  1.00  0.00     0.165 A 
ATOM     12  O   UNL     1       8.820  -4.129  -0.042  1.00  0.00    -0.454 OA
ATOM     13  O   UNL     1       8.599  -3.644  -2.175  1.00  0.00    -0.454 OA
ATOM     14  C   UNL     1       9.139  -4.622  -1.318  1.00  0.00     0.468 C 
ENDBRANCH   5   6
ENDBRANCH   1   5
TORSDOF 3
ENDMDL
MODEL 4
REMARK VINA RESULT:      -7.1      1.255      1.468
REMARK SMILES CC(=O)CCc1ccc2c(c1)OCO2
REMARK SMILES IDX 4 1 2 2 1 3 3 4 5 5 6 6 7 7 11 8 8 9 10 10 9 11 12 12 14 13
REMARK SMILES IDX 13 14
REMARK H PARENT
REMARK Flexibility Score: inf
ROOT
ATOM      1  C   UNL     1       6.353   1.227   0.869  1.00  0.00     0.080 C 
ENDROOT
BRANCH   1   2
ATOM      2  C   UNL     1       5.664   0.420   1.915  1.00  0.00     0.130 C 
ATOM      3  C   UNL     1       6.280  -0.809   2.484  1.00  0.00     0.087 C 
ATOM      4  O   UNL     1       4.567   0.747   2.337  1.00  0.00    -0.300 OA
ENDBRANCH   1   2
BRANCH   1   5
ATOM      5  C   UNL     1       5.836   0.890  -0.516  1.00  0.00     0.043 C 
BRANCH   5   6
ATOM      6  C   UNL     1       6.804   0.081  -1.278  1.00  0.00    -0.044 A 
ATOM      7  C   UNL     1       7.516   0.616  -2.358  1.00  0.00     0.008 A 
ATOM      8  C   UNL     1       7.021  -1.232  -0.928  1.00  0.00     0.054 A 
ATOM      9  C   UNL     1       8.412  -0.191  -3.036  1.00  0.00     0.051 A 
ATOM     10  C   UNL     1       7.928  -2.043  -1.616  1.00  0.00     0.166 A 
ATOM     11  C   UNL     1       8.629  -1.518  -2.679  1.00  0.00     0.165 A 
ATOM     12  O   UNL     1       8.315  -3.358  -1.465  1.00  0.00    -0.454 OA
ATOM     13  O   UNL     1       9.441  -2.532  -3.163  1.00  0.00    -0.454 OA
ATOM     14  C   UNL     1       9.341  -3.688  -2.366  1.00  0.00     0.468 C 
ENDBRANCH   5   6
ENDBRANCH   1   5
TORSDOF 3
ENDMDL
MODEL 5
REMARK VINA RESULT:      -6.7      1.192      5.171
REMARK SMILES CC(=O)CCc1ccc2c(c1)OCO2
REMARK SMILES IDX 4 1 2 2 1 3 3 4 5 5 6 6 7 7 11 8 8 9 10 10 9 11 12 12 14 13
REMARK SMILES IDX 13 14
REMARK H PARENT
REMARK Flexibility Score: inf
ROOT
ATOM      1  C   UNL     1       8.346   0.180  -2.681  1.00  0.00     0.080 C 
ENDROOT
BRANCH   1   2
ATOM      2  C   UNL     1       8.068  -1.281  -2.776  1.00  0.00     0.130 C 
ATOM      3  C   UNL     1       9.154  -2.267  -3.023  1.00  0.00     0.087 C 
ATOM      4  O   UNL     1       6.933  -1.712  -2.655  1.00  0.00    -0.300 OA
ENDBRANCH   1   2
BRANCH   1   5
ATOM      5  C   UNL     1       8.875   0.551  -1.309  1.00  0.00     0.043 C 
BRANCH   5   6
ATOM      6  C   UNL     1       7.840   0.417  -0.269  1.00  0.00    -0.044 A 
ATOM      7  C   UNL     1       7.944  -0.534   0.752  1.00  0.00     0.008 A 
ATOM      8  C   UNL     1       6.740   1.245  -0.291  1.00  0.00     0.054 A 
ATOM      9  C   UNL     1       6.942  -0.612   1.701  1.00  0.00     0.051 A 
ATOM     10  C   UNL     1       5.730   1.162   0.671  1.00  0.00     0.166 A 
ATOM     11  C   UNL     1       5.831   0.226   1.676  1.00  0.00     0.165 A 
ATOM     12  O   UNL     1       4.556   1.860   0.864  1.00  0.00    -0.454 OA
ATOM     13  O   UNL     1       4.707   0.369   2.473  1.00  0.00    -0.454 OA
ATOM     14  C   UNL     1       3.917   1.454   2.047  1.00  0.00     0.468 C 
ENDBRANCH   5   6
ENDBRANCH   1   5
TORSDOF 3
ENDMDL
