@<TRIPOS>MOLECULE
/home/cewinharhar/GITHUB/reincatalyze/data/processed/docking_pred/2023-May-25-1902_sub9_nm5_bs15_s42_ex16_mel10_mts10000_k50_ec01_g099_lra3e-4_lrc3e-3/36543b95c0c748273319382419c31c9b55863a9a_ligand_9.pdbqt
 14 15 0 0 0
SMALL
GASTEIGER

@<TRIPOS>ATOM
      1  C          5.7320    1.3850   -0.2580 C.3     1  UNL1        0.0800
      2  C          5.0860    1.2660    1.0790 C.2     1  UNL1        0.1300
      3  C          5.3700    0.1210    1.9840 C.3     1  UNL1        0.0870
      4  O          4.2970    2.1100    1.4710 O.2     1  UNL1       -0.3000
      5  C          7.2240    1.1290   -0.1720 C.3     1  UNL1        0.0430
      6  C          7.5940   -0.1560   -0.7920 C.2     1  UNL1       -0.0440
      7  C          7.6510   -0.3100   -2.1810 C.2     1  UNL1        0.0080
      8  C          7.8960   -1.2360    0.0060 C.2     1  UNL1        0.0540
      9  C          8.0060   -1.5390   -2.7060 C.2     1  UNL1        0.0510
     10  C          8.2550   -2.4760   -0.5290 C.2     1  UNL1        0.1660
     11  C          8.3100   -2.6300   -1.8960 C.2     1  UNL1        0.1650
     12  O          8.5940   -3.6840    0.0430 O.2     1  UNL1       -0.4540
     13  O          8.6870   -3.9410   -2.1380 O.2     1  UNL1       -0.4540
     14  C          8.9650   -4.6200   -0.9360 C.3     1  UNL1        0.4680
@<TRIPOS>BOND
     1     9     7    1
     2     9    11    2
     3     7     6    2
     4    13    11    1
     5    13    14    1
     6    11    10    1
     7    14    12    1
     8     6     5    1
     9     6     8    1
    10    10     8    2
    11    10    12    1
    12     1     5    1
    13     1     2    1
    14     2     4    2
    15     2     3    1
