@<TRIPOS>MOLECULE
/home/cewinharhar/GITHUB/reincatalyze/data/processed/docking_pred/2023-May-25-1902_sub9_nm5_bs15_s42_ex16_mel10_mts10000_k50_ec01_g099_lra3e-4_lrc3e-3/367438b83e07ec58543242b49c62b5ced391bd04_ligand_9.pdbqt
 14 15 0 0 0
SMALL
GASTEIGER

@<TRIPOS>ATOM
      1  C          6.3760    1.1870    0.9330 C.3     1  UNL1        0.0800
      2  C          5.6420    0.3720    1.9400 C.2     1  UNL1        0.1300
      3  C          6.2470   -0.8410    2.5540 C.3     1  UNL1        0.0870
      4  O          4.5150    0.6780    2.2930 O.2     1  UNL1       -0.3000
      5  C          5.8720    0.9120   -0.4700 C.3     1  UNL1        0.0430
      6  C          6.8210    0.0880   -1.2400 C.2     1  UNL1       -0.0440
      7  C          7.5050    0.6000   -2.3490 C.2     1  UNL1        0.0080
      8  C          7.0490   -1.2170   -0.8680 C.2     1  UNL1        0.0540
      9  C          8.3840   -0.2200   -3.0320 C.2     1  UNL1        0.0510
     10  C          7.9400   -2.0420   -1.5620 C.2     1  UNL1        0.1660
     11  C          8.6120   -1.5390   -2.6530 C.2     1  UNL1        0.1650
     12  O          8.3330   -3.3520   -1.3930 O.2     1  UNL1       -0.4540
     13  O          9.4130   -2.5620   -3.1370 O.2     1  UNL1       -0.4540
     14  C          9.3350   -3.7010   -2.3130 C.3     1  UNL1        0.4680
@<TRIPOS>BOND
     1    13    11    1
     2    13    14    1
     3     9    11    2
     4     9     7    1
     5    11    10    1
     6     7     6    2
     7    14    12    1
     8    10    12    1
     9    10     8    2
    10     6     8    1
    11     6     5    1
    12     5     1    1
    13     1     2    1
    14     2     4    2
    15     2     3    1
