@<TRIPOS>MOLECULE
/home/cewinharhar/GITHUB/reincatalyze/data/processed/docking_pred/2023-May-25-1902_sub9_nm5_bs15_s42_ex16_mel10_mts10000_k50_ec01_g099_lra3e-4_lrc3e-3/367438b83e07ec58543242b49c62b5ced391bd04_ligand_9.pdbqt
 14 15 0 0 0
SMALL
GASTEIGER

@<TRIPOS>ATOM
      1  C          6.7100    0.5770    1.3150 C.3     1  UNL1        0.0800
      2  C          5.3190    1.0900    1.4620 C.2     1  UNL1        0.1300
      3  C          4.7800    2.1500    0.5670 C.3     1  UNL1        0.0870
      4  O          4.5780    0.6540    2.3270 O.2     1  UNL1       -0.3000
      5  C          7.2430    0.8220   -0.0820 C.3     1  UNL1        0.0430
      6  C          7.6560   -0.4320   -0.7370 C.2     1  UNL1       -0.0440
      7  C          7.7590   -0.5330   -2.1290 C.2     1  UNL1        0.0080
      8  C          7.9530   -1.5360    0.0290 C.2     1  UNL1        0.0540
      9  C          8.1530   -1.7350   -2.6880 C.2     1  UNL1        0.0510
     10  C          8.3510   -2.7500   -0.5400 C.2     1  UNL1        0.1660
     11  C          8.4520   -2.8500   -1.9100 C.2     1  UNL1        0.1650
     12  O          8.6940   -3.9720   -0.0030 O.2     1  UNL1       -0.4540
     13  O          8.8600   -4.1450   -2.1880 O.2     1  UNL1       -0.4540
     14  C          9.1130   -4.8630   -1.0040 C.3     1  UNL1        0.4680
@<TRIPOS>BOND
     1     9     7    1
     2     9    11    2
     3    13    11    1
     4    13    14    1
     5     7     6    2
     6    11    10    1
     7    14    12    1
     8     6     5    1
     9     6     8    1
    10    10    12    1
    11    10     8    2
    12     5     1    1
    13     3     2    1
    14     1     2    1
    15     2     4    2
