@<TRIPOS>MOLECULE
/home/cewinharhar/GITHUB/reincatalyze/data/processed/docking_pred/2023-May-25-1902_sub9_nm5_bs15_s42_ex16_mel10_mts10000_k50_ec01_g099_lra3e-4_lrc3e-3/367438b83e07ec58543242b49c62b5ced391bd04_ligand_9.pdbqt
 14 15 0 0 0
SMALL
GASTEIGER

@<TRIPOS>ATOM
      1  C          5.4990    1.9200    1.2700 C.3     1  UNL1        0.0800
      2  C          5.0010    0.7130    1.9870 C.2     1  UNL1        0.1300
      3  C          5.8290   -0.5170    2.1130 C.3     1  UNL1        0.0870
      4  O          3.8920    0.6980    2.4940 O.2     1  UNL1       -0.3000
      5  C          5.3890    1.7530   -0.2320 C.3     1  UNL1        0.0430
      6  C          6.5560    1.0480   -0.7910 C.2     1  UNL1       -0.0440
      7  C          7.8640    1.4730   -0.5290 C.2     1  UNL1        0.0080
      8  C          6.3680   -0.0570   -1.5890 C.2     1  UNL1        0.0540
      9  C          8.9210    0.7720   -1.0800 C.2     1  UNL1        0.0510
     10  C          7.4400   -0.7630   -2.1430 C.2     1  UNL1        0.1660
     11  C          8.7270   -0.3450   -1.8870 C.2     1  UNL1        0.1650
     12  O          7.5140   -1.8740   -2.9570 O.2     1  UNL1       -0.4540
     13  O          9.5730   -1.2170   -2.5540 O.2     1  UNL1       -0.4540
     14  C          8.8490   -2.2550   -3.1700 C.3     1  UNL1        0.4680
@<TRIPOS>BOND
     1    14    12    1
     2    14    13    1
     3    12    10    1
     4    13    11    1
     5    10    11    2
     6    10     8    1
     7    11     9    1
     8     8     6    2
     9     9     7    2
    10     6     7    1
    11     6     5    1
    12     5     1    1
    13     1     2    1
    14     2     3    1
    15     2     4    2
