@<TRIPOS>MOLECULE
/home/cewinharhar/GITHUB/reincatalyze/data/processed/docking_pred/2023-May-25-1902_sub9_nm5_bs15_s42_ex16_mel10_mts10000_k50_ec01_g099_lra3e-4_lrc3e-3/367438b83e07ec58543242b49c62b5ced391bd04_ligand_9.pdbqt
 14 15 0 0 0
SMALL
GASTEIGER

@<TRIPOS>ATOM
      1  C          5.3810   -0.0910    2.0000 C.3     1  UNL1        0.0800
      2  C          4.5210    1.0990    1.7490 C.2     1  UNL1        0.1300
      3  C          4.8310    2.0720    0.6680 C.3     1  UNL1        0.0870
      4  O          3.5310    1.3120    2.4300 O.2     1  UNL1       -0.3000
      5  C          6.8160    0.1690    1.5860 C.3     1  UNL1        0.0430
      6  C          7.2550   -0.7580    0.5270 C.2     1  UNL1       -0.0440
      7  C          7.1250   -0.4370   -0.8290 C.2     1  UNL1        0.0080
      8  C          7.8110   -1.9700    0.8690 C.2     1  UNL1        0.0540
      9  C          7.5560   -1.3450   -1.7780 C.2     1  UNL1        0.0510
     10  C          8.2460   -2.8850   -0.0940 C.2     1  UNL1        0.1660
     11  C          8.1170   -2.5700   -1.4290 C.2     1  UNL1        0.1650
     12  O          8.8220   -4.1350   -0.0110 O.2     1  UNL1       -0.4540
     13  O          8.6220   -3.6440   -2.1440 O.2     1  UNL1       -0.4540
     14  C          9.1630   -4.6190   -1.2840 C.3     1  UNL1        0.4680
@<TRIPOS>BOND
     1    13    11    1
     2    13    14    1
     3     9    11    2
     4     9     7    1
     5    11    10    1
     6    14    12    1
     7     7     6    2
     8    10    12    1
     9    10     8    2
    10     6     8    1
    11     6     5    1
    12     3     2    1
    13     5     1    1
    14     2     1    1
    15     2     4    2
