MODEL 1
REMARK VINA RESULT:      -7.6      0.000      0.000
REMARK SMILES CC(=O)CCc1ccc2c(c1)OCO2
REMARK SMILES IDX 4 1 2 2 1 3 3 4 5 5 6 6 7 7 11 8 8 9 10 10 9 11 12 12 14 13
REMARK SMILES IDX 13 14
REMARK H PARENT
REMARK Flexibility Score: inf
ROOT
ATOM      1  C   UNL     1       5.499   1.920   1.270  1.00  0.00     0.080 C 
ENDROOT
BRANCH   1   2
ATOM      2  C   UNL     1       5.001   0.713   1.987  1.00  0.00     0.130 C 
ATOM      3  C   UNL     1       5.829  -0.517   2.113  1.00  0.00     0.087 C 
ATOM      4  O   UNL     1       3.892   0.698   2.494  1.00  0.00    -0.300 OA
ENDBRANCH   1   2
BRANCH   1   5
ATOM      5  C   UNL     1       5.389   1.753  -0.232  1.00  0.00     0.043 C 
BRANCH   5   6
ATOM      6  C   UNL     1       6.556   1.048  -0.791  1.00  0.00    -0.044 A 
ATOM      7  C   UNL     1       7.864   1.473  -0.529  1.00  0.00     0.008 A 
ATOM      8  C   UNL     1       6.368  -0.057  -1.589  1.00  0.00     0.054 A 
ATOM      9  C   UNL     1       8.921   0.772  -1.080  1.00  0.00     0.051 A 
ATOM     10  C   UNL     1       7.440  -0.763  -2.143  1.00  0.00     0.166 A 
ATOM     11  C   UNL     1       8.727  -0.345  -1.887  1.00  0.00     0.165 A 
ATOM     12  O   UNL     1       7.514  -1.874  -2.957  1.00  0.00    -0.454 OA
ATOM     13  O   UNL     1       9.573  -1.217  -2.554  1.00  0.00    -0.454 OA
ATOM     14  C   UNL     1       8.849  -2.255  -3.170  1.00  0.00     0.468 C 
ENDBRANCH   5   6
ENDBRANCH   1   5
TORSDOF 3
ENDMDL
MODEL 2
REMARK VINA RESULT:      -7.4      1.958      2.414
REMARK SMILES CC(=O)CCc1ccc2c(c1)OCO2
REMARK SMILES IDX 4 1 2 2 1 3 3 4 5 5 6 6 7 7 11 8 8 9 10 10 9 11 12 12 14 13
REMARK SMILES IDX 13 14
REMARK H PARENT
REMARK Flexibility Score: inf
ROOT
ATOM      1  C   UNL     1       5.725   1.230  -0.313  1.00  0.00     0.080 C 
ENDROOT
BRANCH   1   2
ATOM      2  C   UNL     1       5.125   1.187   1.049  1.00  0.00     0.130 C 
ATOM      3  C   UNL     1       5.236  -0.019   1.913  1.00  0.00     0.087 C 
ATOM      4  O   UNL     1       4.521   2.147   1.499  1.00  0.00    -0.300 OA
ENDBRANCH   1   2
BRANCH   1   5
ATOM      5  C   UNL     1       7.229   1.044  -0.259  1.00  0.00     0.043 C 
BRANCH   5   6
ATOM      6  C   UNL     1       7.643  -0.235  -0.862  1.00  0.00    -0.044 A 
ATOM      7  C   UNL     1       7.808  -0.375  -2.245  1.00  0.00     0.008 A 
ATOM      8  C   UNL     1       7.879  -1.325  -0.055  1.00  0.00     0.054 A 
ATOM      9  C   UNL     1       8.200  -1.600  -2.753  1.00  0.00     0.051 A 
ATOM     10  C   UNL     1       8.275  -2.561  -0.574  1.00  0.00     0.166 A 
ATOM     11  C   UNL     1       8.437  -2.700  -1.935  1.00  0.00     0.165 A 
ATOM     12  O   UNL     1       8.565  -3.776   0.010  1.00  0.00    -0.454 OA
ATOM     13  O   UNL     1       8.828  -4.010  -2.160  1.00  0.00    -0.454 OA
ATOM     14  C   UNL     1       9.009  -4.702  -0.948  1.00  0.00     0.468 C 
ENDBRANCH   5   6
ENDBRANCH   1   5
TORSDOF 3
ENDMDL
MODEL 3
REMARK VINA RESULT:      -7.3      2.081      2.648
REMARK SMILES CC(=O)CCc1ccc2c(c1)OCO2
REMARK SMILES IDX 4 1 2 2 1 3 3 4 5 5 6 6 7 7 11 8 8 9 10 10 9 11 12 12 14 13
REMARK SMILES IDX 13 14
REMARK H PARENT
REMARK Flexibility Score: inf
ROOT
ATOM      1  C   UNL     1       5.381  -0.091   2.000  1.00  0.00     0.080 C 
ENDROOT
BRANCH   1   2
ATOM      2  C   UNL     1       4.521   1.099   1.749  1.00  0.00     0.130 C 
ATOM      3  C   UNL     1       4.831   2.072   0.668  1.00  0.00     0.087 C 
ATOM      4  O   UNL     1       3.531   1.312   2.430  1.00  0.00    -0.300 OA
ENDBRANCH   1   2
BRANCH   1   5
ATOM      5  C   UNL     1       6.816   0.169   1.586  1.00  0.00     0.043 C 
BRANCH   5   6
ATOM      6  C   UNL     1       7.255  -0.758   0.527  1.00  0.00    -0.044 A 
ATOM      7  C   UNL     1       7.125  -0.437  -0.829  1.00  0.00     0.008 A 
ATOM      8  C   UNL     1       7.811  -1.970   0.869  1.00  0.00     0.054 A 
ATOM      9  C   UNL     1       7.556  -1.345  -1.778  1.00  0.00     0.051 A 
ATOM     10  C   UNL     1       8.246  -2.885  -0.094  1.00  0.00     0.166 A 
ATOM     11  C   UNL     1       8.117  -2.570  -1.429  1.00  0.00     0.165 A 
ATOM     12  O   UNL     1       8.822  -4.135  -0.011  1.00  0.00    -0.454 OA
ATOM     13  O   UNL     1       8.622  -3.644  -2.144  1.00  0.00    -0.454 OA
ATOM     14  C   UNL     1       9.163  -4.619  -1.284  1.00  0.00     0.468 C 
ENDBRANCH   5   6
ENDBRANCH   1   5
TORSDOF 3
ENDMDL
MODEL 4
REMARK VINA RESULT:      -7.0      2.029      2.605
REMARK SMILES CC(=O)CCc1ccc2c(c1)OCO2
REMARK SMILES IDX 4 1 2 2 1 3 3 4 5 5 6 6 7 7 11 8 8 9 10 10 9 11 12 12 14 13
REMARK SMILES IDX 13 14
REMARK H PARENT
REMARK Flexibility Score: inf
ROOT
ATOM      1  C   UNL     1       6.710   0.577   1.315  1.00  0.00     0.080 C 
ENDROOT
BRANCH   1   2
ATOM      2  C   UNL     1       5.319   1.090   1.462  1.00  0.00     0.130 C 
ATOM      3  C   UNL     1       4.780   2.150   0.567  1.00  0.00     0.087 C 
ATOM      4  O   UNL     1       4.578   0.654   2.327  1.00  0.00    -0.300 OA
ENDBRANCH   1   2
BRANCH   1   5
ATOM      5  C   UNL     1       7.243   0.822  -0.082  1.00  0.00     0.043 C 
BRANCH   5   6
ATOM      6  C   UNL     1       7.656  -0.432  -0.737  1.00  0.00    -0.044 A 
ATOM      7  C   UNL     1       7.759  -0.533  -2.129  1.00  0.00     0.008 A 
ATOM      8  C   UNL     1       7.953  -1.536   0.029  1.00  0.00     0.054 A 
ATOM      9  C   UNL     1       8.153  -1.735  -2.688  1.00  0.00     0.051 A 
ATOM     10  C   UNL     1       8.351  -2.750  -0.540  1.00  0.00     0.166 A 
ATOM     11  C   UNL     1       8.452  -2.850  -1.910  1.00  0.00     0.165 A 
ATOM     12  O   UNL     1       8.694  -3.972  -0.003  1.00  0.00    -0.454 OA
ATOM     13  O   UNL     1       8.860  -4.145  -2.188  1.00  0.00    -0.454 OA
ATOM     14  C   UNL     1       9.113  -4.863  -1.004  1.00  0.00     0.468 C 
ENDBRANCH   5   6
ENDBRANCH   1   5
TORSDOF 3
ENDMDL
MODEL 5
REMARK VINA RESULT:      -7.0      1.274      1.499
REMARK SMILES CC(=O)CCc1ccc2c(c1)OCO2
REMARK SMILES IDX 4 1 2 2 1 3 3 4 5 5 6 6 7 7 11 8 8 9 10 10 9 11 12 12 14 13
REMARK SMILES IDX 13 14
REMARK H PARENT
REMARK Flexibility Score: inf
ROOT
ATOM      1  C   UNL     1       6.376   1.187   0.933  1.00  0.00     0.080 C 
ENDROOT
BRANCH   1   2
ATOM      2  C   UNL     1       5.642   0.372   1.940  1.00  0.00     0.130 C 
ATOM      3  C   UNL     1       6.247  -0.841   2.554  1.00  0.00     0.087 C 
ATOM      4  O   UNL     1       4.515   0.678   2.293  1.00  0.00    -0.300 OA
ENDBRANCH   1   2
BRANCH   1   5
ATOM      5  C   UNL     1       5.872   0.912  -0.470  1.00  0.00     0.043 C 
BRANCH   5   6
ATOM      6  C   UNL     1       6.821   0.088  -1.240  1.00  0.00    -0.044 A 
ATOM      7  C   UNL     1       7.505   0.600  -2.349  1.00  0.00     0.008 A 
ATOM      8  C   UNL     1       7.049  -1.217  -0.868  1.00  0.00     0.054 A 
ATOM      9  C   UNL     1       8.384  -0.220  -3.032  1.00  0.00     0.051 A 
ATOM     10  C   UNL     1       7.940  -2.042  -1.562  1.00  0.00     0.166 A 
ATOM     11  C   UNL     1       8.612  -1.539  -2.653  1.00  0.00     0.165 A 
ATOM     12  O   UNL     1       8.333  -3.352  -1.393  1.00  0.00    -0.454 OA
ATOM     13  O   UNL     1       9.413  -2.562  -3.137  1.00  0.00    -0.454 OA
ATOM     14  C   UNL     1       9.335  -3.701  -2.313  1.00  0.00     0.468 C 
ENDBRANCH   5   6
ENDBRANCH   1   5
TORSDOF 3
ENDMDL
