@<TRIPOS>MOLECULE
/home/cewinharhar/GITHUB/reincatalyze/data/processed/docking_pred/2023-May-25-1902_sub9_nm5_bs15_s42_ex16_mel10_mts10000_k50_ec01_g099_lra3e-4_lrc3e-3/37a8b72800122466266a4bb22cdda1f56f02b914_ligand_9.pdbqt
 14 15 0 0 0
SMALL
GASTEIGER

@<TRIPOS>ATOM
      1  C          5.7380    1.2750   -0.2710 C.3     1  UNL1        0.0800
      2  C          5.1800    1.2390    1.1100 C.2     1  UNL1        0.1300
      3  C          5.4460    0.1020    2.0310 C.3     1  UNL1        0.0870
      4  O          4.4830    2.1500    1.5280 O.2     1  UNL1       -0.3000
      5  C          7.2400    1.0680   -0.2630 C.3     1  UNL1        0.0430
      6  C          7.6150   -0.2310   -0.8490 C.2     1  UNL1       -0.0440
      7  C          7.6780   -0.4200   -2.2350 C.2     1  UNL1        0.0080
      8  C          7.9160   -1.2910   -0.0240 C.2     1  UNL1        0.0540
      9  C          8.0370   -1.6610   -2.7280 C.2     1  UNL1        0.0510
     10  C          8.2790   -2.5440   -0.5270 C.2     1  UNL1        0.1660
     11  C          8.3400   -2.7300   -1.8900 C.2     1  UNL1        0.1650
     12  O          8.6190   -3.7360    0.0760 O.2     1  UNL1       -0.4540
     13  O          8.7200   -4.0470   -2.0980 O.2     1  UNL1       -0.4540
     14  C          8.9960   -4.6950   -0.8790 C.3     1  UNL1        0.4680
@<TRIPOS>BOND
     1     9     7    1
     2     9    11    2
     3     7     6    2
     4    13    11    1
     5    13    14    1
     6    11    10    1
     7    14    12    1
     8     6     5    1
     9     6     8    1
    10    10     8    2
    11    10    12    1
    12     1     5    1
    13     1     2    1
    14     2     4    2
    15     2     3    1
