MODEL 1
REMARK VINA RESULT:      -7.7      0.000      0.000
REMARK SMILES CC(=O)CCc1ccc2c(c1)OCO2
REMARK SMILES IDX 4 1 2 2 1 3 3 4 5 5 6 6 7 7 11 8 8 9 10 10 9 11 12 12 14 13
REMARK SMILES IDX 13 14
REMARK H PARENT
REMARK Flexibility Score: inf
ROOT
ATOM      1  C   UNL     1       5.518   1.926   1.260  1.00  0.00     0.080 C 
ENDROOT
BRANCH   1   2
ATOM      2  C   UNL     1       5.091   0.708   2.004  1.00  0.00     0.130 C 
ATOM      3  C   UNL     1       5.997  -0.459   2.177  1.00  0.00     0.087 C 
ATOM      4  O   UNL     1       3.976   0.633   2.496  1.00  0.00    -0.300 OA
ENDBRANCH   1   2
BRANCH   1   5
ATOM      5  C   UNL     1       5.393   1.728  -0.237  1.00  0.00     0.043 C 
BRANCH   5   6
ATOM      6  C   UNL     1       6.562   1.026  -0.796  1.00  0.00    -0.044 A 
ATOM      7  C   UNL     1       7.868   1.455  -0.534  1.00  0.00     0.008 A 
ATOM      8  C   UNL     1       6.377  -0.081  -1.592  1.00  0.00     0.054 A 
ATOM      9  C   UNL     1       8.927   0.757  -1.085  1.00  0.00     0.051 A 
ATOM     10  C   UNL     1       7.451  -0.784  -2.146  1.00  0.00     0.166 A 
ATOM     11  C   UNL     1       8.736  -0.362  -1.890  1.00  0.00     0.165 A 
ATOM     12  O   UNL     1       7.527  -1.896  -2.958  1.00  0.00    -0.454 OA
ATOM     13  O   UNL     1       9.584  -1.233  -2.557  1.00  0.00    -0.454 OA
ATOM     14  C   UNL     1       8.863  -2.274  -3.171  1.00  0.00     0.468 C 
ENDBRANCH   5   6
ENDBRANCH   1   5
TORSDOF 3
ENDMDL
MODEL 2
REMARK VINA RESULT:      -7.4      1.904      2.394
REMARK SMILES CC(=O)CCc1ccc2c(c1)OCO2
REMARK SMILES IDX 4 1 2 2 1 3 3 4 5 5 6 6 7 7 11 8 8 9 10 10 9 11 12 12 14 13
REMARK SMILES IDX 13 14
REMARK H PARENT
REMARK Flexibility Score: inf
ROOT
ATOM      1  C   UNL     1       5.820   1.415  -0.339  1.00  0.00     0.080 C 
ENDROOT
BRANCH   1   2
ATOM      2  C   UNL     1       5.157   1.323   0.992  1.00  0.00     0.130 C 
ATOM      3  C   UNL     1       5.474   0.228   1.947  1.00  0.00     0.087 C 
ATOM      4  O   UNL     1       4.329   2.149   1.338  1.00  0.00    -0.300 OA
ENDBRANCH   1   2
BRANCH   1   5
ATOM      5  C   UNL     1       7.301   1.109  -0.239  1.00  0.00     0.043 C 
BRANCH   5   6
ATOM      6  C   UNL     1       7.636  -0.180  -0.870  1.00  0.00    -0.044 A 
ATOM      7  C   UNL     1       7.640  -0.336  -2.261  1.00  0.00     0.008 A 
ATOM      8  C   UNL     1       7.957  -1.262  -0.082  1.00  0.00     0.054 A 
ATOM      9  C   UNL     1       7.964  -1.570  -2.797  1.00  0.00     0.051 A 
ATOM     10  C   UNL     1       8.285  -2.506  -0.629  1.00  0.00     0.166 A 
ATOM     11  C   UNL     1       8.287  -2.662  -1.997  1.00  0.00     0.165 A 
ATOM     12  O   UNL     1       8.634  -3.717  -0.068  1.00  0.00    -0.454 OA
ATOM     13  O   UNL     1       8.643  -3.977  -2.251  1.00  0.00    -0.454 OA
ATOM     14  C   UNL     1       8.959  -4.657  -1.059  1.00  0.00     0.468 C 
ENDBRANCH   5   6
ENDBRANCH   1   5
TORSDOF 3
ENDMDL
MODEL 3
REMARK VINA RESULT:      -7.2      2.055      2.631
REMARK SMILES CC(=O)CCc1ccc2c(c1)OCO2
REMARK SMILES IDX 4 1 2 2 1 3 3 4 5 5 6 6 7 7 11 8 8 9 10 10 9 11 12 12 14 13
REMARK SMILES IDX 13 14
REMARK H PARENT
REMARK Flexibility Score: inf
ROOT
ATOM      1  C   UNL     1       5.401  -0.062   2.029  1.00  0.00     0.080 C 
ENDROOT
BRANCH   1   2
ATOM      2  C   UNL     1       4.552   1.134   1.770  1.00  0.00     0.130 C 
ATOM      3  C   UNL     1       4.893   2.119   0.709  1.00  0.00     0.087 C 
ATOM      4  O   UNL     1       3.544   1.341   2.426  1.00  0.00    -0.300 OA
ENDBRANCH   1   2
BRANCH   1   5
ATOM      5  C   UNL     1       6.839   0.185   1.621  1.00  0.00     0.043 C 
BRANCH   5   6
ATOM      6  C   UNL     1       7.270  -0.735   0.554  1.00  0.00    -0.044 A 
ATOM      7  C   UNL     1       7.152  -0.396  -0.799  1.00  0.00     0.008 A 
ATOM      8  C   UNL     1       7.806  -1.959   0.884  1.00  0.00     0.054 A 
ATOM      9  C   UNL     1       7.574  -1.300  -1.757  1.00  0.00     0.051 A 
ATOM     10  C   UNL     1       8.232  -2.870  -0.088  1.00  0.00     0.166 A 
ATOM     11  C   UNL     1       8.115  -2.537  -1.419  1.00  0.00     0.165 A 
ATOM     12  O   UNL     1       8.788  -4.129  -0.016  1.00  0.00    -0.454 OA
ATOM     13  O   UNL     1       8.608  -3.611  -2.145  1.00  0.00    -0.454 OA
ATOM     14  C   UNL     1       9.129  -4.603  -1.294  1.00  0.00     0.468 C 
ENDBRANCH   5   6
ENDBRANCH   1   5
TORSDOF 3
ENDMDL
MODEL 4
REMARK VINA RESULT:      -7.1      1.264      1.479
REMARK SMILES CC(=O)CCc1ccc2c(c1)OCO2
REMARK SMILES IDX 4 1 2 2 1 3 3 4 5 5 6 6 7 7 11 8 8 9 10 10 9 11 12 12 14 13
REMARK SMILES IDX 13 14
REMARK H PARENT
REMARK Flexibility Score: inf
ROOT
ATOM      1  C   UNL     1       6.381   1.174   0.962  1.00  0.00     0.080 C 
ENDROOT
BRANCH   1   2
ATOM      2  C   UNL     1       5.640   0.351   1.958  1.00  0.00     0.130 C 
ATOM      3  C   UNL     1       6.232  -0.876   2.553  1.00  0.00     0.087 C 
ATOM      4  O   UNL     1       4.515   0.663   2.316  1.00  0.00    -0.300 OA
ENDBRANCH   1   2
BRANCH   1   5
ATOM      5  C   UNL     1       5.875   0.924  -0.444  1.00  0.00     0.043 C 
BRANCH   5   6
ATOM      6  C   UNL     1       6.814   0.098  -1.224  1.00  0.00    -0.044 A 
ATOM      7  C   UNL     1       7.473   0.603  -2.351  1.00  0.00     0.008 A 
ATOM      8  C   UNL     1       7.058  -1.202  -0.843  1.00  0.00     0.054 A 
ATOM      9  C   UNL     1       8.344  -0.218  -3.043  1.00  0.00     0.051 A 
ATOM     10  C   UNL     1       7.940  -2.028  -1.546  1.00  0.00     0.166 A 
ATOM     11  C   UNL     1       8.588  -1.532  -2.656  1.00  0.00     0.165 A 
ATOM     12  O   UNL     1       8.344  -3.334  -1.372  1.00  0.00    -0.454 OA
ATOM     13  O   UNL     1       9.386  -2.555  -3.144  1.00  0.00    -0.454 OA
ATOM     14  C   UNL     1       9.331  -3.686  -2.308  1.00  0.00     0.468 C 
ENDBRANCH   5   6
ENDBRANCH   1   5
TORSDOF 3
ENDMDL
MODEL 5
REMARK VINA RESULT:      -6.8      1.184      5.172
REMARK SMILES CC(=O)CCc1ccc2c(c1)OCO2
REMARK SMILES IDX 4 1 2 2 1 3 3 4 5 5 6 6 7 7 11 8 8 9 10 10 9 11 12 12 14 13
REMARK SMILES IDX 13 14
REMARK H PARENT
REMARK Flexibility Score: inf
ROOT
ATOM      1  C   UNL     1       8.339   0.202  -2.628  1.00  0.00     0.080 C 
ENDROOT
BRANCH   1   2
ATOM      2  C   UNL     1       8.039  -1.253  -2.739  1.00  0.00     0.130 C 
ATOM      3  C   UNL     1       9.101  -2.248  -3.050  1.00  0.00     0.087 C 
ATOM      4  O   UNL     1       6.905  -1.673  -2.577  1.00  0.00    -0.300 OA
ENDBRANCH   1   2
BRANCH   1   5
ATOM      5  C   UNL     1       8.861   0.553  -1.249  1.00  0.00     0.043 C 
BRANCH   5   6
ATOM      6  C   UNL     1       7.817   0.416  -0.218  1.00  0.00    -0.044 A 
ATOM      7  C   UNL     1       7.909  -0.543   0.796  1.00  0.00     0.008 A 
ATOM      8  C   UNL     1       6.721   1.249  -0.243  1.00  0.00     0.054 A 
ATOM      9  C   UNL     1       6.898  -0.625   1.737  1.00  0.00     0.051 A 
ATOM     10  C   UNL     1       5.702   1.163   0.711  1.00  0.00     0.166 A 
ATOM     11  C   UNL     1       5.791   0.218   1.709  1.00  0.00     0.165 A 
ATOM     12  O   UNL     1       4.530   1.863   0.899  1.00  0.00    -0.454 OA
ATOM     13  O   UNL     1       4.661   0.361   2.498  1.00  0.00    -0.454 OA
ATOM     14  C   UNL     1       3.879   1.451   2.073  1.00  0.00     0.468 C 
ENDBRANCH   5   6
ENDBRANCH   1   5
TORSDOF 3
ENDMDL
