@<TRIPOS>MOLECULE
/home/cewinharhar/GITHUB/reincatalyze/data/processed/docking_pred/2023-May-25-1902_sub9_nm5_bs15_s42_ex16_mel10_mts10000_k50_ec01_g099_lra3e-4_lrc3e-3/37aabdb081a78d2f2d4d4e560ab17afff45a2586_ligand_9.pdbqt
 14 15 0 0 0
SMALL
GASTEIGER

@<TRIPOS>ATOM
      1  C          8.3390    0.2020   -2.6280 C.3     1  UNL1        0.0800
      2  C          8.0390   -1.2530   -2.7390 C.2     1  UNL1        0.1300
      3  C          9.1010   -2.2480   -3.0500 C.3     1  UNL1        0.0870
      4  O          6.9050   -1.6730   -2.5770 O.2     1  UNL1       -0.3000
      5  C          8.8610    0.5530   -1.2490 C.3     1  UNL1        0.0430
      6  C          7.8170    0.4160   -0.2180 C.2     1  UNL1       -0.0440
      7  C          7.9090   -0.5430    0.7960 C.2     1  UNL1        0.0080
      8  C          6.7210    1.2490   -0.2430 C.2     1  UNL1        0.0540
      9  C          6.8980   -0.6250    1.7370 C.2     1  UNL1        0.0510
     10  C          5.7020    1.1630    0.7110 C.2     1  UNL1        0.1660
     11  C          5.7910    0.2180    1.7090 C.2     1  UNL1        0.1650
     12  O          4.5300    1.8630    0.8990 O.2     1  UNL1       -0.4540
     13  O          4.6610    0.3610    2.4980 O.2     1  UNL1       -0.4540
     14  C          3.8790    1.4510    2.0730 C.3     1  UNL1        0.4680
@<TRIPOS>BOND
     1     3     2    1
     2     2     1    1
     3     2     4    2
     4     1     5    1
     5     5     6    1
     6     8     6    2
     7     8    10    1
     8     6     7    1
     9    10    12    1
    10    10    11    2
    11     7     9    2
    12    12    14    1
    13    11     9    1
    14    11    13    1
    15    14    13    1
