@<TRIPOS>MOLECULE
/home/cewinharhar/GITHUB/reincatalyze/data/processed/docking_pred/2023-May-25-1902_sub9_nm5_bs15_s42_ex16_mel10_mts10000_k50_ec01_g099_lra3e-4_lrc3e-3/37aabdb081a78d2f2d4d4e560ab17afff45a2586_ligand_9.pdbqt
 14 15 0 0 0
SMALL
GASTEIGER

@<TRIPOS>ATOM
      1  C          5.8200    1.4150   -0.3390 C.3     1  UNL1        0.0800
      2  C          5.1570    1.3230    0.9920 C.2     1  UNL1        0.1300
      3  C          5.4740    0.2280    1.9470 C.3     1  UNL1        0.0870
      4  O          4.3290    2.1490    1.3380 O.2     1  UNL1       -0.3000
      5  C          7.3010    1.1090   -0.2390 C.3     1  UNL1        0.0430
      6  C          7.6360   -0.1800   -0.8700 C.2     1  UNL1       -0.0440
      7  C          7.6400   -0.3360   -2.2610 C.2     1  UNL1        0.0080
      8  C          7.9570   -1.2620   -0.0820 C.2     1  UNL1        0.0540
      9  C          7.9640   -1.5700   -2.7970 C.2     1  UNL1        0.0510
     10  C          8.2850   -2.5060   -0.6290 C.2     1  UNL1        0.1660
     11  C          8.2870   -2.6620   -1.9970 C.2     1  UNL1        0.1650
     12  O          8.6340   -3.7170   -0.0680 O.2     1  UNL1       -0.4540
     13  O          8.6430   -3.9770   -2.2510 O.2     1  UNL1       -0.4540
     14  C          8.9590   -4.6570   -1.0590 C.3     1  UNL1        0.4680
@<TRIPOS>BOND
     1     9     7    1
     2     9    11    2
     3     7     6    2
     4    13    11    1
     5    13    14    1
     6    11    10    1
     7    14    12    1
     8     6     5    1
     9     6     8    1
    10    10     8    2
    11    10    12    1
    12     1     5    1
    13     1     2    1
    14     2     4    2
    15     2     3    1
