@<TRIPOS>MOLECULE
/home/cewinharhar/GITHUB/reincatalyze/data/processed/docking_pred/2023-May-25-1902_sub9_nm5_bs15_s42_ex16_mel10_mts10000_k50_ec01_g099_lra3e-4_lrc3e-3/3b29dc4ebb7ee5049f43ecb42d98a580ffb6b5da_ligand_9.pdbqt
 14 15 0 0 0
SMALL
GASTEIGER

@<TRIPOS>ATOM
      1  C          5.5440    1.9080    1.2650 C.3     1  UNL1        0.0800
      2  C          5.1000    0.6980    2.0120 C.2     1  UNL1        0.1300
      3  C          5.9910   -0.4800    2.1910 C.3     1  UNL1        0.0870
      4  O          3.9840    0.6390    2.5020 O.2     1  UNL1       -0.3000
      5  C          5.4090    1.7110   -0.2310 C.3     1  UNL1        0.0430
      6  C          6.5760    1.0120   -0.7980 C.2     1  UNL1       -0.0440
      7  C          7.8830    1.4500   -0.5530 C.2     1  UNL1        0.0080
      8  C          6.3880   -0.1000   -1.5870 C.2     1  UNL1        0.0540
      9  C          8.9390    0.7530   -1.1110 C.2     1  UNL1        0.0510
     10  C          7.4600   -0.8010   -2.1490 C.2     1  UNL1        0.1660
     11  C          8.7460   -0.3710   -1.9090 C.2     1  UNL1        0.1650
     12  O          7.5330   -1.9170   -2.9550 O.2     1  UNL1       -0.4540
     13  O          9.5910   -1.2410   -2.5790 O.2     1  UNL1       -0.4540
     14  C          8.8690   -2.2890   -3.1810 C.3     1  UNL1        0.4680
@<TRIPOS>BOND
     1    14    12    1
     2    14    13    1
     3    12    10    1
     4    13    11    1
     5    10    11    2
     6    10     8    1
     7    11     9    1
     8     8     6    2
     9     9     7    2
    10     6     7    1
    11     6     5    1
    12     5     1    1
    13     1     2    1
    14     2     3    1
    15     2     4    2
