@<TRIPOS>MOLECULE
/home/cewinharhar/GITHUB/reincatalyze/data/processed/docking_pred/2023-May-25-1902_sub9_nm5_bs15_s42_ex16_mel10_mts10000_k50_ec01_g099_lra3e-4_lrc3e-3/3b98b0574a09314ff34419eb6cee054edaec9098_ligand_9.pdbqt
 14 15 0 0 0
SMALL
GASTEIGER

@<TRIPOS>ATOM
      1  C          5.5830    1.5480   -0.0560 C.3     1  UNL1        0.0800
      2  C          4.9670    1.2370    1.2640 C.2     1  UNL1        0.1300
      3  C          5.4260    0.0870    2.0880 C.3     1  UNL1        0.0870
      4  O          4.0590    1.9210    1.7090 O.2     1  UNL1       -0.3000
      5  C          7.0800    1.3120   -0.0330 C.3     1  UNL1        0.0430
      6  C          7.4410    0.0300   -0.6620 C.2     1  UNL1       -0.0440
      7  C          7.3820   -0.1490   -2.0490 C.2     1  UNL1        0.0080
      8  C          7.8490   -1.0250    0.1230 C.2     1  UNL1        0.0540
      9  C          7.7330   -1.3750   -2.5840 C.2     1  UNL1        0.0510
     10  C          8.2040   -2.2620   -0.4220 C.2     1  UNL1        0.1660
     11  C          8.1450   -2.4390   -1.7870 C.2     1  UNL1        0.1650
     12  O          8.6340   -3.4470    0.1370 O.2     1  UNL1       -0.4540
     13  O          8.5460   -3.7410   -2.0400 O.2     1  UNL1       -0.4540
     14  C          8.9510   -4.3870   -0.8570 C.3     1  UNL1        0.4680
@<TRIPOS>BOND
     1     9     7    1
     2     9    11    2
     3     7     6    2
     4    13    11    1
     5    13    14    1
     6    11    10    1
     7    14    12    1
     8     6     5    1
     9     6     8    1
    10    10     8    2
    11    10    12    1
    12     1     5    1
    13     1     2    1
    14     2     4    2
    15     2     3    1
