MODEL 1
REMARK VINA RESULT:      -7.6      0.000      0.000
REMARK SMILES CC(=O)CCc1ccc2c(c1)OCO2
REMARK SMILES IDX 4 1 2 2 1 3 3 4 5 5 6 6 7 7 11 8 8 9 10 10 9 11 12 12 14 13
REMARK SMILES IDX 13 14
REMARK H PARENT
REMARK Flexibility Score: inf
ROOT
ATOM      1  C   UNL     1       5.530   1.888   1.293  1.00  0.00     0.080 C 
ENDROOT
BRANCH   1   2
ATOM      2  C   UNL     1       5.085   0.667   2.020  1.00  0.00     0.130 C 
ATOM      3  C   UNL     1       5.972  -0.517   2.175  1.00  0.00     0.087 C 
ATOM      4  O   UNL     1       3.971   0.603   2.514  1.00  0.00    -0.300 OA
ENDBRANCH   1   2
BRANCH   1   5
ATOM      5  C   UNL     1       5.400   1.713  -0.207  1.00  0.00     0.043 C 
BRANCH   5   6
ATOM      6  C   UNL     1       6.568   1.022  -0.781  1.00  0.00    -0.044 A 
ATOM      7  C   UNL     1       7.873   1.470  -0.544  1.00  0.00     0.008 A 
ATOM      8  C   UNL     1       6.384  -0.092  -1.567  1.00  0.00     0.054 A 
ATOM      9  C   UNL     1       8.931   0.781  -1.108  1.00  0.00     0.051 A 
ATOM     10  C   UNL     1       7.457  -0.786  -2.134  1.00  0.00     0.166 A 
ATOM     11  C   UNL     1       8.741  -0.345  -1.903  1.00  0.00     0.165 A 
ATOM     12  O   UNL     1       7.534  -1.902  -2.940  1.00  0.00    -0.454 OA
ATOM     13  O   UNL     1       9.589  -1.210  -2.578  1.00  0.00    -0.454 OA
ATOM     14  C   UNL     1       8.871  -2.264  -3.173  1.00  0.00     0.468 C 
ENDBRANCH   5   6
ENDBRANCH   1   5
TORSDOF 3
ENDMDL
MODEL 2
REMARK VINA RESULT:      -7.4      1.896      2.392
REMARK SMILES CC(=O)CCc1ccc2c(c1)OCO2
REMARK SMILES IDX 4 1 2 2 1 3 3 4 5 5 6 6 7 7 11 8 8 9 10 10 9 11 12 12 14 13
REMARK SMILES IDX 13 14
REMARK H PARENT
REMARK Flexibility Score: inf
ROOT
ATOM      1  C   UNL     1       5.813   1.434  -0.410  1.00  0.00     0.080 C 
ENDROOT
BRANCH   1   2
ATOM      2  C   UNL     1       5.202   1.361   0.946  1.00  0.00     0.130 C 
ATOM      3  C   UNL     1       5.619   0.332   1.936  1.00  0.00     0.087 C 
ATOM      4  O   UNL     1       4.335   2.150   1.286  1.00  0.00    -0.300 OA
ENDBRANCH   1   2
BRANCH   1   5
ATOM      5  C   UNL     1       7.307   1.179  -0.355  1.00  0.00     0.043 C 
BRANCH   5   6
ATOM      6  C   UNL     1       7.660  -0.125  -0.943  1.00  0.00    -0.044 A 
ATOM      7  C   UNL     1       7.735  -0.309  -2.329  1.00  0.00     0.008 A 
ATOM      8  C   UNL     1       7.928  -1.195  -0.119  1.00  0.00     0.054 A 
ATOM      9  C   UNL     1       8.073  -1.556  -2.823  1.00  0.00     0.051 A 
ATOM     10  C   UNL     1       8.270  -2.453  -0.624  1.00  0.00     0.166 A 
ATOM     11  C   UNL     1       8.342  -2.635  -1.987  1.00  0.00     0.165 A 
ATOM     12  O   UNL     1       8.576  -3.655  -0.022  1.00  0.00    -0.454 OA
ATOM     13  O   UNL     1       8.696  -3.959  -2.196  1.00  0.00    -0.454 OA
ATOM     14  C   UNL     1       8.943  -4.618  -0.977  1.00  0.00     0.468 C 
ENDBRANCH   5   6
ENDBRANCH   1   5
TORSDOF 3
ENDMDL
MODEL 3
REMARK VINA RESULT:      -7.2      2.052      2.631
REMARK SMILES CC(=O)CCc1ccc2c(c1)OCO2
REMARK SMILES IDX 4 1 2 2 1 3 3 4 5 5 6 6 7 7 11 8 8 9 10 10 9 11 12 12 14 13
REMARK SMILES IDX 13 14
REMARK H PARENT
REMARK Flexibility Score: inf
ROOT
ATOM      1  C   UNL     1       5.393  -0.072   2.023  1.00  0.00     0.080 C 
ENDROOT
BRANCH   1   2
ATOM      2  C   UNL     1       4.558   1.135   1.772  1.00  0.00     0.130 C 
ATOM      3  C   UNL     1       4.911   2.124   0.718  1.00  0.00     0.087 C 
ATOM      4  O   UNL     1       3.553   1.350   2.431  1.00  0.00    -0.300 OA
ENDBRANCH   1   2
BRANCH   1   5
ATOM      5  C   UNL     1       6.838   0.166   1.630  1.00  0.00     0.043 C 
BRANCH   5   6
ATOM      6  C   UNL     1       7.271  -0.748   0.558  1.00  0.00    -0.044 A 
ATOM      7  C   UNL     1       7.152  -0.402  -0.793  1.00  0.00     0.008 A 
ATOM      8  C   UNL     1       7.810  -1.972   0.883  1.00  0.00     0.054 A 
ATOM      9  C   UNL     1       7.576  -1.300  -1.755  1.00  0.00     0.051 A 
ATOM     10  C   UNL     1       8.238  -2.876  -0.094  1.00  0.00     0.166 A 
ATOM     11  C   UNL     1       8.120  -2.538  -1.424  1.00  0.00     0.165 A 
ATOM     12  O   UNL     1       8.798  -4.135  -0.029  1.00  0.00    -0.454 OA
ATOM     13  O   UNL     1       8.616  -3.606  -2.155  1.00  0.00    -0.454 OA
ATOM     14  C   UNL     1       9.139  -4.602  -1.309  1.00  0.00     0.468 C 
ENDBRANCH   5   6
ENDBRANCH   1   5
TORSDOF 3
ENDMDL
MODEL 4
REMARK VINA RESULT:      -7.1      1.264      1.485
REMARK SMILES CC(=O)CCc1ccc2c(c1)OCO2
REMARK SMILES IDX 4 1 2 2 1 3 3 4 5 5 6 6 7 7 11 8 8 9 10 10 9 11 12 12 14 13
REMARK SMILES IDX 13 14
REMARK H PARENT
REMARK Flexibility Score: inf
ROOT
ATOM      1  C   UNL     1       6.422   1.188   0.944  1.00  0.00     0.080 C 
ENDROOT
BRANCH   1   2
ATOM      2  C   UNL     1       5.679   0.358   1.933  1.00  0.00     0.130 C 
ATOM      3  C   UNL     1       6.271  -0.875   2.518  1.00  0.00     0.087 C 
ATOM      4  O   UNL     1       4.556   0.668   2.294  1.00  0.00    -0.300 OA
ENDBRANCH   1   2
BRANCH   1   5
ATOM      5  C   UNL     1       5.920   0.944  -0.466  1.00  0.00     0.043 C 
BRANCH   5   6
ATOM      6  C   UNL     1       6.849   0.102  -1.239  1.00  0.00    -0.044 A 
ATOM      7  C   UNL     1       7.527   0.596  -2.359  1.00  0.00     0.008 A 
ATOM      8  C   UNL     1       7.066  -1.203  -0.858  1.00  0.00     0.054 A 
ATOM      9  C   UNL     1       8.388  -0.241  -3.046  1.00  0.00     0.051 A 
ATOM     10  C   UNL     1       7.938  -2.044  -1.555  1.00  0.00     0.166 A 
ATOM     11  C   UNL     1       8.604  -1.559  -2.658  1.00  0.00     0.165 A 
ATOM     12  O   UNL     1       8.316  -3.358  -1.379  1.00  0.00    -0.454 OA
ATOM     13  O   UNL     1       9.387  -2.596  -3.141  1.00  0.00    -0.454 OA
ATOM     14  C   UNL     1       9.304  -3.727  -2.307  1.00  0.00     0.468 C 
ENDBRANCH   5   6
ENDBRANCH   1   5
TORSDOF 3
ENDMDL
MODEL 5
REMARK VINA RESULT:      -7.0      1.953      2.484
REMARK SMILES CC(=O)CCc1ccc2c(c1)OCO2
REMARK SMILES IDX 4 1 2 2 1 3 3 4 5 5 6 6 7 7 11 8 8 9 10 10 9 11 12 12 14 13
REMARK SMILES IDX 13 14
REMARK H PARENT
REMARK Flexibility Score: inf
ROOT
ATOM      1  C   UNL     1       6.776   0.805   1.388  1.00  0.00     0.080 C 
ENDROOT
BRANCH   1   2
ATOM      2  C   UNL     1       5.321   1.068   1.566  1.00  0.00     0.130 C 
ATOM      3  C   UNL     1       4.626   2.150   0.819  1.00  0.00     0.087 C 
ATOM      4  O   UNL     1       4.653   0.398   2.337  1.00  0.00    -0.300 OA
ENDBRANCH   1   2
BRANCH   1   5
ATOM      5  C   UNL     1       7.204   1.029  -0.049  1.00  0.00     0.043 C 
BRANCH   5   6
ATOM      6  C   UNL     1       7.588  -0.233  -0.708  1.00  0.00    -0.044 A 
ATOM      7  C   UNL     1       7.632  -0.347  -2.102  1.00  0.00     0.008 A 
ATOM      8  C   UNL     1       7.915  -1.330   0.056  1.00  0.00     0.054 A 
ATOM      9  C   UNL     1       8.000  -1.556  -2.665  1.00  0.00     0.051 A 
ATOM     10  C   UNL     1       8.287  -2.549  -0.517  1.00  0.00     0.166 A 
ATOM     11  C   UNL     1       8.330  -2.663  -1.889  1.00  0.00     0.165 A 
ATOM     12  O   UNL     1       8.651  -3.767   0.017  1.00  0.00    -0.454 OA
ATOM     13  O   UNL     1       8.724  -3.962  -2.171  1.00  0.00    -0.454 OA
ATOM     14  C   UNL     1       9.026  -4.669  -0.992  1.00  0.00     0.468 C 
ENDBRANCH   5   6
ENDBRANCH   1   5
TORSDOF 3
ENDMDL
