@<TRIPOS>MOLECULE
/home/cewinharhar/GITHUB/reincatalyze/data/processed/docking_pred/2023-May-25-1902_sub9_nm5_bs15_s42_ex16_mel10_mts10000_k50_ec01_g099_lra3e-4_lrc3e-3/3bf4b9a3f06cfa5433c2fd34b58c3faf64c233d9_ligand_9.pdbqt
 14 15 0 0 0
SMALL
GASTEIGER

@<TRIPOS>ATOM
      1  C          5.8130    1.4340   -0.4100 C.3     1  UNL1        0.0800
      2  C          5.2020    1.3610    0.9460 C.2     1  UNL1        0.1300
      3  C          5.6190    0.3320    1.9360 C.3     1  UNL1        0.0870
      4  O          4.3350    2.1500    1.2860 O.2     1  UNL1       -0.3000
      5  C          7.3070    1.1790   -0.3550 C.3     1  UNL1        0.0430
      6  C          7.6600   -0.1250   -0.9430 C.2     1  UNL1       -0.0440
      7  C          7.7350   -0.3090   -2.3290 C.2     1  UNL1        0.0080
      8  C          7.9280   -1.1950   -0.1190 C.2     1  UNL1        0.0540
      9  C          8.0730   -1.5560   -2.8230 C.2     1  UNL1        0.0510
     10  C          8.2700   -2.4530   -0.6240 C.2     1  UNL1        0.1660
     11  C          8.3420   -2.6350   -1.9870 C.2     1  UNL1        0.1650
     12  O          8.5760   -3.6550   -0.0220 O.2     1  UNL1       -0.4540
     13  O          8.6960   -3.9590   -2.1960 O.2     1  UNL1       -0.4540
     14  C          8.9430   -4.6180   -0.9770 C.3     1  UNL1        0.4680
@<TRIPOS>BOND
     1     9     7    1
     2     9    11    2
     3     7     6    2
     4    13    11    1
     5    13    14    1
     6    11    10    1
     7    14    12    1
     8     6     5    1
     9     6     8    1
    10    10     8    2
    11    10    12    1
    12     1     5    1
    13     1     2    1
    14     2     4    2
    15     2     3    1
