@<TRIPOS>MOLECULE
/home/cewinharhar/GITHUB/reincatalyze/data/processed/docking_pred/2023-May-25-1902_sub9_nm5_bs15_s42_ex16_mel10_mts10000_k50_ec01_g099_lra3e-4_lrc3e-3/3bf4b9a3f06cfa5433c2fd34b58c3faf64c233d9_ligand_9.pdbqt
 14 15 0 0 0
SMALL
GASTEIGER

@<TRIPOS>ATOM
      1  C          6.7760    0.8050    1.3880 C.3     1  UNL1        0.0800
      2  C          5.3210    1.0680    1.5660 C.2     1  UNL1        0.1300
      3  C          4.6260    2.1500    0.8190 C.3     1  UNL1        0.0870
      4  O          4.6530    0.3980    2.3370 O.2     1  UNL1       -0.3000
      5  C          7.2040    1.0290   -0.0490 C.3     1  UNL1        0.0430
      6  C          7.5880   -0.2330   -0.7080 C.2     1  UNL1       -0.0440
      7  C          7.6320   -0.3470   -2.1020 C.2     1  UNL1        0.0080
      8  C          7.9150   -1.3300    0.0560 C.2     1  UNL1        0.0540
      9  C          8.0000   -1.5560   -2.6650 C.2     1  UNL1        0.0510
     10  C          8.2870   -2.5490   -0.5170 C.2     1  UNL1        0.1660
     11  C          8.3300   -2.6630   -1.8890 C.2     1  UNL1        0.1650
     12  O          8.6510   -3.7670    0.0170 O.2     1  UNL1       -0.4540
     13  O          8.7240   -3.9620   -2.1710 O.2     1  UNL1       -0.4540
     14  C          9.0260   -4.6690   -0.9920 C.3     1  UNL1        0.4680
@<TRIPOS>BOND
     1     9     7    1
     2     9    11    2
     3    13    11    1
     4    13    14    1
     5     7     6    2
     6    11    10    1
     7    14    12    1
     8     6     5    1
     9     6     8    1
    10    10    12    1
    11    10     8    2
    12     5     1    1
    13     3     2    1
    14     1     2    1
    15     2     4    2
