@<TRIPOS>MOLECULE
/home/cewinharhar/GITHUB/reincatalyze/data/processed/docking_pred/2023-May-25-1902_sub9_nm5_bs15_s42_ex16_mel10_mts10000_k50_ec01_g099_lra3e-4_lrc3e-3/3bf4b9a3f06cfa5433c2fd34b58c3faf64c233d9_ligand_9.pdbqt
 14 15 0 0 0
SMALL
GASTEIGER

@<TRIPOS>ATOM
      1  C          6.4220    1.1880    0.9440 C.3     1  UNL1        0.0800
      2  C          5.6790    0.3580    1.9330 C.2     1  UNL1        0.1300
      3  C          6.2710   -0.8750    2.5180 C.3     1  UNL1        0.0870
      4  O          4.5560    0.6680    2.2940 O.2     1  UNL1       -0.3000
      5  C          5.9200    0.9440   -0.4660 C.3     1  UNL1        0.0430
      6  C          6.8490    0.1020   -1.2390 C.2     1  UNL1       -0.0440
      7  C          7.5270    0.5960   -2.3590 C.2     1  UNL1        0.0080
      8  C          7.0660   -1.2030   -0.8580 C.2     1  UNL1        0.0540
      9  C          8.3880   -0.2410   -3.0460 C.2     1  UNL1        0.0510
     10  C          7.9380   -2.0440   -1.5550 C.2     1  UNL1        0.1660
     11  C          8.6040   -1.5590   -2.6580 C.2     1  UNL1        0.1650
     12  O          8.3160   -3.3580   -1.3790 O.2     1  UNL1       -0.4540
     13  O          9.3870   -2.5960   -3.1410 O.2     1  UNL1       -0.4540
     14  C          9.3040   -3.7270   -2.3070 C.3     1  UNL1        0.4680
@<TRIPOS>BOND
     1    13    11    1
     2    13    14    1
     3     9    11    2
     4     9     7    1
     5    11    10    1
     6     7     6    2
     7    14    12    1
     8    10    12    1
     9    10     8    2
    10     6     8    1
    11     6     5    1
    12     5     1    1
    13     1     2    1
    14     2     4    2
    15     2     3    1
