@<TRIPOS>MOLECULE
/home/cewinharhar/GITHUB/reincatalyze/data/processed/docking_pred/2023-May-25-1902_sub9_nm5_bs15_s42_ex16_mel10_mts10000_k50_ec01_g099_lra3e-4_lrc3e-3/3c607cf36dcc024da10d53d595c24d9744c2a083_ligand_9.pdbqt
 14 15 0 0 0
SMALL
GASTEIGER

@<TRIPOS>ATOM
      1  C          5.4990   -0.0360    1.9500 C.3     1  UNL1        0.0800
      2  C          4.6630    1.1590    1.6440 C.2     1  UNL1        0.1300
      3  C          5.0230    2.1050    0.5550 C.3     1  UNL1        0.0870
      4  O          3.6530    1.3970    2.2850 O.2     1  UNL1       -0.3000
      5  C          6.9420    0.1820    1.5380 C.3     1  UNL1        0.0430
      6  C          7.3570   -0.7590    0.4830 C.2     1  UNL1       -0.0440
      7  C          7.2450   -0.4350   -0.8740 C.2     1  UNL1        0.0080
      8  C          7.8700   -1.9890    0.8280 C.2     1  UNL1        0.0540
      9  C          7.6510   -1.3580   -1.8200 C.2     1  UNL1        0.0510
     10  C          8.2800   -2.9180   -0.1320 C.2     1  UNL1        0.1660
     11  C          8.1690   -2.6000   -1.4680 C.2     1  UNL1        0.1650
     12  O          8.8140   -4.1870   -0.0450 O.2     1  UNL1       -0.4540
     13  O          8.6430   -3.6910   -2.1800 O.2     1  UNL1       -0.4540
     14  C          9.1460   -4.6820   -1.3160 C.3     1  UNL1        0.4680
@<TRIPOS>BOND
     1    13    11    1
     2    13    14    1
     3     9    11    2
     4     9     7    1
     5    11    10    1
     6    14    12    1
     7     7     6    2
     8    10    12    1
     9    10     8    2
    10     6     8    1
    11     6     5    1
    12     3     2    1
    13     5     1    1
    14     2     1    1
    15     2     4    2
