@<TRIPOS>MOLECULE
/home/cewinharhar/GITHUB/reincatalyze/data/processed/docking_pred/2023-May-25-1902_sub9_nm5_bs15_s42_ex16_mel10_mts10000_k50_ec01_g099_lra3e-4_lrc3e-3/3c607cf36dcc024da10d53d595c24d9744c2a083_ligand_9.pdbqt
 14 15 0 0 0
SMALL
GASTEIGER

@<TRIPOS>ATOM
      1  C          5.7130    1.3140   -0.2740 C.3     1  UNL1        0.0800
      2  C          5.1250    1.2600    1.0930 C.2     1  UNL1        0.1300
      3  C          5.4040    0.1300    2.0190 C.3     1  UNL1        0.0870
      4  O          4.3910    2.1490    1.4950 O.2     1  UNL1       -0.3000
      5  C          7.2120    1.0920   -0.2380 C.3     1  UNL1        0.0430
      6  C          7.5880   -0.1970   -0.8450 C.2     1  UNL1       -0.0440
      7  C          7.6430   -0.3660   -2.2330 C.2     1  UNL1        0.0080
      8  C          7.8980   -1.2670   -0.0360 C.2     1  UNL1        0.0540
      9  C          8.0030   -1.5990   -2.7450 C.2     1  UNL1        0.0510
     10  C          8.2630   -2.5120   -0.5590 C.2     1  UNL1        0.1660
     11  C          8.3150   -2.6790   -1.9250 C.2     1  UNL1        0.1650
     12  O          8.6100   -3.7110    0.0250 O.2     1  UNL1       -0.4540
     13  O          8.6990   -3.9910   -2.1540 O.2     1  UNL1       -0.4540
     14  C          8.9840   -4.6550   -0.9460 C.3     1  UNL1        0.4680
@<TRIPOS>BOND
     1     9     7    1
     2     9    11    2
     3     7     6    2
     4    13    11    1
     5    13    14    1
     6    11    10    1
     7    14    12    1
     8     6     5    1
     9     6     8    1
    10    10     8    2
    11    10    12    1
    12     1     5    1
    13     1     2    1
    14     2     4    2
    15     2     3    1
