@<TRIPOS>MOLECULE
/home/cewinharhar/GITHUB/reincatalyze/data/processed/docking_pred/2023-May-25-1902_sub9_nm5_bs15_s42_ex16_mel10_mts10000_k50_ec01_g099_lra3e-4_lrc3e-3/3c607cf36dcc024da10d53d595c24d9744c2a083_ligand_9.pdbqt
 14 15 0 0 0
SMALL
GASTEIGER

@<TRIPOS>ATOM
      1  C          6.3620    1.2210    0.9420 C.3     1  UNL1        0.0800
      2  C          5.6350    0.3870    1.9390 C.2     1  UNL1        0.1300
      3  C          6.2440   -0.8360    2.5280 C.3     1  UNL1        0.0870
      4  O          4.5090    0.6850    2.3040 O.2     1  UNL1       -0.3000
      5  C          5.8610    0.9600   -0.4640 C.3     1  UNL1        0.0430
      6  C          6.8030    0.1290   -1.2350 C.2     1  UNL1       -0.0440
      7  C          7.4810    0.6330   -2.3510 C.2     1  UNL1        0.0080
      8  C          7.0320   -1.1740   -0.8550 C.2     1  UNL1        0.0540
      9  C          8.3540   -0.1930   -3.0350 C.2     1  UNL1        0.0510
     10  C          7.9160   -2.0050   -1.5500 C.2     1  UNL1        0.1660
     11  C          8.5830   -1.5100   -2.6490 C.2     1  UNL1        0.1650
     12  O          8.3080   -3.3150   -1.3750 O.2     1  UNL1       -0.4540
     13  O          9.3790   -2.5380   -3.1300 O.2     1  UNL1       -0.4540
     14  C          9.3040   -3.6710   -2.2990 C.3     1  UNL1        0.4680
@<TRIPOS>BOND
     1    13    11    1
     2    13    14    1
     3     9    11    2
     4     9     7    1
     5    11    10    1
     6     7     6    2
     7    14    12    1
     8    10    12    1
     9    10     8    2
    10     6     8    1
    11     6     5    1
    12     5     1    1
    13     1     2    1
    14     2     4    2
    15     2     3    1
