@<TRIPOS>MOLECULE
/home/cewinharhar/GITHUB/reincatalyze/data/processed/docking_pred/2023-May-25-1902_sub9_nm5_bs15_s42_ex16_mel10_mts10000_k50_ec01_g099_lra3e-4_lrc3e-3/3c93f0ab1d0179ecce707f4524a6ff468bff7290_ligand_9.pdbqt
 14 15 0 0 0
SMALL
GASTEIGER

@<TRIPOS>ATOM
      1  C          6.3910    1.1850    0.9550 C.3     1  UNL1        0.0800
      2  C          5.6430    0.3670    1.9500 C.2     1  UNL1        0.1300
      3  C          6.2200   -0.8750    2.5310 C.3     1  UNL1        0.0870
      4  O          4.5280    0.6960    2.3200 O.2     1  UNL1       -0.3000
      5  C          5.8870    0.9340   -0.4530 C.3     1  UNL1        0.0430
      6  C          6.8240    0.1040   -1.2290 C.2     1  UNL1       -0.0440
      7  C          7.4970    0.6080   -2.3480 C.2     1  UNL1        0.0080
      8  C          7.0530   -1.2000   -0.8530 C.2     1  UNL1        0.0540
      9  C          8.3660   -0.2180   -3.0370 C.2     1  UNL1        0.0510
     10  C          7.9330   -2.0310   -1.5520 C.2     1  UNL1        0.1660
     11  C          8.5940   -1.5360   -2.6540 C.2     1  UNL1        0.1650
     12  O          8.3240   -3.3420   -1.3810 O.2     1  UNL1       -0.4540
     13  O          9.3870   -2.5640   -3.1410 O.2     1  UNL1       -0.4540
     14  C          9.3150   -3.6980   -2.3110 C.3     1  UNL1        0.4680
@<TRIPOS>BOND
     1    13    11    1
     2    13    14    1
     3     9    11    2
     4     9     7    1
     5    11    10    1
     6     7     6    2
     7    14    12    1
     8    10    12    1
     9    10     8    2
    10     6     8    1
    11     6     5    1
    12     5     1    1
    13     1     2    1
    14     2     4    2
    15     2     3    1
