@<TRIPOS>MOLECULE
/home/cewinharhar/GITHUB/reincatalyze/data/processed/docking_pred/2023-May-25-1902_sub9_nm5_bs15_s42_ex16_mel10_mts10000_k50_ec01_g099_lra3e-4_lrc3e-3/3c93f0ab1d0179ecce707f4524a6ff468bff7290_ligand_9.pdbqt
 14 15 0 0 0
SMALL
GASTEIGER

@<TRIPOS>ATOM
      1  C          5.7360    1.4210   -0.2310 C.3     1  UNL1        0.0800
      2  C          5.0900    1.2680    1.1020 C.2     1  UNL1        0.1300
      3  C          5.4010    0.1190    1.9940 C.3     1  UNL1        0.0870
      4  O          4.2810    2.0880    1.5040 O.2     1  UNL1       -0.3000
      5  C          7.2260    1.1520   -0.1550 C.3     1  UNL1        0.0430
      6  C          7.5890   -0.1110   -0.8210 C.2     1  UNL1       -0.0440
      7  C          7.6020   -0.2260   -2.2160 C.2     1  UNL1        0.0080
      8  C          7.9280   -1.2090   -0.0640 C.2     1  UNL1        0.0540
      9  C          7.9510   -1.4370   -2.7860 C.2     1  UNL1        0.0510
     10  C          8.2810   -2.4310   -0.6450 C.2     1  UNL1        0.1660
     11  C          8.2920   -2.5460   -2.0180 C.2     1  UNL1        0.1650
     12  O          8.6510   -3.6500   -0.1180 O.2     1  UNL1       -0.4540
     13  O          8.6740   -3.8460   -2.3080 O.2     1  UNL1       -0.4540
     14  C          8.9990   -4.5540   -1.1350 C.3     1  UNL1        0.4680
@<TRIPOS>BOND
     1     9     7    1
     2     9    11    2
     3    13    11    1
     4    13    14    1
     5     7     6    2
     6    11    10    1
     7    14    12    1
     8     6     5    1
     9     6     8    1
    10    10    12    1
    11    10     8    2
    12     1     5    1
    13     1     2    1
    14     2     4    2
    15     2     3    1
