@<TRIPOS>MOLECULE
/home/cewinharhar/GITHUB/reincatalyze/data/processed/docking_pred/2023-May-25-1902_sub9_nm5_bs15_s42_ex16_mel10_mts10000_k50_ec01_g099_lra3e-4_lrc3e-3/3c93f0ab1d0179ecce707f4524a6ff468bff7290_ligand_9.pdbqt
 14 15 0 0 0
SMALL
GASTEIGER

@<TRIPOS>ATOM
      1  C          5.5110   -0.0700    1.9600 C.3     1  UNL1        0.0800
      2  C          4.6600    1.1210    1.6830 C.2     1  UNL1        0.1300
      3  C          5.0200    2.1090    0.6310 C.3     1  UNL1        0.0870
      4  O          3.6370    1.3210    2.3160 O.2     1  UNL1       -0.3000
      5  C          6.9440    0.1640    1.5260 C.3     1  UNL1        0.0430
      6  C          7.3520   -0.7680    0.4600 C.2     1  UNL1       -0.0440
      7  C          7.2050   -0.4430   -0.8930 C.2     1  UNL1        0.0080
      8  C          7.8940   -1.9890    0.7920 C.2     1  UNL1        0.0540
      9  C          7.6060   -1.3570   -1.8500 C.2     1  UNL1        0.0510
     10  C          8.2980   -2.9090   -0.1800 C.2     1  UNL1        0.1660
     11  C          8.1530   -2.5910   -1.5120 C.2     1  UNL1        0.1650
     12  O          8.8550   -4.1690   -0.1070 O.2     1  UNL1       -0.4540
     13  O          8.6300   -3.6720   -2.2370 O.2     1  UNL1       -0.4540
     14  C          9.1680   -4.6560   -1.3860 C.3     1  UNL1        0.4680
@<TRIPOS>BOND
     1    13    11    1
     2    13    14    1
     3     9    11    2
     4     9     7    1
     5    11    10    1
     6    14    12    1
     7     7     6    2
     8    10    12    1
     9    10     8    2
    10     6     8    1
    11     6     5    1
    12     3     2    1
    13     5     1    1
    14     2     1    1
    15     2     4    2
