MODEL 1
REMARK VINA RESULT:      -7.5      0.000      0.000
REMARK SMILES CC(=O)CCc1ccc2c(c1)OCO2
REMARK SMILES IDX 4 1 2 2 1 3 3 4 5 5 6 6 7 7 11 8 8 9 10 10 9 11 12 12 14 13
REMARK SMILES IDX 13 14
REMARK H PARENT
REMARK Flexibility Score: inf
ROOT
ATOM      1  C   UNL     1       5.552   1.922   1.276  1.00  0.00     0.080 C 
ENDROOT
BRANCH   1   2
ATOM      2  C   UNL     1       5.120   0.703   2.015  1.00  0.00     0.130 C 
ATOM      3  C   UNL     1       6.025  -0.464   2.194  1.00  0.00     0.087 C 
ATOM      4  O   UNL     1       4.001   0.626   2.498  1.00  0.00    -0.300 OA
ENDBRANCH   1   2
BRANCH   1   5
ATOM      5  C   UNL     1       5.419   1.733  -0.222  1.00  0.00     0.043 C 
BRANCH   5   6
ATOM      6  C   UNL     1       6.582   1.028  -0.789  1.00  0.00    -0.044 A 
ATOM      7  C   UNL     1       7.891   1.455  -0.539  1.00  0.00     0.008 A 
ATOM      8  C   UNL     1       6.388  -0.079  -1.583  1.00  0.00     0.054 A 
ATOM      9  C   UNL     1       8.944   0.753  -1.098  1.00  0.00     0.051 A 
ATOM     10  C   UNL     1       7.456  -0.786  -2.145  1.00  0.00     0.166 A 
ATOM     11  C   UNL     1       8.744  -0.365  -1.901  1.00  0.00     0.165 A 
ATOM     12  O   UNL     1       7.523  -1.899  -2.956  1.00  0.00    -0.454 OA
ATOM     13  O   UNL     1       9.585  -1.239  -2.573  1.00  0.00    -0.454 OA
ATOM     14  C   UNL     1       8.856  -2.279  -3.180  1.00  0.00     0.468 C 
ENDBRANCH   5   6
ENDBRANCH   1   5
TORSDOF 3
ENDMDL
MODEL 2
REMARK VINA RESULT:      -7.2      1.852      2.299
REMARK SMILES CC(=O)CCc1ccc2c(c1)OCO2
REMARK SMILES IDX 4 1 2 2 1 3 3 4 5 5 6 6 7 7 11 8 8 9 10 10 9 11 12 12 14 13
REMARK SMILES IDX 13 14
REMARK H PARENT
REMARK Flexibility Score: inf
ROOT
ATOM      1  C   UNL     1       5.736   1.421  -0.231  1.00  0.00     0.080 C 
ENDROOT
BRANCH   1   2
ATOM      2  C   UNL     1       5.090   1.268   1.102  1.00  0.00     0.130 C 
ATOM      3  C   UNL     1       5.401   0.119   1.994  1.00  0.00     0.087 C 
ATOM      4  O   UNL     1       4.281   2.088   1.504  1.00  0.00    -0.300 OA
ENDBRANCH   1   2
BRANCH   1   5
ATOM      5  C   UNL     1       7.226   1.152  -0.155  1.00  0.00     0.043 C 
BRANCH   5   6
ATOM      6  C   UNL     1       7.589  -0.111  -0.821  1.00  0.00    -0.044 A 
ATOM      7  C   UNL     1       7.602  -0.226  -2.216  1.00  0.00     0.008 A 
ATOM      8  C   UNL     1       7.928  -1.209  -0.064  1.00  0.00     0.054 A 
ATOM      9  C   UNL     1       7.951  -1.437  -2.786  1.00  0.00     0.051 A 
ATOM     10  C   UNL     1       8.281  -2.431  -0.645  1.00  0.00     0.166 A 
ATOM     11  C   UNL     1       8.292  -2.546  -2.018  1.00  0.00     0.165 A 
ATOM     12  O   UNL     1       8.651  -3.650  -0.118  1.00  0.00    -0.454 OA
ATOM     13  O   UNL     1       8.674  -3.846  -2.308  1.00  0.00    -0.454 OA
ATOM     14  C   UNL     1       8.999  -4.554  -1.135  1.00  0.00     0.468 C 
ENDBRANCH   5   6
ENDBRANCH   1   5
TORSDOF 3
ENDMDL
MODEL 3
REMARK VINA RESULT:      -6.9      1.257      1.469
REMARK SMILES CC(=O)CCc1ccc2c(c1)OCO2
REMARK SMILES IDX 4 1 2 2 1 3 3 4 5 5 6 6 7 7 11 8 8 9 10 10 9 11 12 12 14 13
REMARK SMILES IDX 13 14
REMARK H PARENT
REMARK Flexibility Score: inf
ROOT
ATOM      1  C   UNL     1       6.391   1.185   0.955  1.00  0.00     0.080 C 
ENDROOT
BRANCH   1   2
ATOM      2  C   UNL     1       5.643   0.367   1.950  1.00  0.00     0.130 C 
ATOM      3  C   UNL     1       6.220  -0.875   2.531  1.00  0.00     0.087 C 
ATOM      4  O   UNL     1       4.528   0.696   2.320  1.00  0.00    -0.300 OA
ENDBRANCH   1   2
BRANCH   1   5
ATOM      5  C   UNL     1       5.887   0.934  -0.453  1.00  0.00     0.043 C 
BRANCH   5   6
ATOM      6  C   UNL     1       6.824   0.104  -1.229  1.00  0.00    -0.044 A 
ATOM      7  C   UNL     1       7.497   0.608  -2.348  1.00  0.00     0.008 A 
ATOM      8  C   UNL     1       7.053  -1.200  -0.853  1.00  0.00     0.054 A 
ATOM      9  C   UNL     1       8.366  -0.218  -3.037  1.00  0.00     0.051 A 
ATOM     10  C   UNL     1       7.933  -2.031  -1.552  1.00  0.00     0.166 A 
ATOM     11  C   UNL     1       8.594  -1.536  -2.654  1.00  0.00     0.165 A 
ATOM     12  O   UNL     1       8.324  -3.342  -1.381  1.00  0.00    -0.454 OA
ATOM     13  O   UNL     1       9.387  -2.564  -3.141  1.00  0.00    -0.454 OA
ATOM     14  C   UNL     1       9.315  -3.698  -2.311  1.00  0.00     0.468 C 
ENDBRANCH   5   6
ENDBRANCH   1   5
TORSDOF 3
ENDMDL
MODEL 4
REMARK VINA RESULT:      -6.9      2.066      2.631
REMARK SMILES CC(=O)CCc1ccc2c(c1)OCO2
REMARK SMILES IDX 4 1 2 2 1 3 3 4 5 5 6 6 7 7 11 8 8 9 10 10 9 11 12 12 14 13
REMARK SMILES IDX 13 14
REMARK H PARENT
REMARK Flexibility Score: inf
ROOT
ATOM      1  C   UNL     1       5.511  -0.070   1.960  1.00  0.00     0.080 C 
ENDROOT
BRANCH   1   2
ATOM      2  C   UNL     1       4.660   1.121   1.683  1.00  0.00     0.130 C 
ATOM      3  C   UNL     1       5.020   2.109   0.631  1.00  0.00     0.087 C 
ATOM      4  O   UNL     1       3.637   1.321   2.316  1.00  0.00    -0.300 OA
ENDBRANCH   1   2
BRANCH   1   5
ATOM      5  C   UNL     1       6.944   0.164   1.526  1.00  0.00     0.043 C 
BRANCH   5   6
ATOM      6  C   UNL     1       7.352  -0.768   0.460  1.00  0.00    -0.044 A 
ATOM      7  C   UNL     1       7.205  -0.443  -0.893  1.00  0.00     0.008 A 
ATOM      8  C   UNL     1       7.894  -1.989   0.792  1.00  0.00     0.054 A 
ATOM      9  C   UNL     1       7.606  -1.357  -1.850  1.00  0.00     0.051 A 
ATOM     10  C   UNL     1       8.298  -2.909  -0.180  1.00  0.00     0.166 A 
ATOM     11  C   UNL     1       8.153  -2.591  -1.512  1.00  0.00     0.165 A 
ATOM     12  O   UNL     1       8.855  -4.169  -0.107  1.00  0.00    -0.454 OA
ATOM     13  O   UNL     1       8.630  -3.672  -2.237  1.00  0.00    -0.454 OA
ATOM     14  C   UNL     1       9.168  -4.656  -1.386  1.00  0.00     0.468 C 
ENDBRANCH   5   6
ENDBRANCH   1   5
TORSDOF 3
ENDMDL
MODEL 5
REMARK VINA RESULT:      -6.6      1.184      5.171
REMARK SMILES CC(=O)CCc1ccc2c(c1)OCO2
REMARK SMILES IDX 4 1 2 2 1 3 3 4 5 5 6 6 7 7 11 8 8 9 10 10 9 11 12 12 14 13
REMARK SMILES IDX 13 14
REMARK H PARENT
REMARK Flexibility Score: inf
ROOT
ATOM      1  C   UNL     1       8.373   0.186  -2.639  1.00  0.00     0.080 C 
ENDROOT
BRANCH   1   2
ATOM      2  C   UNL     1       8.065  -1.267  -2.751  1.00  0.00     0.130 C 
ATOM      3  C   UNL     1       9.129  -2.273  -3.013  1.00  0.00     0.087 C 
ATOM      4  O   UNL     1       6.921  -1.676  -2.632  1.00  0.00    -0.300 OA
ENDBRANCH   1   2
BRANCH   1   5
ATOM      5  C   UNL     1       8.891   0.534  -1.257  1.00  0.00     0.043 C 
BRANCH   5   6
ATOM      6  C   UNL     1       7.841   0.400  -0.231  1.00  0.00    -0.044 A 
ATOM      7  C   UNL     1       7.922  -0.566   0.778  1.00  0.00     0.008 A 
ATOM      8  C   UNL     1       6.753   1.243  -0.255  1.00  0.00     0.054 A 
ATOM      9  C   UNL     1       6.907  -0.644   1.715  1.00  0.00     0.051 A 
ATOM     10  C   UNL     1       5.730   1.160   0.695  1.00  0.00     0.166 A 
ATOM     11  C   UNL     1       5.808   0.209   1.688  1.00  0.00     0.165 A 
ATOM     12  O   UNL     1       4.564   1.870   0.883  1.00  0.00    -0.454 OA
ATOM     13  O   UNL     1       4.676   0.357   2.474  1.00  0.00    -0.454 OA
ATOM     14  C   UNL     1       3.905   1.457   2.053  1.00  0.00     0.468 C 
ENDBRANCH   5   6
ENDBRANCH   1   5
TORSDOF 3
ENDMDL
