@<TRIPOS>MOLECULE
/home/cewinharhar/GITHUB/reincatalyze/data/processed/docking_pred/2023-May-25-1902_sub9_nm5_bs15_s42_ex16_mel10_mts10000_k50_ec01_g099_lra3e-4_lrc3e-3/3c93f0ab1d0179ecce707f4524a6ff468bff7290_ligand_9.pdbqt
 14 15 0 0 0
SMALL
GASTEIGER

@<TRIPOS>ATOM
      1  C          8.3730    0.1860   -2.6390 C.3     1  UNL1        0.0800
      2  C          8.0650   -1.2670   -2.7510 C.2     1  UNL1        0.1300
      3  C          9.1290   -2.2730   -3.0130 C.3     1  UNL1        0.0870
      4  O          6.9210   -1.6760   -2.6320 O.2     1  UNL1       -0.3000
      5  C          8.8910    0.5340   -1.2570 C.3     1  UNL1        0.0430
      6  C          7.8410    0.4000   -0.2310 C.2     1  UNL1       -0.0440
      7  C          7.9220   -0.5660    0.7780 C.2     1  UNL1        0.0080
      8  C          6.7530    1.2430   -0.2550 C.2     1  UNL1        0.0540
      9  C          6.9070   -0.6440    1.7150 C.2     1  UNL1        0.0510
     10  C          5.7300    1.1600    0.6950 C.2     1  UNL1        0.1660
     11  C          5.8080    0.2090    1.6880 C.2     1  UNL1        0.1650
     12  O          4.5640    1.8700    0.8830 O.2     1  UNL1       -0.4540
     13  O          4.6760    0.3570    2.4740 O.2     1  UNL1       -0.4540
     14  C          3.9050    1.4570    2.0530 C.3     1  UNL1        0.4680
@<TRIPOS>BOND
     1     3     2    1
     2     2     1    1
     3     2     4    2
     4     1     5    1
     5     5     6    1
     6     8     6    2
     7     8    10    1
     8     6     7    1
     9    10    12    1
    10    10    11    2
    11     7     9    2
    12    12    14    1
    13    11     9    1
    14    11    13    1
    15    14    13    1
