@<TRIPOS>MOLECULE
/home/cewinharhar/GITHUB/reincatalyze/data/processed/docking_pred/2023-May-25-1902_sub9_nm5_bs15_s42_ex16_mel10_mts10000_k50_ec01_g099_lra3e-4_lrc3e-3/3dd20a82ca316ee4e9168eadca9f8684e5881f32_ligand_9.pdbqt
 14 15 0 0 0
SMALL
GASTEIGER

@<TRIPOS>ATOM
      1  C          5.4850    1.9050    1.2700 C.3     1  UNL1        0.0800
      2  C          4.9990    0.6990    1.9980 C.2     1  UNL1        0.1300
      3  C          5.8100   -0.5460    2.0750 C.3     1  UNL1        0.0870
      4  O          3.9130    0.6980    2.5550 O.2     1  UNL1       -0.3000
      5  C          5.3700    1.7250   -0.2300 C.3     1  UNL1        0.0430
      6  C          6.5440    1.0320   -0.7890 C.2     1  UNL1       -0.0440
      7  C          7.8480    1.4680   -0.5240 C.2     1  UNL1        0.0080
      8  C          6.3670   -0.0730   -1.5900 C.2     1  UNL1        0.0540
      9  C          8.9120    0.7770   -1.0750 C.2     1  UNL1        0.0510
     10  C          7.4460   -0.7690   -2.1440 C.2     1  UNL1        0.1660
     11  C          8.7290   -0.3390   -1.8850 C.2     1  UNL1        0.1650
     12  O          7.5300   -1.8770   -2.9590 O.2     1  UNL1       -0.4540
     13  O          9.5830   -1.2030   -2.5530 O.2     1  UNL1       -0.4540
     14  C          8.8690   -2.2460   -3.1720 C.3     1  UNL1        0.4680
@<TRIPOS>BOND
     1    14    12    1
     2    14    13    1
     3    12    10    1
     4    13    11    1
     5    10    11    2
     6    10     8    1
     7    11     9    1
     8     8     6    2
     9     9     7    2
    10     6     7    1
    11     6     5    1
    12     5     1    1
    13     1     2    1
    14     2     3    1
    15     2     4    2
