MODEL 1
REMARK VINA RESULT:      -7.7      0.000      0.000
REMARK SMILES CC(=O)CCc1ccc2c(c1)OCO2
REMARK SMILES IDX 4 1 2 2 1 3 3 4 5 5 6 6 7 7 11 8 8 9 10 10 9 11 12 12 14 13
REMARK SMILES IDX 13 14
REMARK H PARENT
REMARK Flexibility Score: inf
ROOT
ATOM      1  C   UNL     1       5.485   1.905   1.270  1.00  0.00     0.080 C 
ENDROOT
BRANCH   1   2
ATOM      2  C   UNL     1       4.999   0.699   1.998  1.00  0.00     0.130 C 
ATOM      3  C   UNL     1       5.810  -0.546   2.075  1.00  0.00     0.087 C 
ATOM      4  O   UNL     1       3.913   0.698   2.555  1.00  0.00    -0.300 OA
ENDBRANCH   1   2
BRANCH   1   5
ATOM      5  C   UNL     1       5.370   1.725  -0.230  1.00  0.00     0.043 C 
BRANCH   5   6
ATOM      6  C   UNL     1       6.544   1.032  -0.789  1.00  0.00    -0.044 A 
ATOM      7  C   UNL     1       7.848   1.468  -0.524  1.00  0.00     0.008 A 
ATOM      8  C   UNL     1       6.367  -0.073  -1.590  1.00  0.00     0.054 A 
ATOM      9  C   UNL     1       8.912   0.777  -1.075  1.00  0.00     0.051 A 
ATOM     10  C   UNL     1       7.446  -0.769  -2.144  1.00  0.00     0.166 A 
ATOM     11  C   UNL     1       8.729  -0.339  -1.885  1.00  0.00     0.165 A 
ATOM     12  O   UNL     1       7.530  -1.877  -2.959  1.00  0.00    -0.454 OA
ATOM     13  O   UNL     1       9.583  -1.203  -2.553  1.00  0.00    -0.454 OA
ATOM     14  C   UNL     1       8.869  -2.246  -3.172  1.00  0.00     0.468 C 
ENDBRANCH   5   6
ENDBRANCH   1   5
TORSDOF 3
ENDMDL
MODEL 2
REMARK VINA RESULT:      -7.5      1.935      2.391
REMARK SMILES CC(=O)CCc1ccc2c(c1)OCO2
REMARK SMILES IDX 4 1 2 2 1 3 3 4 5 5 6 6 7 7 11 8 8 9 10 10 9 11 12 12 14 13
REMARK SMILES IDX 13 14
REMARK H PARENT
REMARK Flexibility Score: inf
ROOT
ATOM      1  C   UNL     1       5.747   1.379  -0.311  1.00  0.00     0.080 C 
ENDROOT
BRANCH   1   2
ATOM      2  C   UNL     1       5.101   1.289   1.029  1.00  0.00     0.130 C 
ATOM      3  C   UNL     1       5.383   0.162   1.957  1.00  0.00     0.087 C 
ATOM      4  O   UNL     1       4.316   2.145   1.404  1.00  0.00    -0.300 OA
ENDBRANCH   1   2
BRANCH   1   5
ATOM      5  C   UNL     1       7.239   1.124  -0.220  1.00  0.00     0.043 C 
BRANCH   5   6
ATOM      6  C   UNL     1       7.611  -0.163  -0.833  1.00  0.00    -0.044 A 
ATOM      7  C   UNL     1       7.689  -0.319  -2.222  1.00  0.00     0.008 A 
ATOM      8  C   UNL     1       7.894  -1.245  -0.030  1.00  0.00     0.054 A 
ATOM      9  C   UNL     1       8.044  -1.551  -2.740  1.00  0.00     0.051 A 
ATOM     10  C   UNL     1       8.253  -2.488  -0.559  1.00  0.00     0.166 A 
ATOM     11  C   UNL     1       8.329  -2.643  -1.925  1.00  0.00     0.165 A 
ATOM     12  O   UNL     1       8.576  -3.697   0.020  1.00  0.00    -0.454 OA
ATOM     13  O   UNL     1       8.701  -3.957  -2.160  1.00  0.00    -0.454 OA
ATOM     14  C   UNL     1       8.956  -4.636  -0.954  1.00  0.00     0.468 C 
ENDBRANCH   5   6
ENDBRANCH   1   5
TORSDOF 3
ENDMDL
MODEL 3
REMARK VINA RESULT:      -7.3      2.066      2.636
REMARK SMILES CC(=O)CCc1ccc2c(c1)OCO2
REMARK SMILES IDX 4 1 2 2 1 3 3 4 5 5 6 6 7 7 11 8 8 9 10 10 9 11 12 12 14 13
REMARK SMILES IDX 13 14
REMARK H PARENT
REMARK Flexibility Score: inf
ROOT
ATOM      1  C   UNL     1       5.393  -0.075   2.031  1.00  0.00     0.080 C 
ENDROOT
BRANCH   1   2
ATOM      2  C   UNL     1       4.553   1.127   1.773  1.00  0.00     0.130 C 
ATOM      3  C   UNL     1       4.905   2.113   0.717  1.00  0.00     0.087 C 
ATOM      4  O   UNL     1       3.544   1.339   2.426  1.00  0.00    -0.300 OA
ENDBRANCH   1   2
BRANCH   1   5
ATOM      5  C   UNL     1       6.836   0.166   1.635  1.00  0.00     0.043 C 
BRANCH   5   6
ATOM      6  C   UNL     1       7.268  -0.749   0.563  1.00  0.00    -0.044 A 
ATOM      7  C   UNL     1       7.146  -0.404  -0.788  1.00  0.00     0.008 A 
ATOM      8  C   UNL     1       7.809  -1.973   0.887  1.00  0.00     0.054 A 
ATOM      9  C   UNL     1       7.569  -1.303  -1.751  1.00  0.00     0.051 A 
ATOM     10  C   UNL     1       8.236  -2.877  -0.090  1.00  0.00     0.166 A 
ATOM     11  C   UNL     1       8.114  -2.539  -1.420  1.00  0.00     0.165 A 
ATOM     12  O   UNL     1       8.796  -4.135  -0.026  1.00  0.00    -0.454 OA
ATOM     13  O   UNL     1       8.609  -3.607  -2.151  1.00  0.00    -0.454 OA
ATOM     14  C   UNL     1       9.136  -4.602  -1.306  1.00  0.00     0.468 C 
ENDBRANCH   5   6
ENDBRANCH   1   5
TORSDOF 3
ENDMDL
MODEL 4
REMARK VINA RESULT:      -7.1      1.275      1.491
REMARK SMILES CC(=O)CCc1ccc2c(c1)OCO2
REMARK SMILES IDX 4 1 2 2 1 3 3 4 5 5 6 6 7 7 11 8 8 9 10 10 9 11 12 12 14 13
REMARK SMILES IDX 13 14
REMARK H PARENT
REMARK Flexibility Score: inf
ROOT
ATOM      1  C   UNL     1       6.386   1.220   0.933  1.00  0.00     0.080 C 
ENDROOT
BRANCH   1   2
ATOM      2  C   UNL     1       5.656   0.391   1.932  1.00  0.00     0.130 C 
ATOM      3  C   UNL     1       6.260  -0.833   2.522  1.00  0.00     0.087 C 
ATOM      4  O   UNL     1       4.532   0.696   2.298  1.00  0.00    -0.300 OA
ENDBRANCH   1   2
BRANCH   1   5
ATOM      5  C   UNL     1       5.886   0.954  -0.473  1.00  0.00     0.043 C 
BRANCH   5   6
ATOM      6  C   UNL     1       6.827   0.117  -1.239  1.00  0.00    -0.044 A 
ATOM      7  C   UNL     1       7.513   0.617  -2.352  1.00  0.00     0.008 A 
ATOM      8  C   UNL     1       7.047  -1.187  -0.858  1.00  0.00     0.054 A 
ATOM      9  C   UNL     1       8.385  -0.214  -3.032  1.00  0.00     0.051 A 
ATOM     10  C   UNL     1       7.930  -2.023  -1.548  1.00  0.00     0.166 A 
ATOM     11  C   UNL     1       8.604  -1.532  -2.644  1.00  0.00     0.165 A 
ATOM     12  O   UNL     1       8.314  -3.335  -1.371  1.00  0.00    -0.454 OA
ATOM     13  O   UNL     1       9.397  -2.564  -3.121  1.00  0.00    -0.454 OA
ATOM     14  C   UNL     1       9.312  -3.697  -2.290  1.00  0.00     0.468 C 
ENDBRANCH   5   6
ENDBRANCH   1   5
TORSDOF 3
ENDMDL
MODEL 5
REMARK VINA RESULT:      -6.8      1.195      5.197
REMARK SMILES CC(=O)CCc1ccc2c(c1)OCO2
REMARK SMILES IDX 4 1 2 2 1 3 3 4 5 5 6 6 7 7 11 8 8 9 10 10 9 11 12 12 14 13
REMARK SMILES IDX 13 14
REMARK H PARENT
REMARK Flexibility Score: inf
ROOT
ATOM      1  C   UNL     1       8.330   0.199  -2.620  1.00  0.00     0.080 C 
ENDROOT
BRANCH   1   2
ATOM      2  C   UNL     1       8.055  -1.259  -2.751  1.00  0.00     0.130 C 
ATOM      3  C   UNL     1       9.140  -2.235  -3.040  1.00  0.00     0.087 C 
ATOM      4  O   UNL     1       6.924  -1.697  -2.624  1.00  0.00    -0.300 OA
ENDBRANCH   1   2
BRANCH   1   5
ATOM      5  C   UNL     1       8.846   0.540  -1.236  1.00  0.00     0.043 C 
BRANCH   5   6
ATOM      6  C   UNL     1       7.794   0.406  -0.212  1.00  0.00    -0.044 A 
ATOM      7  C   UNL     1       7.866  -0.569   0.789  1.00  0.00     0.008 A 
ATOM      8  C   UNL     1       6.711   1.255  -0.231  1.00  0.00     0.054 A 
ATOM      9  C   UNL     1       6.849  -0.648   1.723  1.00  0.00     0.051 A 
ATOM     10  C   UNL     1       5.686   1.172   0.716  1.00  0.00     0.166 A 
ATOM     11  C   UNL     1       5.756   0.212   1.701  1.00  0.00     0.165 A 
ATOM     12  O   UNL     1       4.524   1.888   0.908  1.00  0.00    -0.454 OA
ATOM     13  O   UNL     1       4.623   0.361   2.486  1.00  0.00    -0.454 OA
ATOM     14  C   UNL     1       3.861   1.470   2.073  1.00  0.00     0.468 C 
ENDBRANCH   5   6
ENDBRANCH   1   5
TORSDOF 3
ENDMDL
