@<TRIPOS>MOLECULE
/home/cewinharhar/GITHUB/reincatalyze/data/processed/docking_pred/2023-May-25-1902_sub9_nm5_bs15_s42_ex16_mel10_mts10000_k50_ec01_g099_lra3e-4_lrc3e-3/3dd20a82ca316ee4e9168eadca9f8684e5881f32_ligand_9.pdbqt
 14 15 0 0 0
SMALL
GASTEIGER

@<TRIPOS>ATOM
      1  C          8.3300    0.1990   -2.6200 C.3     1  UNL1        0.0800
      2  C          8.0550   -1.2590   -2.7510 C.2     1  UNL1        0.1300
      3  C          9.1400   -2.2350   -3.0400 C.3     1  UNL1        0.0870
      4  O          6.9240   -1.6970   -2.6240 O.2     1  UNL1       -0.3000
      5  C          8.8460    0.5400   -1.2360 C.3     1  UNL1        0.0430
      6  C          7.7940    0.4060   -0.2120 C.2     1  UNL1       -0.0440
      7  C          7.8660   -0.5690    0.7890 C.2     1  UNL1        0.0080
      8  C          6.7110    1.2550   -0.2310 C.2     1  UNL1        0.0540
      9  C          6.8490   -0.6480    1.7230 C.2     1  UNL1        0.0510
     10  C          5.6860    1.1720    0.7160 C.2     1  UNL1        0.1660
     11  C          5.7560    0.2120    1.7010 C.2     1  UNL1        0.1650
     12  O          4.5240    1.8880    0.9080 O.2     1  UNL1       -0.4540
     13  O          4.6230    0.3610    2.4860 O.2     1  UNL1       -0.4540
     14  C          3.8610    1.4700    2.0730 C.3     1  UNL1        0.4680
@<TRIPOS>BOND
     1     3     2    1
     2     2     4    2
     3     2     1    1
     4     1     5    1
     5     5     6    1
     6     8     6    2
     7     8    10    1
     8     6     7    1
     9    10    12    1
    10    10    11    2
    11     7     9    2
    12    12    14    1
    13    11     9    1
    14    11    13    1
    15    14    13    1
