@<TRIPOS>MOLECULE
/home/cewinharhar/GITHUB/reincatalyze/data/processed/docking_pred/2023-May-25-1902_sub9_nm5_bs15_s42_ex16_mel10_mts10000_k50_ec01_g099_lra3e-4_lrc3e-3/3dd20a82ca316ee4e9168eadca9f8684e5881f32_ligand_9.pdbqt
 14 15 0 0 0
SMALL
GASTEIGER

@<TRIPOS>ATOM
      1  C          5.7470    1.3790   -0.3110 C.3     1  UNL1        0.0800
      2  C          5.1010    1.2890    1.0290 C.2     1  UNL1        0.1300
      3  C          5.3830    0.1620    1.9570 C.3     1  UNL1        0.0870
      4  O          4.3160    2.1450    1.4040 O.2     1  UNL1       -0.3000
      5  C          7.2390    1.1240   -0.2200 C.3     1  UNL1        0.0430
      6  C          7.6110   -0.1630   -0.8330 C.2     1  UNL1       -0.0440
      7  C          7.6890   -0.3190   -2.2220 C.2     1  UNL1        0.0080
      8  C          7.8940   -1.2450   -0.0300 C.2     1  UNL1        0.0540
      9  C          8.0440   -1.5510   -2.7400 C.2     1  UNL1        0.0510
     10  C          8.2530   -2.4880   -0.5590 C.2     1  UNL1        0.1660
     11  C          8.3290   -2.6430   -1.9250 C.2     1  UNL1        0.1650
     12  O          8.5760   -3.6970    0.0200 O.2     1  UNL1       -0.4540
     13  O          8.7010   -3.9570   -2.1600 O.2     1  UNL1       -0.4540
     14  C          8.9560   -4.6360   -0.9540 C.3     1  UNL1        0.4680
@<TRIPOS>BOND
     1     9     7    1
     2     9    11    2
     3     7     6    2
     4    13    11    1
     5    13    14    1
     6    11    10    1
     7    14    12    1
     8     6     5    1
     9     6     8    1
    10    10     8    2
    11    10    12    1
    12     1     5    1
    13     1     2    1
    14     2     4    2
    15     2     3    1
