@<TRIPOS>MOLECULE
/home/cewinharhar/GITHUB/reincatalyze/data/processed/docking_pred/2023-May-25-1902_sub9_nm5_bs15_s42_ex16_mel10_mts10000_k50_ec01_g099_lra3e-4_lrc3e-3/3dd20a82ca316ee4e9168eadca9f8684e5881f32_ligand_9.pdbqt
 14 15 0 0 0
SMALL
GASTEIGER

@<TRIPOS>ATOM
      1  C          6.3860    1.2200    0.9330 C.3     1  UNL1        0.0800
      2  C          5.6560    0.3910    1.9320 C.2     1  UNL1        0.1300
      3  C          6.2600   -0.8330    2.5220 C.3     1  UNL1        0.0870
      4  O          4.5320    0.6960    2.2980 O.2     1  UNL1       -0.3000
      5  C          5.8860    0.9540   -0.4730 C.3     1  UNL1        0.0430
      6  C          6.8270    0.1170   -1.2390 C.2     1  UNL1       -0.0440
      7  C          7.5130    0.6170   -2.3520 C.2     1  UNL1        0.0080
      8  C          7.0470   -1.1870   -0.8580 C.2     1  UNL1        0.0540
      9  C          8.3850   -0.2140   -3.0320 C.2     1  UNL1        0.0510
     10  C          7.9300   -2.0230   -1.5480 C.2     1  UNL1        0.1660
     11  C          8.6040   -1.5320   -2.6440 C.2     1  UNL1        0.1650
     12  O          8.3140   -3.3350   -1.3710 O.2     1  UNL1       -0.4540
     13  O          9.3970   -2.5640   -3.1210 O.2     1  UNL1       -0.4540
     14  C          9.3120   -3.6970   -2.2900 C.3     1  UNL1        0.4680
@<TRIPOS>BOND
     1    13    11    1
     2    13    14    1
     3     9    11    2
     4     9     7    1
     5    11    10    1
     6     7     6    2
     7    14    12    1
     8    10    12    1
     9    10     8    2
    10     6     8    1
    11     6     5    1
    12     5     1    1
    13     1     2    1
    14     2     4    2
    15     2     3    1
