@<TRIPOS>MOLECULE
/home/cewinharhar/GITHUB/reincatalyze/data/processed/docking_pred/2023-May-25-1902_sub9_nm5_bs15_s42_ex16_mel10_mts10000_k50_ec01_g099_lra3e-4_lrc3e-3/3e742204aaadd08b2af2eabe2bac092cf241077d_ligand_9.pdbqt
 14 15 0 0 0
SMALL
GASTEIGER

@<TRIPOS>ATOM
      1  C          6.8990    0.8900    1.2400 C.3     1  UNL1        0.0800
      2  C          5.4410    1.1340    1.4300 C.2     1  UNL1        0.1300
      3  C          4.7080    2.1500    0.6290 C.3     1  UNL1        0.0870
      4  O          4.8030    0.5010    2.2570 O.2     1  UNL1       -0.3000
      5  C          7.2980    1.0530   -0.2130 C.3     1  UNL1        0.0430
      6  C          7.6370   -0.2400   -0.8350 C.2     1  UNL1       -0.0440
      7  C          7.6700   -0.3980   -2.2250 C.2     1  UNL1        0.0080
      8  C          7.9330   -1.3230   -0.0390 C.2     1  UNL1        0.0540
      9  C          7.9960   -1.6350   -2.7520 C.2     1  UNL1        0.0510
     10  C          8.2620   -2.5710   -0.5760 C.2     1  UNL1        0.1660
     11  C          8.2940   -2.7280   -1.9440 C.2     1  UNL1        0.1650
     12  O          8.5890   -3.7830   -0.0060 O.2     1  UNL1       -0.4540
     13  O          8.6440   -4.0470   -2.1870 O.2     1  UNL1       -0.4540
     14  C          8.9290   -4.7270   -0.9880 C.3     1  UNL1        0.4680
@<TRIPOS>BOND
     1     9     7    1
     2     9    11    2
     3     7     6    2
     4    13    11    1
     5    13    14    1
     6    11    10    1
     7    14    12    1
     8     6     5    1
     9     6     8    1
    10    10     8    2
    11    10    12    1
    12     5     1    1
    13     3     2    1
    14     1     2    1
    15     2     4    2
