@<TRIPOS>MOLECULE
/home/cewinharhar/GITHUB/reincatalyze/data/processed/docking_pred/2023-May-25-1902_sub9_nm5_bs15_s42_ex16_mel10_mts10000_k50_ec01_g099_lra3e-4_lrc3e-3/3ef00b253c4480de2280c2f95d83164b82996574_ligand_9.pdbqt
 14 15 0 0 0
SMALL
GASTEIGER

@<TRIPOS>ATOM
      1  C          8.1370   -2.6010   -3.5730 C.3     1  UNL1        0.0800
      2  C          9.2330   -3.5980   -3.4230 C.2     1  UNL1        0.1300
      3  C          8.9610   -5.0600   -3.3980 C.3     1  UNL1        0.0870
      4  O         10.3950   -3.2410   -3.3150 O.2     1  UNL1       -0.3000
      5  C          8.5470   -1.2460   -3.0290 C.3     1  UNL1        0.0430
      6  C          7.7690   -0.8810   -1.8320 C.2     1  UNL1       -0.0440
      7  C          7.7860   -1.6710   -0.6770 C.2     1  UNL1        0.0080
      8  C          7.0080    0.2660   -1.8370 C.2     1  UNL1        0.0540
      9  C          7.0370   -1.2780    0.4170 C.2     1  UNL1        0.0510
     10  C          6.2530    0.6600   -0.7280 C.2     1  UNL1        0.1660
     11  C          6.2670   -0.1180    0.4080 C.2     1  UNL1        0.1650
     12  O          5.4270    1.7380   -0.4890 O.2     1  UNL1       -0.4540
     13  O          5.4420    0.5050    1.3310 O.2     1  UNL1       -0.4540
     14  C          4.9610    1.7320    0.8360 C.3     1  UNL1        0.4680
@<TRIPOS>BOND
     1     1     2    1
     2     1     5    1
     3     2     3    1
     4     2     4    2
     5     5     6    1
     6     8     6    2
     7     8    10    1
     8     6     7    1
     9    10    12    1
    10    10    11    2
    11     7     9    2
    12    12    14    1
    13    11     9    1
    14    11    13    1
    15    14    13    1
