@<TRIPOS>MOLECULE
/home/cewinharhar/GITHUB/reincatalyze/data/processed/docking_pred/2023-May-25-1902_sub9_nm5_bs15_s42_ex16_mel10_mts10000_k50_ec01_g099_lra3e-4_lrc3e-3/3ef00b253c4480de2280c2f95d83164b82996574_ligand_9.pdbqt
 14 15 0 0 0
SMALL
GASTEIGER

@<TRIPOS>ATOM
      1  C          5.7520    0.8570    0.4330 C.3     1  UNL1        0.0800
      2  C          5.4160    0.3300    1.7850 C.2     1  UNL1        0.1300
      3  C          6.2620   -0.6930    2.4560 C.3     1  UNL1        0.0870
      4  O          4.4300    0.7260    2.3850 O.2     1  UNL1       -0.3000
      5  C          7.2510    0.8810    0.2070 C.3     1  UNL1        0.0430
      6  C          7.6490    0.0120   -0.9150 C.2     1  UNL1       -0.0440
      7  C          7.8490    0.5230   -2.2020 C.2     1  UNL1        0.0080
      8  C          7.8330   -1.3350   -0.7020 C.2     1  UNL1        0.0540
      9  C          8.2220   -0.3400   -3.2160 C.2     1  UNL1        0.0510
     10  C          8.2120   -2.2040   -1.7300 C.2     1  UNL1        0.1660
     11  C          8.4070   -1.7020   -2.9980 C.2     1  UNL1        0.1650
     12  O          8.4540   -3.5600   -1.7730 O.2     1  UNL1       -0.4540
     13  O          8.7710   -2.7720   -3.8010 O.2     1  UNL1       -0.4540
     14  C          8.9000   -3.9530   -3.0460 C.3     1  UNL1        0.4680
@<TRIPOS>BOND
     1    13    14    1
     2    13    11    1
     3     9    11    2
     4     9     7    1
     5    14    12    1
     6    11    10    1
     7     7     6    2
     8    12    10    1
     9    10     8    2
    10     6     8    1
    11     6     5    1
    12     5     1    1
    13     1     2    1
    14     2     4    2
    15     2     3    1
