@<TRIPOS>MOLECULE
/home/cewinharhar/GITHUB/reincatalyze/data/processed/docking_pred/2023-May-25-1902_sub9_nm5_bs15_s42_ex16_mel10_mts10000_k50_ec01_g099_lra3e-4_lrc3e-3/3ef00b253c4480de2280c2f95d83164b82996574_ligand_9.pdbqt
 14 15 0 0 0
SMALL
GASTEIGER

@<TRIPOS>ATOM
      1  C          6.0060    1.6330    1.1530 C.3     1  UNL1        0.0800
      2  C          5.4260    0.5380    1.9790 C.2     1  UNL1        0.1300
      3  C          6.2060   -0.6830    2.3170 C.3     1  UNL1        0.0870
      4  O          4.2850    0.6120    2.4060 O.2     1  UNL1       -0.3000
      5  C          5.7270    1.4170   -0.3210 C.3     1  UNL1        0.0430
      6  C          6.7980    0.6420   -0.9730 C.2     1  UNL1       -0.0440
      7  C          8.1420    1.0160   -0.8650 C.2     1  UNL1        0.0080
      8  C          6.4800   -0.4800   -1.7050 C.2     1  UNL1        0.0540
      9  C          9.1040    0.2490   -1.4970 C.2     1  UNL1        0.0510
     10  C          7.4560   -1.2520   -2.3410 C.2     1  UNL1        0.1660
     11  C          8.7790   -0.8840   -2.2370 C.2     1  UNL1        0.1650
     12  O          7.3960   -2.3910   -3.1150 O.2     1  UNL1       -0.4540
     13  O          9.5120   -1.8160   -2.9560 O.2     1  UNL1       -0.4540
     14  C          8.6840   -2.8400   -3.4530 C.3     1  UNL1        0.4680
@<TRIPOS>BOND
     1    14    12    1
     2    14    13    1
     3    12    10    1
     4    13    11    1
     5    10    11    2
     6    10     8    1
     7    11     9    1
     8     8     6    2
     9     9     7    2
    10     6     7    1
    11     6     5    1
    12     5     1    1
    13     1     2    1
    14     2     3    1
    15     2     4    2
