@<TRIPOS>MOLECULE
/home/cewinharhar/GITHUB/reincatalyze/data/processed/docking_pred/2023-May-25-1902_sub9_nm5_bs15_s42_ex16_mel10_mts10000_k50_ec01_g099_lra3e-4_lrc3e-3/40246e00fe273733fff606c0d5025fbb5a6aafa7_ligand_9.pdbqt
 14 15 0 0 0
SMALL
GASTEIGER

@<TRIPOS>ATOM
      1  C          5.8010    1.0620   -0.3660 C.3     1  UNL1        0.0800
      2  C          5.7520    1.2510    1.1110 C.2     1  UNL1        0.1300
      3  C          4.9420    0.3620    1.9860 C.3     1  UNL1        0.0870
      4  O          6.3800    2.1490    1.6490 O.2     1  UNL1       -0.3000
      5  C          7.2200    0.8300   -0.8440 C.3     1  UNL1        0.0430
      6  C          7.6830   -0.5360   -0.5410 C.2     1  UNL1       -0.0440
      7  C          7.9040   -0.9600    0.7740 C.2     1  UNL1        0.0080
      8  C          7.9040   -1.4250   -1.5690 C.2     1  UNL1        0.0540
      9  C          8.3370   -2.2540    0.9980 C.2     1  UNL1        0.0510
     10  C          8.3420   -2.7320   -1.3370 C.2     1  UNL1        0.1660
     11  C          8.5600   -3.1500   -0.0430 C.2     1  UNL1        0.1650
     12  O          8.6310   -3.7880   -2.1750 O.2     1  UNL1       -0.4540
     13  O          8.9820   -4.4690   -0.1140 O.2     1  UNL1       -0.4540
     14  C          8.9530   -4.9410   -1.4400 C.3     1  UNL1        0.4680
@<TRIPOS>BOND
     1    12    14    1
     2    12    10    1
     3     8    10    1
     4     8     6    2
     5    14    13    1
     6    10    11    2
     7     5     6    1
     8     5     1    1
     9     6     7    1
    10     1     2    1
    11    13    11    1
    12    11     9    1
    13     7     9    2
    14     2     4    2
    15     2     3    1
