@<TRIPOS>MOLECULE
/home/cewinharhar/GITHUB/reincatalyze/data/processed/docking_pred/2023-May-25-1902_sub9_nm5_bs15_s42_ex16_mel10_mts10000_k50_ec01_g099_lra3e-4_lrc3e-3/40246e00fe273733fff606c0d5025fbb5a6aafa7_ligand_9.pdbqt
 14 15 0 0 0
SMALL
GASTEIGER

@<TRIPOS>ATOM
      1  C          5.8670    1.6300    1.2730 C.3     1  UNL1        0.0800
      2  C          5.3620    0.4600    2.0440 C.2     1  UNL1        0.1300
      3  C          6.2060   -0.7410    2.2840 C.3     1  UNL1        0.0870
      4  O          4.2320    0.4540    2.5050 O.2     1  UNL1       -0.3000
      5  C          5.6520    1.4420   -0.2160 C.3     1  UNL1        0.0430
      6  C          6.7840    0.7390   -0.8470 C.2     1  UNL1       -0.0440
      7  C          8.0810    1.2650   -0.8180 C.2     1  UNL1        0.0080
      8  C          6.5720   -0.4640   -1.4800 C.2     1  UNL1        0.0540
      9  C          9.1040    0.5600   -1.4270 C.2     1  UNL1        0.0510
     10  C          7.6090   -1.1730   -2.0930 C.2     1  UNL1        0.1660
     11  C          8.8860   -0.6560   -2.0670 C.2     1  UNL1        0.1650
     12  O          7.6550   -2.3690   -2.7770 O.2     1  UNL1       -0.4540
     13  O          9.6970   -1.5560   -2.7410 O.2     1  UNL1       -0.4540
     14  C          8.9740   -2.7000   -3.1280 C.3     1  UNL1        0.4680
@<TRIPOS>BOND
     1    14    12    1
     2    14    13    1
     3    12    10    1
     4    13    11    1
     5    10    11    2
     6    10     8    1
     7    11     9    1
     8     8     6    2
     9     9     7    2
    10     6     7    1
    11     6     5    1
    12     5     1    1
    13     1     2    1
    14     2     3    1
    15     2     4    2
