MODEL 1
REMARK VINA RESULT:      -7.3      0.000      0.000
REMARK SMILES CC(=O)CCc1ccc2c(c1)OCO2
REMARK SMILES IDX 4 1 2 2 1 3 3 4 5 5 6 6 7 7 11 8 8 9 10 10 9 11 12 12 14 13
REMARK SMILES IDX 13 14
REMARK H PARENT
REMARK Flexibility Score: inf
ROOT
ATOM      1  C   UNL     1       5.867   1.630   1.273  1.00  0.00     0.080 C 
ENDROOT
BRANCH   1   2
ATOM      2  C   UNL     1       5.362   0.460   2.044  1.00  0.00     0.130 C 
ATOM      3  C   UNL     1       6.206  -0.741   2.284  1.00  0.00     0.087 C 
ATOM      4  O   UNL     1       4.232   0.454   2.505  1.00  0.00    -0.300 OA
ENDBRANCH   1   2
BRANCH   1   5
ATOM      5  C   UNL     1       5.652   1.442  -0.216  1.00  0.00     0.043 C 
BRANCH   5   6
ATOM      6  C   UNL     1       6.784   0.739  -0.847  1.00  0.00    -0.044 A 
ATOM      7  C   UNL     1       8.081   1.265  -0.818  1.00  0.00     0.008 A 
ATOM      8  C   UNL     1       6.572  -0.464  -1.480  1.00  0.00     0.054 A 
ATOM      9  C   UNL     1       9.104   0.560  -1.427  1.00  0.00     0.051 A 
ATOM     10  C   UNL     1       7.609  -1.173  -2.093  1.00  0.00     0.166 A 
ATOM     11  C   UNL     1       8.886  -0.656  -2.067  1.00  0.00     0.165 A 
ATOM     12  O   UNL     1       7.655  -2.369  -2.777  1.00  0.00    -0.454 OA
ATOM     13  O   UNL     1       9.697  -1.556  -2.741  1.00  0.00    -0.454 OA
ATOM     14  C   UNL     1       8.974  -2.700  -3.128  1.00  0.00     0.468 C 
ENDBRANCH   5   6
ENDBRANCH   1   5
TORSDOF 3
ENDMDL
MODEL 2
REMARK VINA RESULT:      -7.2      1.116      1.152
REMARK SMILES CC(=O)CCc1ccc2c(c1)OCO2
REMARK SMILES IDX 4 1 2 2 1 3 3 4 5 5 6 6 7 7 11 8 8 9 10 10 9 11 12 12 14 13
REMARK SMILES IDX 13 14
REMARK H PARENT
REMARK Flexibility Score: inf
ROOT
ATOM      1  C   UNL     1       6.353   1.226   0.867  1.00  0.00     0.080 C 
ENDROOT
BRANCH   1   2
ATOM      2  C   UNL     1       5.679   0.401   1.908  1.00  0.00     0.130 C 
ATOM      3  C   UNL     1       6.322  -0.813   2.478  1.00  0.00     0.087 C 
ATOM      4  O   UNL     1       4.572   0.699   2.325  1.00  0.00    -0.300 OA
ENDBRANCH   1   2
BRANCH   1   5
ATOM      5  C   UNL     1       5.842   0.887  -0.520  1.00  0.00     0.043 C 
BRANCH   5   6
ATOM      6  C   UNL     1       6.810   0.071  -1.274  1.00  0.00    -0.044 A 
ATOM      7  C   UNL     1       7.522   0.594  -2.359  1.00  0.00     0.008 A 
ATOM      8  C   UNL     1       7.028  -1.238  -0.910  1.00  0.00     0.054 A 
ATOM      9  C   UNL     1       8.418  -0.219  -3.029  1.00  0.00     0.051 A 
ATOM     10  C   UNL     1       7.936  -2.056  -1.589  1.00  0.00     0.166 A 
ATOM     11  C   UNL     1       8.636  -1.542  -2.658  1.00  0.00     0.165 A 
ATOM     12  O   UNL     1       8.324  -3.369  -1.425  1.00  0.00    -0.454 OA
ATOM     13  O   UNL     1       9.449  -2.560  -3.132  1.00  0.00    -0.454 OA
ATOM     14  C   UNL     1       9.350  -3.708  -2.322  1.00  0.00     0.468 C 
ENDBRANCH   5   6
ENDBRANCH   1   5
TORSDOF 3
ENDMDL
MODEL 3
REMARK VINA RESULT:      -7.0      1.803      2.301
REMARK SMILES CC(=O)CCc1ccc2c(c1)OCO2
REMARK SMILES IDX 4 1 2 2 1 3 3 4 5 5 6 6 7 7 11 8 8 9 10 10 9 11 12 12 14 13
REMARK SMILES IDX 13 14
REMARK H PARENT
REMARK Flexibility Score: inf
ROOT
ATOM      1  C   UNL     1       5.974   1.207  -0.195  1.00  0.00     0.080 C 
ENDROOT
BRANCH   1   2
ATOM      2  C   UNL     1       5.913   1.187   1.293  1.00  0.00     0.130 C 
ATOM      3  C   UNL     1       5.312   0.046   2.034  1.00  0.00     0.087 C 
ATOM      4  O   UNL     1       6.357   2.113   1.951  1.00  0.00    -0.300 OA
ENDBRANCH   1   2
BRANCH   1   5
ATOM      5  C   UNL     1       7.404   1.119  -0.688  1.00  0.00     0.043 C 
BRANCH   5   6
ATOM      6  C   UNL     1       7.730  -0.231  -1.182  1.00  0.00    -0.044 A 
ATOM      7  C   UNL     1       7.801  -0.514  -2.551  1.00  0.00     0.008 A 
ATOM      8  C   UNL     1       7.975  -1.245  -0.284  1.00  0.00     0.054 A 
ATOM      9  C   UNL     1       8.112  -1.799  -2.955  1.00  0.00     0.051 A 
ATOM     10  C   UNL     1       8.290  -2.543  -0.698  1.00  0.00     0.166 A 
ATOM     11  C   UNL     1       8.359  -2.822  -2.045  1.00  0.00     0.165 A 
ATOM     12  O   UNL     1       8.570  -3.706  -0.013  1.00  0.00    -0.454 OA
ATOM     13  O   UNL     1       8.684  -4.164  -2.160  1.00  0.00    -0.454 OA
ATOM     14  C   UNL     1       8.916  -4.741  -0.897  1.00  0.00     0.468 C 
ENDBRANCH   5   6
ENDBRANCH   1   5
TORSDOF 3
ENDMDL
MODEL 4
REMARK VINA RESULT:      -6.6      2.024      2.577
REMARK SMILES CC(=O)CCc1ccc2c(c1)OCO2
REMARK SMILES IDX 4 1 2 2 1 3 3 4 5 5 6 6 7 7 11 8 8 9 10 10 9 11 12 12 14 13
REMARK SMILES IDX 13 14
REMARK H PARENT
REMARK Flexibility Score: inf
ROOT
ATOM      1  C   UNL     1       6.217  -0.350   2.318  1.00  0.00     0.080 C 
ENDROOT
BRANCH   1   2
ATOM      2  C   UNL     1       5.139   0.573   1.866  1.00  0.00     0.130 C 
ATOM      3  C   UNL     1       5.293   1.419   0.652  1.00  0.00     0.087 C 
ATOM      4  O   UNL     1       4.091   0.663   2.485  1.00  0.00    -0.300 OA
ENDBRANCH   1   2
BRANCH   1   5
ATOM      5  C   UNL     1       7.529  -0.048   1.621  1.00  0.00     0.043 C 
BRANCH   5   6
ATOM      6  C   UNL     1       7.800  -1.001   0.530  1.00  0.00    -0.044 A 
ATOM      7  C   UNL     1       7.627  -0.647  -0.813  1.00  0.00     0.008 A 
ATOM      8  C   UNL     1       8.238  -2.271   0.828  1.00  0.00     0.054 A 
ATOM      9  C   UNL     1       7.898  -1.584  -1.793  1.00  0.00     0.051 A 
ATOM     10  C   UNL     1       8.511  -3.214  -0.167  1.00  0.00     0.166 A 
ATOM     11  C   UNL     1       8.340  -2.867  -1.489  1.00  0.00     0.165 A 
ATOM     12  O   UNL     1       8.949  -4.521  -0.129  1.00  0.00    -0.454 OA
ATOM     13  O   UNL     1       8.680  -3.980  -2.243  1.00  0.00    -0.454 OA
ATOM     14  C   UNL     1       9.159  -5.021  -1.425  1.00  0.00     0.468 C 
ENDBRANCH   5   6
ENDBRANCH   1   5
TORSDOF 3
ENDMDL
MODEL 5
REMARK VINA RESULT:      -6.4      2.109      2.496
REMARK SMILES CC(=O)CCc1ccc2c(c1)OCO2
REMARK SMILES IDX 4 1 2 2 1 3 3 4 5 5 6 6 7 7 11 8 8 9 10 10 9 11 12 12 14 13
REMARK SMILES IDX 13 14
REMARK H PARENT
REMARK Flexibility Score: inf
ROOT
ATOM      1  C   UNL     1       5.801   1.062  -0.366  1.00  0.00     0.080 C 
ENDROOT
BRANCH   1   2
ATOM      2  C   UNL     1       5.752   1.251   1.111  1.00  0.00     0.130 C 
ATOM      3  C   UNL     1       4.942   0.362   1.986  1.00  0.00     0.087 C 
ATOM      4  O   UNL     1       6.380   2.149   1.649  1.00  0.00    -0.300 OA
ENDBRANCH   1   2
BRANCH   1   5
ATOM      5  C   UNL     1       7.220   0.830  -0.844  1.00  0.00     0.043 C 
BRANCH   5   6
ATOM      6  C   UNL     1       7.683  -0.536  -0.541  1.00  0.00    -0.044 A 
ATOM      7  C   UNL     1       7.904  -0.960   0.774  1.00  0.00     0.008 A 
ATOM      8  C   UNL     1       7.904  -1.425  -1.569  1.00  0.00     0.054 A 
ATOM      9  C   UNL     1       8.337  -2.254   0.998  1.00  0.00     0.051 A 
ATOM     10  C   UNL     1       8.342  -2.732  -1.337  1.00  0.00     0.166 A 
ATOM     11  C   UNL     1       8.560  -3.150  -0.043  1.00  0.00     0.165 A 
ATOM     12  O   UNL     1       8.631  -3.788  -2.175  1.00  0.00    -0.454 OA
ATOM     13  O   UNL     1       8.982  -4.469  -0.114  1.00  0.00    -0.454 OA
ATOM     14  C   UNL     1       8.953  -4.941  -1.440  1.00  0.00     0.468 C 
ENDBRANCH   5   6
ENDBRANCH   1   5
TORSDOF 3
ENDMDL
