@<TRIPOS>MOLECULE
/home/cewinharhar/GITHUB/reincatalyze/data/processed/docking_pred/2023-May-25-1902_sub9_nm5_bs15_s42_ex16_mel10_mts10000_k50_ec01_g099_lra3e-4_lrc3e-3/404021d27c656f8fbd9408a440432f577c9906d0_ligand_9.pdbqt
 14 15 0 0 0
SMALL
GASTEIGER

@<TRIPOS>ATOM
      1  C          6.1280    1.6560    1.5480 C.3     1  UNL1        0.0800
      2  C          5.4960    0.4440    2.1390 C.2     1  UNL1        0.1300
      3  C          6.2670   -0.8090    2.3600 C.3     1  UNL1        0.0870
      4  O          4.3190    0.4440    2.4610 O.2     1  UNL1       -0.3000
      5  C          5.9290    1.7040    0.0460 C.3     1  UNL1        0.0430
      6  C          6.9650    0.9350   -0.6670 C.2     1  UNL1       -0.0440
      7  C          8.2890    1.3830   -0.7420 C.2     1  UNL1        0.0080
      8  C          6.6350   -0.2540   -1.2760 C.2     1  UNL1        0.0540
      9  C          9.2190    0.6190   -1.4240 C.2     1  UNL1        0.0510
     10  C          7.5780   -1.0230   -1.9630 C.2     1  UNL1        0.1660
     11  C          8.8810   -0.5830   -2.0380 C.2     1  UNL1        0.1650
     12  O          7.5000   -2.2210   -2.6420 O.2     1  UNL1       -0.4540
     13  O          9.5830   -1.5300   -2.7680 O.2     1  UNL1       -0.4540
     14  C          8.7660   -2.6290   -3.0920 C.3     1  UNL1        0.4680
@<TRIPOS>BOND
     1    14    13    1
     2    14    12    1
     3    13    11    1
     4    12    10    1
     5    11    10    2
     6    11     9    1
     7    10     8    1
     8     9     7    2
     9     8     6    2
    10     7     6    1
    11     6     5    1
    12     5     1    1
    13     1     2    1
    14     2     3    1
    15     2     4    2
