MODEL 1
REMARK VINA RESULT:      -7.6      0.000      0.000
REMARK SMILES CC(=O)CCc1ccc2c(c1)OCO2
REMARK SMILES IDX 4 1 2 2 1 3 3 4 5 5 6 6 7 7 11 8 8 9 10 10 9 11 12 12 14 13
REMARK SMILES IDX 13 14
REMARK H PARENT
REMARK Flexibility Score: inf
ROOT
ATOM      1  C   UNL     1       5.544   1.845   1.322  1.00  0.00     0.080 C 
ENDROOT
BRANCH   1   2
ATOM      2  C   UNL     1       5.082   0.622   2.036  1.00  0.00     0.130 C 
ATOM      3  C   UNL     1       5.954  -0.575   2.179  1.00  0.00     0.087 C 
ATOM      4  O   UNL     1       3.966   0.567   2.527  1.00  0.00    -0.300 OA
ENDBRANCH   1   2
BRANCH   1   5
ATOM      5  C   UNL     1       5.408   1.690  -0.180  1.00  0.00     0.043 C 
BRANCH   5   6
ATOM      6  C   UNL     1       6.572   1.003  -0.766  1.00  0.00    -0.044 A 
ATOM      7  C   UNL     1       7.878   1.459  -0.551  1.00  0.00     0.008 A 
ATOM      8  C   UNL     1       6.383  -0.116  -1.545  1.00  0.00     0.054 A 
ATOM      9  C   UNL     1       8.932   0.773  -1.126  1.00  0.00     0.051 A 
ATOM     10  C   UNL     1       7.452  -0.807  -2.124  1.00  0.00     0.166 A 
ATOM     11  C   UNL     1       8.737  -0.358  -1.913  1.00  0.00     0.165 A 
ATOM     12  O   UNL     1       7.524  -1.926  -2.925  1.00  0.00    -0.454 OA
ATOM     13  O   UNL     1       9.580  -1.221  -2.595  1.00  0.00    -0.454 OA
ATOM     14  C   UNL     1       8.860  -2.282  -3.176  1.00  0.00     0.468 C 
ENDBRANCH   5   6
ENDBRANCH   1   5
TORSDOF 3
ENDMDL
MODEL 2
REMARK VINA RESULT:      -7.4      1.925      2.426
REMARK SMILES CC(=O)CCc1ccc2c(c1)OCO2
REMARK SMILES IDX 4 1 2 2 1 3 3 4 5 5 6 6 7 7 11 8 8 9 10 10 9 11 12 12 14 13
REMARK SMILES IDX 13 14
REMARK H PARENT
REMARK Flexibility Score: inf
ROOT
ATOM      1  C   UNL     1       5.771   1.282  -0.293  1.00  0.00     0.080 C 
ENDROOT
BRANCH   1   2
ATOM      2  C   UNL     1       5.238   1.218   1.096  1.00  0.00     0.130 C 
ATOM      3  C   UNL     1       5.451   0.027   1.961  1.00  0.00     0.087 C 
ATOM      4  O   UNL     1       4.606   2.150   1.568  1.00  0.00    -0.300 OA
ENDBRANCH   1   2
BRANCH   1   5
ATOM      5  C   UNL     1       7.271   1.062  -0.318  1.00  0.00     0.043 C 
BRANCH   5   6
ATOM      6  C   UNL     1       7.623  -0.239  -0.913  1.00  0.00    -0.044 A 
ATOM      7  C   UNL     1       7.638  -0.431  -2.299  1.00  0.00     0.008 A 
ATOM      8  C   UNL     1       7.949  -1.298  -0.096  1.00  0.00     0.054 A 
ATOM      9  C   UNL     1       7.977  -1.675  -2.801  1.00  0.00     0.051 A 
ATOM     10  C   UNL     1       8.292  -2.553  -0.608  1.00  0.00     0.166 A 
ATOM     11  C   UNL     1       8.305  -2.743  -1.972  1.00  0.00     0.165 A 
ATOM     12  O   UNL     1       8.649  -3.745  -0.014  1.00  0.00    -0.454 OA
ATOM     13  O   UNL     1       8.675  -4.061  -2.189  1.00  0.00    -0.454 OA
ATOM     14  C   UNL     1       8.990  -4.706  -0.979  1.00  0.00     0.468 C 
ENDBRANCH   5   6
ENDBRANCH   1   5
TORSDOF 3
ENDMDL
MODEL 3
REMARK VINA RESULT:      -7.2      2.069      2.601
REMARK SMILES CC(=O)CCc1ccc2c(c1)OCO2
REMARK SMILES IDX 4 1 2 2 1 3 3 4 5 5 6 6 7 7 11 8 8 9 10 10 9 11 12 12 14 13
REMARK SMILES IDX 13 14
REMARK H PARENT
REMARK Flexibility Score: inf
ROOT
ATOM      1  C   UNL     1       5.565   0.009   1.948  1.00  0.00     0.080 C 
ENDROOT
BRANCH   1   2
ATOM      2  C   UNL     1       4.669   1.159   1.640  1.00  0.00     0.130 C 
ATOM      3  C   UNL     1       4.962   2.100   0.525  1.00  0.00     0.087 C 
ATOM      4  O   UNL     1       3.662   1.363   2.298  1.00  0.00    -0.300 OA
ENDBRANCH   1   2
BRANCH   1   5
ATOM      5  C   UNL     1       6.977   0.266   1.462  1.00  0.00     0.043 C 
BRANCH   5   6
ATOM      6  C   UNL     1       7.380  -0.694   0.420  1.00  0.00    -0.044 A 
ATOM      7  C   UNL     1       7.272  -0.387  -0.941  1.00  0.00     0.008 A 
ATOM      8  C   UNL     1       7.879  -1.925   0.782  1.00  0.00     0.054 A 
ATOM      9  C   UNL     1       7.666  -1.328  -1.875  1.00  0.00     0.051 A 
ATOM     10  C   UNL     1       8.278  -2.872  -0.166  1.00  0.00     0.166 A 
ATOM     11  C   UNL     1       8.170  -2.571  -1.506  1.00  0.00     0.165 A 
ATOM     12  O   UNL     1       8.796  -4.145  -0.062  1.00  0.00    -0.454 OA
ATOM     13  O   UNL     1       8.630  -3.677  -2.203  1.00  0.00    -0.454 OA
ATOM     14  C   UNL     1       9.122  -4.662  -1.326  1.00  0.00     0.468 C 
ENDBRANCH   5   6
ENDBRANCH   1   5
TORSDOF 3
ENDMDL
MODEL 4
REMARK VINA RESULT:      -7.1      1.244      1.452
REMARK SMILES CC(=O)CCc1ccc2c(c1)OCO2
REMARK SMILES IDX 4 1 2 2 1 3 3 4 5 5 6 6 7 7 11 8 8 9 10 10 9 11 12 12 14 13
REMARK SMILES IDX 13 14
REMARK H PARENT
REMARK Flexibility Score: inf
ROOT
ATOM      1  C   UNL     1       6.381   1.177   0.956  1.00  0.00     0.080 C 
ENDROOT
BRANCH   1   2
ATOM      2  C   UNL     1       5.646   0.362   1.963  1.00  0.00     0.130 C 
ATOM      3  C   UNL     1       6.236  -0.870   2.552  1.00  0.00     0.087 C 
ATOM      4  O   UNL     1       4.530   0.685   2.336  1.00  0.00    -0.300 OA
ENDBRANCH   1   2
BRANCH   1   5
ATOM      5  C   UNL     1       5.869   0.912  -0.446  1.00  0.00     0.043 C 
BRANCH   5   6
ATOM      6  C   UNL     1       6.812   0.092  -1.227  1.00  0.00    -0.044 A 
ATOM      7  C   UNL     1       7.482   0.607  -2.342  1.00  0.00     0.008 A 
ATOM      8  C   UNL     1       7.049  -1.212  -0.857  1.00  0.00     0.054 A 
ATOM      9  C   UNL     1       8.357  -0.209  -3.036  1.00  0.00     0.051 A 
ATOM     10  C   UNL     1       7.935  -2.034  -1.561  1.00  0.00     0.166 A 
ATOM     11  C   UNL     1       8.594  -1.528  -2.660  1.00  0.00     0.165 A 
ATOM     12  O   UNL     1       8.335  -3.343  -1.397  1.00  0.00    -0.454 OA
ATOM     13  O   UNL     1       9.393  -2.548  -3.152  1.00  0.00    -0.454 OA
ATOM     14  C   UNL     1       9.328  -3.687  -2.328  1.00  0.00     0.468 C 
ENDBRANCH   5   6
ENDBRANCH   1   5
TORSDOF 3
ENDMDL
MODEL 5
REMARK VINA RESULT:      -7.0      1.937      2.478
REMARK SMILES CC(=O)CCc1ccc2c(c1)OCO2
REMARK SMILES IDX 4 1 2 2 1 3 3 4 5 5 6 6 7 7 11 8 8 9 10 10 9 11 12 12 14 13
REMARK SMILES IDX 13 14
REMARK H PARENT
REMARK Flexibility Score: inf
ROOT
ATOM      1  C   UNL     1       6.821   1.138   1.360  1.00  0.00     0.080 C 
ENDROOT
BRANCH   1   2
ATOM      2  C   UNL     1       5.341   1.305   1.397  1.00  0.00     0.130 C 
ATOM      3  C   UNL     1       4.625   2.147   0.403  1.00  0.00     0.087 C 
ATOM      4  O   UNL     1       4.669   0.750   2.252  1.00  0.00    -0.300 OA
ENDBRANCH   1   2
BRANCH   1   5
ATOM      5  C   UNL     1       7.356   1.282  -0.051  1.00  0.00     0.043 C 
BRANCH   5   6
ATOM      6  C   UNL     1       7.655  -0.027  -0.658  1.00  0.00    -0.044 A 
ATOM      7  C   UNL     1       7.616  -0.218  -2.044  1.00  0.00     0.008 A 
ATOM      8  C   UNL     1       7.985  -1.093   0.147  1.00  0.00     0.054 A 
ATOM      9  C   UNL     1       7.908  -1.469  -2.557  1.00  0.00     0.051 A 
ATOM     10  C   UNL     1       8.280  -2.356  -0.376  1.00  0.00     0.166 A 
ATOM     11  C   UNL     1       8.240  -2.545  -1.740  1.00  0.00     0.165 A 
ATOM     12  O   UNL     1       8.629  -3.556   0.205  1.00  0.00    -0.454 OA
ATOM     13  O   UNL     1       8.571  -3.871  -1.970  1.00  0.00    -0.454 OA
ATOM     14  C   UNL     1       8.914  -4.525  -0.771  1.00  0.00     0.468 C 
ENDBRANCH   5   6
ENDBRANCH   1   5
TORSDOF 3
ENDMDL
