@<TRIPOS>MOLECULE
/home/cewinharhar/GITHUB/reincatalyze/data/processed/docking_pred/2023-May-25-1902_sub9_nm5_bs15_s42_ex16_mel10_mts10000_k50_ec01_g099_lra3e-4_lrc3e-3/41d0b72e0d67d5e9a3b384f9954b5fa92cfe5642_ligand_9.pdbqt
 14 15 0 0 0
SMALL
GASTEIGER

@<TRIPOS>ATOM
      1  C          6.8210    1.1380    1.3600 C.3     1  UNL1        0.0800
      2  C          5.3410    1.3050    1.3970 C.2     1  UNL1        0.1300
      3  C          4.6250    2.1470    0.4030 C.3     1  UNL1        0.0870
      4  O          4.6690    0.7500    2.2520 O.2     1  UNL1       -0.3000
      5  C          7.3560    1.2820   -0.0510 C.3     1  UNL1        0.0430
      6  C          7.6550   -0.0270   -0.6580 C.2     1  UNL1       -0.0440
      7  C          7.6160   -0.2180   -2.0440 C.2     1  UNL1        0.0080
      8  C          7.9850   -1.0930    0.1470 C.2     1  UNL1        0.0540
      9  C          7.9080   -1.4690   -2.5570 C.2     1  UNL1        0.0510
     10  C          8.2800   -2.3560   -0.3760 C.2     1  UNL1        0.1660
     11  C          8.2400   -2.5450   -1.7400 C.2     1  UNL1        0.1650
     12  O          8.6290   -3.5560    0.2050 O.2     1  UNL1       -0.4540
     13  O          8.5710   -3.8710   -1.9700 O.2     1  UNL1       -0.4540
     14  C          8.9140   -4.5250   -0.7710 C.3     1  UNL1        0.4680
@<TRIPOS>BOND
     1     9     7    1
     2     9    11    2
     3     7     6    2
     4    13    11    1
     5    13    14    1
     6    11    10    1
     7    14    12    1
     8     6     5    1
     9     6     8    1
    10    10     8    2
    11    10    12    1
    12     5     1    1
    13     3     2    1
    14     1     2    1
    15     2     4    2
