@<TRIPOS>MOLECULE
/home/cewinharhar/GITHUB/reincatalyze/data/processed/docking_pred/2023-May-25-1902_sub9_nm5_bs15_s42_ex16_mel10_mts10000_k50_ec01_g099_lra3e-4_lrc3e-3/41d0b72e0d67d5e9a3b384f9954b5fa92cfe5642_ligand_9.pdbqt
 14 15 0 0 0
SMALL
GASTEIGER

@<TRIPOS>ATOM
      1  C          5.7710    1.2820   -0.2930 C.3     1  UNL1        0.0800
      2  C          5.2380    1.2180    1.0960 C.2     1  UNL1        0.1300
      3  C          5.4510    0.0270    1.9610 C.3     1  UNL1        0.0870
      4  O          4.6060    2.1500    1.5680 O.2     1  UNL1       -0.3000
      5  C          7.2710    1.0620   -0.3180 C.3     1  UNL1        0.0430
      6  C          7.6230   -0.2390   -0.9130 C.2     1  UNL1       -0.0440
      7  C          7.6380   -0.4310   -2.2990 C.2     1  UNL1        0.0080
      8  C          7.9490   -1.2980   -0.0960 C.2     1  UNL1        0.0540
      9  C          7.9770   -1.6750   -2.8010 C.2     1  UNL1        0.0510
     10  C          8.2920   -2.5530   -0.6080 C.2     1  UNL1        0.1660
     11  C          8.3050   -2.7430   -1.9720 C.2     1  UNL1        0.1650
     12  O          8.6490   -3.7450   -0.0140 O.2     1  UNL1       -0.4540
     13  O          8.6750   -4.0610   -2.1890 O.2     1  UNL1       -0.4540
     14  C          8.9900   -4.7060   -0.9790 C.3     1  UNL1        0.4680
@<TRIPOS>BOND
     1     9     7    1
     2     9    11    2
     3     7     6    2
     4    13    11    1
     5    13    14    1
     6    11    10    1
     7    14    12    1
     8     6     5    1
     9     6     8    1
    10    10     8    2
    11    10    12    1
    12     5     1    1
    13     1     2    1
    14     2     4    2
    15     2     3    1
