@<TRIPOS>MOLECULE
/home/cewinharhar/GITHUB/reincatalyze/data/processed/docking_pred/2023-May-25-1902_sub9_nm5_bs15_s42_ex16_mel10_mts10000_k50_ec01_g099_lra3e-4_lrc3e-3/41d0b72e0d67d5e9a3b384f9954b5fa92cfe5642_ligand_9.pdbqt
 14 15 0 0 0
SMALL
GASTEIGER

@<TRIPOS>ATOM
      1  C          5.5650    0.0090    1.9480 C.3     1  UNL1        0.0800
      2  C          4.6690    1.1590    1.6400 C.2     1  UNL1        0.1300
      3  C          4.9620    2.1000    0.5250 C.3     1  UNL1        0.0870
      4  O          3.6620    1.3630    2.2980 O.2     1  UNL1       -0.3000
      5  C          6.9770    0.2660    1.4620 C.3     1  UNL1        0.0430
      6  C          7.3800   -0.6940    0.4200 C.2     1  UNL1       -0.0440
      7  C          7.2720   -0.3870   -0.9410 C.2     1  UNL1        0.0080
      8  C          7.8790   -1.9250    0.7820 C.2     1  UNL1        0.0540
      9  C          7.6660   -1.3280   -1.8750 C.2     1  UNL1        0.0510
     10  C          8.2780   -2.8720   -0.1660 C.2     1  UNL1        0.1660
     11  C          8.1700   -2.5710   -1.5060 C.2     1  UNL1        0.1650
     12  O          8.7960   -4.1450   -0.0620 O.2     1  UNL1       -0.4540
     13  O          8.6300   -3.6770   -2.2030 O.2     1  UNL1       -0.4540
     14  C          9.1220   -4.6620   -1.3260 C.3     1  UNL1        0.4680
@<TRIPOS>BOND
     1    13    11    1
     2    13    14    1
     3     9    11    2
     4     9     7    1
     5    11    10    1
     6    14    12    1
     7     7     6    2
     8    10    12    1
     9    10     8    2
    10     6     8    1
    11     6     5    1
    12     3     2    1
    13     5     1    1
    14     2     1    1
    15     2     4    2
