@<TRIPOS>MOLECULE
/home/cewinharhar/GITHUB/reincatalyze/data/processed/docking_pred/2023-May-25-1902_sub9_nm5_bs15_s42_ex16_mel10_mts10000_k50_ec01_g099_lra3e-4_lrc3e-3/41d0b72e0d67d5e9a3b384f9954b5fa92cfe5642_ligand_9.pdbqt
 14 15 0 0 0
SMALL
GASTEIGER

@<TRIPOS>ATOM
      1  C          5.5440    1.8450    1.3220 C.3     1  UNL1        0.0800
      2  C          5.0820    0.6220    2.0360 C.2     1  UNL1        0.1300
      3  C          5.9540   -0.5750    2.1790 C.3     1  UNL1        0.0870
      4  O          3.9660    0.5670    2.5270 O.2     1  UNL1       -0.3000
      5  C          5.4080    1.6900   -0.1800 C.3     1  UNL1        0.0430
      6  C          6.5720    1.0030   -0.7660 C.2     1  UNL1       -0.0440
      7  C          7.8780    1.4590   -0.5510 C.2     1  UNL1        0.0080
      8  C          6.3830   -0.1160   -1.5450 C.2     1  UNL1        0.0540
      9  C          8.9320    0.7730   -1.1260 C.2     1  UNL1        0.0510
     10  C          7.4520   -0.8070   -2.1240 C.2     1  UNL1        0.1660
     11  C          8.7370   -0.3580   -1.9130 C.2     1  UNL1        0.1650
     12  O          7.5240   -1.9260   -2.9250 O.2     1  UNL1       -0.4540
     13  O          9.5800   -1.2210   -2.5950 O.2     1  UNL1       -0.4540
     14  C          8.8600   -2.2820   -3.1760 C.3     1  UNL1        0.4680
@<TRIPOS>BOND
     1    14    12    1
     2    14    13    1
     3    12    10    1
     4    13    11    1
     5    10    11    2
     6    10     8    1
     7    11     9    1
     8     8     6    2
     9     9     7    2
    10     6     7    1
    11     6     5    1
    12     5     1    1
    13     1     2    1
    14     2     3    1
    15     2     4    2
