@<TRIPOS>MOLECULE
/home/cewinharhar/GITHUB/reincatalyze/data/processed/docking_pred/2023-May-25-1902_sub9_nm5_bs15_s42_ex16_mel10_mts10000_k50_ec01_g099_lra3e-4_lrc3e-3/42234a6127519c7502e2f6bf4b16ee47cf11c698_ligand_9.pdbqt
 14 15 0 0 0
SMALL
GASTEIGER

@<TRIPOS>ATOM
      1  C          6.1550    1.7380    0.2690 C.3     1  UNL1        0.0800
      2  C          5.2410    1.2030    1.3160 C.2     1  UNL1        0.1300
      3  C          5.4860   -0.1110    1.9700 C.3     1  UNL1        0.0870
      4  O          4.2560    1.8320    1.6700 O.2     1  UNL1       -0.3000
      5  C          6.0450    0.9410   -1.0160 C.3     1  UNL1        0.0430
      6  C          7.2100    0.0610   -1.2150 C.2     1  UNL1       -0.0440
      7  C          7.1760   -1.0080   -2.1170 C.2     1  UNL1        0.0080
      8  C          8.3660    0.2890   -0.5040 C.2     1  UNL1        0.0540
      9  C          8.3010   -1.8000   -2.2630 C.2     1  UNL1        0.0510
     10  C          9.5010   -0.5130   -0.6550 C.2     1  UNL1        0.1660
     11  C          9.4680   -1.5670   -1.5420 C.2     1  UNL1        0.1650
     12  O         10.7510   -0.4930   -0.0730 O.2     1  UNL1       -0.4540
     13  O         10.7110   -2.1780   -1.4850 O.2     1  UNL1       -0.4540
     14  C         11.5840   -1.4750   -0.6350 C.3     1  UNL1        0.4680
@<TRIPOS>BOND
     1     9     7    1
     2     9    11    2
     3     7     6    2
     4    11    13    1
     5    11    10    1
     6    13    14    1
     7     6     5    1
     8     6     8    1
     9     5     1    1
    10    10     8    2
    11    10    12    1
    12    14    12    1
    13     1     2    1
    14     2     4    2
    15     2     3    1
