@<TRIPOS>MOLECULE
/home/cewinharhar/GITHUB/reincatalyze/data/processed/docking_pred/2023-May-25-1902_sub9_nm5_bs15_s42_ex16_mel10_mts10000_k50_ec01_g099_lra3e-4_lrc3e-3/42234a6127519c7502e2f6bf4b16ee47cf11c698_ligand_9.pdbqt
 14 15 0 0 0
SMALL
GASTEIGER

@<TRIPOS>ATOM
      1  C          6.7110    0.1750    1.8690 C.3     1  UNL1        0.0800
      2  C          5.3900    0.8350    1.6740 C.2     1  UNL1        0.1300
      3  C          5.1570    1.8040    0.5700 C.3     1  UNL1        0.0870
      4  O          4.4540    0.5960    2.4200 O.2     1  UNL1       -0.3000
      5  C          6.6450   -1.3010    1.5320 C.3     1  UNL1        0.0430
      6  C          7.3380   -1.6050    0.2670 C.2     1  UNL1       -0.0440
      7  C          6.8610   -1.1330   -0.9610 C.2     1  UNL1        0.0080
      8  C          8.4830   -2.3680    0.2830 C.2     1  UNL1        0.0540
      9  C          7.5540   -1.4490   -2.1160 C.2     1  UNL1        0.0510
     10  C          9.1810   -2.6840   -0.8870 C.2     1  UNL1        0.1660
     11  C          8.7120   -2.2210   -2.0960 C.2     1  UNL1        0.1650
     12  O         10.3240   -3.4140   -1.1310 O.2     1  UNL1       -0.4540
     13  O          9.5870   -2.6800   -3.0680 O.2     1  UNL1       -0.4540
     14  C         10.6740   -3.3640   -2.4900 C.3     1  UNL1        0.4680
@<TRIPOS>BOND
     1    13    14    1
     2    13    11    1
     3    14    12    1
     4     9    11    2
     5     9     7    1
     6    11    10    1
     7    12    10    1
     8     7     6    2
     9    10     8    2
    10     6     8    1
    11     6     5    1
    12     3     2    1
    13     5     1    1
    14     2     1    1
    15     2     4    2
