MODEL 1
REMARK VINA RESULT:      -8.2      0.000      0.000
REMARK SMILES CC(=O)CCc1ccc2c(c1)OCO2
REMARK SMILES IDX 4 1 2 2 1 3 3 4 5 5 6 6 7 7 11 8 8 9 10 10 9 11 12 12 14 13
REMARK SMILES IDX 13 14
REMARK H PARENT
REMARK Flexibility Score: inf
ROOT
ATOM      1  C   UNL     1       5.811   1.606   0.839  1.00  0.00     0.080 C 
ENDROOT
BRANCH   1   2
ATOM      2  C   UNL     1       5.385   0.596   1.847  1.00  0.00     0.130 C 
ATOM      3  C   UNL     1       6.257  -0.549   2.222  1.00  0.00     0.087 C 
ATOM      4  O   UNL     1       4.299   0.680   2.398  1.00  0.00    -0.300 OA
ENDBRANCH   1   2
BRANCH   1   5
ATOM      5  C   UNL     1       5.728   1.048  -0.568  1.00  0.00     0.043 C 
BRANCH   5   6
ATOM      6  C   UNL     1       6.988   0.399  -0.973  1.00  0.00    -0.044 A 
ATOM      7  C   UNL     1       8.230   1.005  -0.752  1.00  0.00     0.008 A 
ATOM      8  C   UNL     1       6.954  -0.835  -1.583  1.00  0.00     0.054 A 
ATOM      9  C   UNL     1       9.379   0.348  -1.153  1.00  0.00     0.051 A 
ATOM     10  C   UNL     1       8.119  -1.495  -1.986  1.00  0.00     0.166 A 
ATOM     11  C   UNL     1       9.341  -0.898  -1.769  1.00  0.00     0.165 A 
ATOM     12  O   UNL     1       8.346  -2.707  -2.603  1.00  0.00    -0.454 OA
ATOM     13  O   UNL     1      10.303  -1.766  -2.262  1.00  0.00    -0.454 OA
ATOM     14  C   UNL     1       9.722  -2.965  -2.717  1.00  0.00     0.468 C 
ENDBRANCH   5   6
ENDBRANCH   1   5
TORSDOF 3
ENDMDL
MODEL 2
REMARK VINA RESULT:      -7.7      1.109      1.789
REMARK SMILES CC(=O)CCc1ccc2c(c1)OCO2
REMARK SMILES IDX 4 1 2 2 1 3 3 4 5 5 6 6 7 7 11 8 8 9 10 10 9 11 12 12 14 13
REMARK SMILES IDX 13 14
REMARK H PARENT
REMARK Flexibility Score: inf
ROOT
ATOM      1  C   UNL     1       5.893   1.161  -0.289  1.00  0.00     0.080 C 
ENDROOT
BRANCH   1   2
ATOM      2  C   UNL     1       5.357   1.018   1.094  1.00  0.00     0.130 C 
ATOM      3  C   UNL     1       5.733  -0.130   1.961  1.00  0.00     0.087 C 
ATOM      4  O   UNL     1       4.589   1.845   1.558  1.00  0.00    -0.300 OA
ENDBRANCH   1   2
BRANCH   1   5
ATOM      5  C   UNL     1       7.407   1.227  -0.289  1.00  0.00     0.043 C 
BRANCH   5   6
ATOM      6  C   UNL     1       8.001   0.131  -1.075  1.00  0.00    -0.044 A 
ATOM      7  C   UNL     1       7.465  -0.262  -2.306  1.00  0.00     0.008 A 
ATOM      8  C   UNL     1       9.112  -0.527  -0.597  1.00  0.00     0.054 A 
ATOM      9  C   UNL     1       8.066  -1.297  -3.000  1.00  0.00     0.051 A 
ATOM     10  C   UNL     1       9.716  -1.572  -1.302  1.00  0.00     0.166 A 
ATOM     11  C   UNL     1       9.189  -1.960  -2.513  1.00  0.00     0.165 A 
ATOM     12  O   UNL     1      10.809  -2.371  -1.044  1.00  0.00    -0.454 OA
ATOM     13  O   UNL     1       9.978  -3.000  -2.979  1.00  0.00    -0.454 OA
ATOM     14  C   UNL     1      11.070  -3.233  -2.122  1.00  0.00     0.468 C 
ENDBRANCH   5   6
ENDBRANCH   1   5
TORSDOF 3
ENDMDL
MODEL 3
REMARK VINA RESULT:      -7.4      1.414      2.201
REMARK SMILES CC(=O)CCc1ccc2c(c1)OCO2
REMARK SMILES IDX 4 1 2 2 1 3 3 4 5 5 6 6 7 7 11 8 8 9 10 10 9 11 12 12 14 13
REMARK SMILES IDX 13 14
REMARK H PARENT
REMARK Flexibility Score: inf
ROOT
ATOM      1  C   UNL     1       6.711   0.175   1.869  1.00  0.00     0.080 C 
ENDROOT
BRANCH   1   2
ATOM      2  C   UNL     1       5.390   0.835   1.674  1.00  0.00     0.130 C 
ATOM      3  C   UNL     1       5.157   1.804   0.570  1.00  0.00     0.087 C 
ATOM      4  O   UNL     1       4.454   0.596   2.420  1.00  0.00    -0.300 OA
ENDBRANCH   1   2
BRANCH   1   5
ATOM      5  C   UNL     1       6.645  -1.301   1.532  1.00  0.00     0.043 C 
BRANCH   5   6
ATOM      6  C   UNL     1       7.338  -1.605   0.267  1.00  0.00    -0.044 A 
ATOM      7  C   UNL     1       6.861  -1.133  -0.961  1.00  0.00     0.008 A 
ATOM      8  C   UNL     1       8.483  -2.368   0.283  1.00  0.00     0.054 A 
ATOM      9  C   UNL     1       7.554  -1.449  -2.116  1.00  0.00     0.051 A 
ATOM     10  C   UNL     1       9.181  -2.684  -0.887  1.00  0.00     0.166 A 
ATOM     11  C   UNL     1       8.712  -2.221  -2.096  1.00  0.00     0.165 A 
ATOM     12  O   UNL     1      10.324  -3.414  -1.131  1.00  0.00    -0.454 OA
ATOM     13  O   UNL     1       9.587  -2.680  -3.068  1.00  0.00    -0.454 OA
ATOM     14  C   UNL     1      10.674  -3.364  -2.490  1.00  0.00     0.468 C 
ENDBRANCH   5   6
ENDBRANCH   1   5
TORSDOF 3
ENDMDL
MODEL 4
REMARK VINA RESULT:      -7.2      1.223      2.001
REMARK SMILES CC(=O)CCc1ccc2c(c1)OCO2
REMARK SMILES IDX 4 1 2 2 1 3 3 4 5 5 6 6 7 7 11 8 8 9 10 10 9 11 12 12 14 13
REMARK SMILES IDX 13 14
REMARK H PARENT
REMARK Flexibility Score: inf
ROOT
ATOM      1  C   UNL     1       6.155   1.738   0.269  1.00  0.00     0.080 C 
ENDROOT
BRANCH   1   2
ATOM      2  C   UNL     1       5.241   1.203   1.316  1.00  0.00     0.130 C 
ATOM      3  C   UNL     1       5.486  -0.111   1.970  1.00  0.00     0.087 C 
ATOM      4  O   UNL     1       4.256   1.832   1.670  1.00  0.00    -0.300 OA
ENDBRANCH   1   2
BRANCH   1   5
ATOM      5  C   UNL     1       6.045   0.941  -1.016  1.00  0.00     0.043 C 
BRANCH   5   6
ATOM      6  C   UNL     1       7.210   0.061  -1.215  1.00  0.00    -0.044 A 
ATOM      7  C   UNL     1       7.176  -1.008  -2.117  1.00  0.00     0.008 A 
ATOM      8  C   UNL     1       8.366   0.289  -0.504  1.00  0.00     0.054 A 
ATOM      9  C   UNL     1       8.301  -1.800  -2.263  1.00  0.00     0.051 A 
ATOM     10  C   UNL     1       9.501  -0.513  -0.655  1.00  0.00     0.166 A 
ATOM     11  C   UNL     1       9.468  -1.567  -1.542  1.00  0.00     0.165 A 
ATOM     12  O   UNL     1      10.751  -0.493  -0.073  1.00  0.00    -0.454 OA
ATOM     13  O   UNL     1      10.711  -2.178  -1.485  1.00  0.00    -0.454 OA
ATOM     14  C   UNL     1      11.584  -1.475  -0.635  1.00  0.00     0.468 C 
ENDBRANCH   5   6
ENDBRANCH   1   5
TORSDOF 3
ENDMDL
MODEL 5
REMARK VINA RESULT:      -7.2      2.117      2.622
REMARK SMILES CC(=O)CCc1ccc2c(c1)OCO2
REMARK SMILES IDX 4 1 2 2 1 3 3 4 5 5 6 6 7 7 11 8 8 9 10 10 9 11 12 12 14 13
REMARK SMILES IDX 13 14
REMARK H PARENT
REMARK Flexibility Score: inf
ROOT
ATOM      1  C   UNL     1       6.516  -0.294   1.905  1.00  0.00     0.080 C 
ENDROOT
BRANCH   1   2
ATOM      2  C   UNL     1       5.390   0.641   1.626  1.00  0.00     0.130 C 
ATOM      3  C   UNL     1       5.373   1.503   0.415  1.00  0.00     0.087 C 
ATOM      4  O   UNL     1       4.443   0.727   2.391  1.00  0.00    -0.300 OA
ENDBRANCH   1   2
BRANCH   1   5
ATOM      5  C   UNL     1       6.789  -1.196   0.718  1.00  0.00     0.043 C 
BRANCH   5   6
ATOM      6  C   UNL     1       8.210  -1.172   0.329  1.00  0.00    -0.044 A 
ATOM      7  C   UNL     1       8.778  -0.061  -0.305  1.00  0.00     0.008 A 
ATOM      8  C   UNL     1       9.008  -2.262   0.592  1.00  0.00     0.054 A 
ATOM      9  C   UNL     1      10.117  -0.095  -0.647  1.00  0.00     0.051 A 
ATOM     10  C   UNL     1      10.362  -2.291   0.246  1.00  0.00     0.166 A 
ATOM     11  C   UNL     1      10.921  -1.199  -0.379  1.00  0.00     0.165 A 
ATOM     12  O   UNL     1      11.351  -3.240   0.397  1.00  0.00    -0.454 OA
ATOM     13  O   UNL     1      12.256  -1.503  -0.600  1.00  0.00    -0.454 OA
ATOM     14  C   UNL     1      12.592  -2.751  -0.043  1.00  0.00     0.468 C 
ENDBRANCH   5   6
ENDBRANCH   1   5
TORSDOF 3
ENDMDL
