@<TRIPOS>MOLECULE
/home/cewinharhar/GITHUB/reincatalyze/data/processed/docking_pred/2023-May-25-1902_sub9_nm5_bs15_s42_ex16_mel10_mts10000_k50_ec01_g099_lra3e-4_lrc3e-3/4295960a5818388fac6ce93a10a8a6662c8ec52f_ligand_9.pdbqt
 14 15 0 0 0
SMALL
GASTEIGER

@<TRIPOS>ATOM
      1  C          6.8500    0.7540    1.3800 C.3     1  UNL1        0.0800
      2  C          5.4090    1.1020    1.5170 C.2     1  UNL1        0.1300
      3  C          4.7750    2.1490    0.6720 C.3     1  UNL1        0.0870
      4  O          4.7020    0.5350    2.3350 O.2     1  UNL1       -0.3000
      5  C          7.3360    0.9710   -0.0390 C.3     1  UNL1        0.0430
      6  C          7.6590   -0.3030   -0.7070 C.2     1  UNL1       -0.0440
      7  C          7.6560   -0.4200   -2.1020 C.2     1  UNL1        0.0080
      8  C          7.9750   -1.4090    0.0490 C.2     1  UNL1        0.0540
      9  C          7.9680   -1.6410   -2.6730 C.2     1  UNL1        0.0510
     10  C          8.2910   -2.6400   -0.5330 C.2     1  UNL1        0.1660
     11  C          8.2870   -2.7570   -1.9050 C.2     1  UNL1        0.1650
     12  O          8.6330   -3.8680   -0.0070 O.2     1  UNL1       -0.4540
     13  O          8.6310   -4.0680   -2.1970 O.2     1  UNL1       -0.4540
     14  C          8.9470   -4.7820   -1.0260 C.3     1  UNL1        0.4680
@<TRIPOS>BOND
     1     9     7    1
     2     9    11    2
     3    13    11    1
     4    13    14    1
     5     7     6    2
     6    11    10    1
     7    14    12    1
     8     6     5    1
     9     6     8    1
    10    10    12    1
    11    10     8    2
    12     5     1    1
    13     3     2    1
    14     1     2    1
    15     2     4    2
