MODEL 1
REMARK VINA RESULT:      -7.6      0.000      0.000
REMARK SMILES CC(=O)CCc1ccc2c(c1)OCO2
REMARK SMILES IDX 4 1 2 2 1 3 3 4 5 5 6 6 7 7 11 8 8 9 10 10 9 11 12 12 14 13
REMARK SMILES IDX 13 14
REMARK H PARENT
REMARK Flexibility Score: inf
ROOT
ATOM      1  C   UNL     1       5.526   1.923   1.263  1.00  0.00     0.080 C 
ENDROOT
BRANCH   1   2
ATOM      2  C   UNL     1       5.089   0.707   2.004  1.00  0.00     0.130 C 
ATOM      3  C   UNL     1       5.985  -0.468   2.174  1.00  0.00     0.087 C 
ATOM      4  O   UNL     1       3.975   0.640   2.496  1.00  0.00    -0.300 OA
ENDBRANCH   1   2
BRANCH   1   5
ATOM      5  C   UNL     1       5.400   1.730  -0.235  1.00  0.00     0.043 C 
BRANCH   5   6
ATOM      6  C   UNL     1       6.570   1.031  -0.796  1.00  0.00    -0.044 A 
ATOM      7  C   UNL     1       7.876   1.463  -0.539  1.00  0.00     0.008 A 
ATOM      8  C   UNL     1       6.385  -0.078  -1.591  1.00  0.00     0.054 A 
ATOM      9  C   UNL     1       8.935   0.767  -1.092  1.00  0.00     0.051 A 
ATOM     10  C   UNL     1       7.459  -0.779  -2.148  1.00  0.00     0.166 A 
ATOM     11  C   UNL     1       8.744  -0.353  -1.896  1.00  0.00     0.165 A 
ATOM     12  O   UNL     1       7.536  -1.891  -2.959  1.00  0.00    -0.454 OA
ATOM     13  O   UNL     1       9.593  -1.222  -2.564  1.00  0.00    -0.454 OA
ATOM     14  C   UNL     1       8.872  -2.265  -3.176  1.00  0.00     0.468 C 
ENDBRANCH   5   6
ENDBRANCH   1   5
TORSDOF 3
ENDMDL
MODEL 2
REMARK VINA RESULT:      -7.4      1.930      2.399
REMARK SMILES CC(=O)CCc1ccc2c(c1)OCO2
REMARK SMILES IDX 4 1 2 2 1 3 3 4 5 5 6 6 7 7 11 8 8 9 10 10 9 11 12 12 14 13
REMARK SMILES IDX 13 14
REMARK H PARENT
REMARK Flexibility Score: inf
ROOT
ATOM      1  C   UNL     1       5.816   1.408  -0.287  1.00  0.00     0.080 C 
ENDROOT
BRANCH   1   2
ATOM      2  C   UNL     1       5.150   1.315   1.041  1.00  0.00     0.130 C 
ATOM      3  C   UNL     1       5.451   0.211   1.991  1.00  0.00     0.087 C 
ATOM      4  O   UNL     1       4.331   2.150   1.391  1.00  0.00    -0.300 OA
ENDBRANCH   1   2
BRANCH   1   5
ATOM      5  C   UNL     1       7.298   1.105  -0.182  1.00  0.00     0.043 C 
BRANCH   5   6
ATOM      6  C   UNL     1       7.639  -0.182  -0.813  1.00  0.00    -0.044 A 
ATOM      7  C   UNL     1       7.650  -0.337  -2.204  1.00  0.00     0.008 A 
ATOM      8  C   UNL     1       7.959  -1.264  -0.025  1.00  0.00     0.054 A 
ATOM      9  C   UNL     1       7.979  -1.569  -2.739  1.00  0.00     0.051 A 
ATOM     10  C   UNL     1       8.292  -2.508  -0.571  1.00  0.00     0.166 A 
ATOM     11  C   UNL     1       8.301  -2.661  -1.939  1.00  0.00     0.165 A 
ATOM     12  O   UNL     1       8.641  -3.718  -0.009  1.00  0.00    -0.454 OA
ATOM     13  O   UNL     1       8.661  -3.976  -2.192  1.00  0.00    -0.454 OA
ATOM     14  C   UNL     1       8.973  -4.656  -1.000  1.00  0.00     0.468 C 
ENDBRANCH   5   6
ENDBRANCH   1   5
TORSDOF 3
ENDMDL
MODEL 3
REMARK VINA RESULT:      -7.1      2.106      2.670
REMARK SMILES CC(=O)CCc1ccc2c(c1)OCO2
REMARK SMILES IDX 4 1 2 2 1 3 3 4 5 5 6 6 7 7 11 8 8 9 10 10 9 11 12 12 14 13
REMARK SMILES IDX 13 14
REMARK H PARENT
REMARK Flexibility Score: inf
ROOT
ATOM      1  C   UNL     1       5.541  -0.062   1.969  1.00  0.00     0.080 C 
ENDROOT
BRANCH   1   2
ATOM      2  C   UNL     1       4.697   1.120   1.637  1.00  0.00     0.130 C 
ATOM      3  C   UNL     1       5.057   2.050   0.533  1.00  0.00     0.087 C 
ATOM      4  O   UNL     1       3.680   1.361   2.266  1.00  0.00    -0.300 OA
ENDBRANCH   1   2
BRANCH   1   5
ATOM      5  C   UNL     1       6.980   0.153   1.545  1.00  0.00     0.043 C 
BRANCH   5   6
ATOM      6  C   UNL     1       7.384  -0.790   0.487  1.00  0.00    -0.044 A 
ATOM      7  C   UNL     1       7.254  -0.470  -0.869  1.00  0.00     0.008 A 
ATOM      8  C   UNL     1       7.906  -2.017   0.829  1.00  0.00     0.054 A 
ATOM      9  C   UNL     1       7.650  -1.394  -1.818  1.00  0.00     0.051 A 
ATOM     10  C   UNL     1       8.307  -2.948  -0.134  1.00  0.00     0.166 A 
ATOM     11  C   UNL     1       8.177  -2.634  -1.469  1.00  0.00     0.165 A 
ATOM     12  O   UNL     1       8.846  -4.214  -0.050  1.00  0.00    -0.454 OA
ATOM     13  O   UNL     1       8.645  -3.725  -2.184  1.00  0.00    -0.454 OA
ATOM     14  C   UNL     1       9.163  -4.712  -1.325  1.00  0.00     0.468 C 
ENDBRANCH   5   6
ENDBRANCH   1   5
TORSDOF 3
ENDMDL
MODEL 4
REMARK VINA RESULT:      -7.1      1.251      1.465
REMARK SMILES CC(=O)CCc1ccc2c(c1)OCO2
REMARK SMILES IDX 4 1 2 2 1 3 3 4 5 5 6 6 7 7 11 8 8 9 10 10 9 11 12 12 14 13
REMARK SMILES IDX 13 14
REMARK H PARENT
REMARK Flexibility Score: inf
ROOT
ATOM      1  C   UNL     1       6.366   1.237   0.891  1.00  0.00     0.080 C 
ENDROOT
BRANCH   1   2
ATOM      2  C   UNL     1       5.663   0.417   1.917  1.00  0.00     0.130 C 
ATOM      3  C   UNL     1       6.283  -0.804   2.499  1.00  0.00     0.087 C 
ATOM      4  O   UNL     1       4.550   0.725   2.312  1.00  0.00    -0.300 OA
ENDBRANCH   1   2
BRANCH   1   5
ATOM      5  C   UNL     1       5.859   0.927  -0.503  1.00  0.00     0.043 C 
BRANCH   5   6
ATOM      6  C   UNL     1       6.817   0.102  -1.262  1.00  0.00    -0.044 A 
ATOM      7  C   UNL     1       7.523   0.617  -2.354  1.00  0.00     0.008 A 
ATOM      8  C   UNL     1       7.031  -1.206  -0.893  1.00  0.00     0.054 A 
ATOM      9  C   UNL     1       8.410  -0.203  -3.028  1.00  0.00     0.051 A 
ATOM     10  C   UNL     1       7.929  -2.032  -1.577  1.00  0.00     0.166 A 
ATOM     11  C   UNL     1       8.624  -1.526  -2.653  1.00  0.00     0.165 A 
ATOM     12  O   UNL     1       8.312  -3.346  -1.409  1.00  0.00    -0.454 OA
ATOM     13  O   UNL     1       9.428  -2.550  -3.128  1.00  0.00    -0.454 OA
ATOM     14  C   UNL     1       9.329  -3.694  -2.313  1.00  0.00     0.468 C 
ENDBRANCH   5   6
ENDBRANCH   1   5
TORSDOF 3
ENDMDL
MODEL 5
REMARK VINA RESULT:      -7.0      1.986      2.550
REMARK SMILES CC(=O)CCc1ccc2c(c1)OCO2
REMARK SMILES IDX 4 1 2 2 1 3 3 4 5 5 6 6 7 7 11 8 8 9 10 10 9 11 12 12 14 13
REMARK SMILES IDX 13 14
REMARK H PARENT
REMARK Flexibility Score: inf
ROOT
ATOM      1  C   UNL     1       6.850   0.754   1.380  1.00  0.00     0.080 C 
ENDROOT
BRANCH   1   2
ATOM      2  C   UNL     1       5.409   1.102   1.517  1.00  0.00     0.130 C 
ATOM      3  C   UNL     1       4.775   2.149   0.672  1.00  0.00     0.087 C 
ATOM      4  O   UNL     1       4.702   0.535   2.335  1.00  0.00    -0.300 OA
ENDBRANCH   1   2
BRANCH   1   5
ATOM      5  C   UNL     1       7.336   0.971  -0.039  1.00  0.00     0.043 C 
BRANCH   5   6
ATOM      6  C   UNL     1       7.659  -0.303  -0.707  1.00  0.00    -0.044 A 
ATOM      7  C   UNL     1       7.656  -0.420  -2.102  1.00  0.00     0.008 A 
ATOM      8  C   UNL     1       7.975  -1.409   0.049  1.00  0.00     0.054 A 
ATOM      9  C   UNL     1       7.968  -1.641  -2.673  1.00  0.00     0.051 A 
ATOM     10  C   UNL     1       8.291  -2.640  -0.533  1.00  0.00     0.166 A 
ATOM     11  C   UNL     1       8.287  -2.757  -1.905  1.00  0.00     0.165 A 
ATOM     12  O   UNL     1       8.633  -3.868  -0.007  1.00  0.00    -0.454 OA
ATOM     13  O   UNL     1       8.631  -4.068  -2.197  1.00  0.00    -0.454 OA
ATOM     14  C   UNL     1       8.947  -4.782  -1.026  1.00  0.00     0.468 C 
ENDBRANCH   5   6
ENDBRANCH   1   5
TORSDOF 3
ENDMDL
