@<TRIPOS>MOLECULE
/home/cewinharhar/GITHUB/reincatalyze/data/processed/docking_pred/2023-May-25-1902_sub9_nm5_bs15_s42_ex16_mel10_mts10000_k50_ec01_g099_lra3e-4_lrc3e-3/43f74fb3996e866f8c2ebaeff785616509de483e_ligand_9.pdbqt
 14 15 0 0 0
SMALL
GASTEIGER

@<TRIPOS>ATOM
      1  C          6.3550    1.2230    0.8760 C.3     1  UNL1        0.0800
      2  C          5.6590    0.4050    1.9080 C.2     1  UNL1        0.1300
      3  C          6.2750   -0.8230    2.4780 C.3     1  UNL1        0.0870
      4  O          4.5540    0.7220    2.3180 O.2     1  UNL1       -0.3000
      5  C          5.8470    0.9020   -0.5150 C.3     1  UNL1        0.0430
      6  C          6.8130    0.0870   -1.2750 C.2     1  UNL1       -0.0440
      7  C          7.5260    0.6160   -2.3570 C.2     1  UNL1        0.0080
      8  C          7.0270   -1.2250   -0.9200 C.2     1  UNL1        0.0540
      9  C          8.4200   -0.1950   -3.0320 C.2     1  UNL1        0.0510
     10  C          7.9320   -2.0410   -1.6050 C.2     1  UNL1        0.1660
     11  C          8.6340   -1.5220   -2.6700 C.2     1  UNL1        0.1650
     12  O          8.3160   -3.3560   -1.4490 O.2     1  UNL1       -0.4540
     13  O          9.4440   -2.5390   -3.1510 O.2     1  UNL1       -0.4540
     14  C          9.3410   -3.6920   -2.3490 C.3     1  UNL1        0.4680
@<TRIPOS>BOND
     1    13    11    1
     2    13    14    1
     3     9    11    2
     4     9     7    1
     5    11    10    1
     6     7     6    2
     7    14    12    1
     8    10    12    1
     9    10     8    2
    10     6     8    1
    11     6     5    1
    12     5     1    1
    13     1     2    1
    14     2     4    2
    15     2     3    1
