@<TRIPOS>MOLECULE
/home/cewinharhar/GITHUB/reincatalyze/data/processed/docking_pred/2023-May-25-1902_sub9_nm5_bs15_s42_ex16_mel10_mts10000_k50_ec01_g099_lra3e-4_lrc3e-3/46824fcf52dc560be674bfd6df7e039c48ea1670_ligand_9.pdbqt
 14 15 0 0 0
SMALL
GASTEIGER

@<TRIPOS>ATOM
      1  C          6.6890    1.3900    0.7910 C.3     1  UNL1        0.0800
      2  C          5.8230    0.9810    1.9320 C.2     1  UNL1        0.1300
      3  C          4.3970    1.3950    2.0170 C.3     1  UNL1        0.0870
      4  O          6.2630    0.2880    2.8350 O.2     1  UNL1       -0.3000
      5  C          6.1150    0.9230   -0.5320 C.3     1  UNL1        0.0430
      6  C          6.8600   -0.2250   -1.0760 C.2     1  UNL1       -0.0440
      7  C          7.2130   -0.2950   -2.4290 C.2     1  UNL1        0.0080
      8  C          7.2250   -1.2590   -0.2440 C.2     1  UNL1        0.0540
      9  C          7.9140   -1.3980   -2.8830 C.2     1  UNL1        0.0510
     10  C          7.9340   -2.3710   -0.7080 C.2     1  UNL1        0.1660
     11  C          8.2810   -2.4410   -2.0390 C.2     1  UNL1        0.1650
     12  O          8.4050   -3.5100   -0.0900 O.2     1  UNL1       -0.4540
     13  O          8.9660   -3.6340   -2.2120 O.2     1  UNL1       -0.4540
     14  C          9.1460   -4.2990   -0.9840 C.3     1  UNL1        0.4680
@<TRIPOS>BOND
     1     9     7    1
     2     9    11    2
     3     7     6    2
     4    13    11    1
     5    13    14    1
     6    11    10    1
     7     6     5    1
     8     6     8    1
     9    14    12    1
    10    10     8    2
    11    10    12    1
    12     5     1    1
    13     1     2    1
    14     2     3    1
    15     2     4    2
