@<TRIPOS>MOLECULE
/home/cewinharhar/GITHUB/reincatalyze/data/processed/docking_pred/2023-May-25-1902_sub9_nm5_bs15_s42_ex16_mel10_mts10000_k50_ec01_g099_lra3e-4_lrc3e-3/46824fcf52dc560be674bfd6df7e039c48ea1670_ligand_9.pdbqt
 14 15 0 0 0
SMALL
GASTEIGER

@<TRIPOS>ATOM
      1  C          5.7330    2.1330    1.4610 C.3     1  UNL1        0.0800
      2  C          5.6160    0.8420    2.1960 C.2     1  UNL1        0.1300
      3  C          6.7910    0.2060    2.8470 C.3     1  UNL1        0.0870
      4  O          4.5440    0.2660    2.2840 O.2     1  UNL1       -0.3000
      5  C          5.5300    1.9390   -0.0290 C.3     1  UNL1        0.0430
      6  C          6.6350    1.1750   -0.6350 C.2     1  UNL1       -0.0440
      7  C          7.9690    1.5710   -0.4850 C.2     1  UNL1        0.0080
      8  C          6.3610    0.0420   -1.3670 C.2     1  UNL1        0.0540
      9  C          8.9650    0.8140   -1.0760 C.2     1  UNL1        0.0510
     10  C          7.3700   -0.7200   -1.9620 C.2     1  UNL1        0.1660
     11  C          8.6830   -0.3300   -1.8160 C.2     1  UNL1        0.1650
     12  O          7.3550   -1.8670   -2.7270 O.2     1  UNL1       -0.4540
     13  O          9.4550   -1.2560   -2.5000 O.2     1  UNL1       -0.4540
     14  C          8.6610   -2.2970   -3.0160 C.3     1  UNL1        0.4680
@<TRIPOS>BOND
     1    14    12    1
     2    14    13    1
     3    12    10    1
     4    13    11    1
     5    10    11    2
     6    10     8    1
     7    11     9    1
     8     8     6    2
     9     9     7    2
    10     6     7    1
    11     6     5    1
    12     5     1    1
    13     1     2    1
    14     2     4    2
    15     2     3    1
