@<TRIPOS>MOLECULE
/home/cewinharhar/GITHUB/reincatalyze/data/processed/docking_pred/2023-May-25-1902_sub9_nm5_bs15_s42_ex16_mel10_mts10000_k50_ec01_g099_lra3e-4_lrc3e-3/46824fcf52dc560be674bfd6df7e039c48ea1670_ligand_9.pdbqt
 14 15 0 0 0
SMALL
GASTEIGER

@<TRIPOS>ATOM
      1  C          5.4520    0.1310    2.3630 C.3     1  UNL1        0.0800
      2  C          4.5410    1.2390    1.9600 C.2     1  UNL1        0.1300
      3  C          4.8720    2.1500    0.8320 C.3     1  UNL1        0.0870
      4  O          3.4900    1.4320    2.5500 O.2     1  UNL1       -0.3000
      5  C          6.8810    0.4140    1.9460 C.3     1  UNL1        0.0430
      6  C          7.3460   -0.5300    0.9130 C.2     1  UNL1       -0.0440
      7  C          7.5270   -1.8890    1.1910 C.2     1  UNL1        0.0080
      8  C          7.6090   -0.0740   -0.3580 C.2     1  UNL1        0.0540
      9  C          7.9640   -2.7280    0.1820 C.2     1  UNL1        0.0510
     10  C          8.0500   -0.9250   -1.3760 C.2     1  UNL1        0.1660
     11  C          8.2300   -2.2630   -1.1030 C.2     1  UNL1        0.1650
     12  O          8.3750   -0.7190   -2.6990 O.2     1  UNL1       -0.4540
     13  O          8.6650   -2.8570   -2.2780 O.2     1  UNL1       -0.4540
     14  C          8.6840   -1.9310   -3.3380 C.3     1  UNL1        0.4680
@<TRIPOS>BOND
     1    14    12    1
     2    14    13    1
     3    12    10    1
     4    13    11    1
     5    10    11    2
     6    10     8    1
     7    11     9    1
     8     8     6    2
     9     9     7    2
    10     3     2    1
    11     6     7    1
    12     6     5    1
    13     5     1    1
    14     2     1    1
    15     2     4    2
