@<TRIPOS>MOLECULE
/home/cewinharhar/GITHUB/reincatalyze/data/processed/docking_pred/2023-May-25-1902_sub9_nm5_bs15_s42_ex16_mel10_mts10000_k50_ec01_g099_lra3e-4_lrc3e-3/46824fcf52dc560be674bfd6df7e039c48ea1670_ligand_9.pdbqt
 14 15 0 0 0
SMALL
GASTEIGER

@<TRIPOS>ATOM
      1  C          5.4520    1.1450    0.2730 C.3     1  UNL1        0.0800
      2  C          5.2840    1.1520    1.7530 C.2     1  UNL1        0.1300
      3  C          6.3750    0.7140    2.6640 C.3     1  UNL1        0.0870
      4  O          4.2380    1.5180    2.2640 O.2     1  UNL1       -0.3000
      5  C          6.9160    1.1900   -0.1150 C.3     1  UNL1        0.0430
      6  C          7.3560   -0.0710   -0.7370 C.2     1  UNL1       -0.0440
      7  C          7.4350   -0.2150   -2.1270 C.2     1  UNL1        0.0080
      8  C          7.7020   -1.1400    0.0580 C.2     1  UNL1        0.0540
      9  C          7.8560   -1.4230   -2.6540 C.2     1  UNL1        0.0510
     10  C          8.1270   -2.3590   -0.4790 C.2     1  UNL1        0.1660
     11  C          8.2040   -2.5010   -1.8470 C.2     1  UNL1        0.1650
     12  O          8.5190   -3.5510    0.0900 O.2     1  UNL1       -0.4540
     13  O          8.6470   -3.7910   -2.0910 O.2     1  UNL1       -0.4540
     14  C          8.9460   -4.4620   -0.8900 C.3     1  UNL1        0.4680
@<TRIPOS>BOND
     1     9     7    1
     2     9    11    2
     3     7     6    2
     4    13    11    1
     5    13    14    1
     6    11    10    1
     7    14    12    1
     8     6     5    1
     9     6     8    1
    10    10     8    2
    11    10    12    1
    12     5     1    1
    13     1     2    1
    14     2     4    2
    15     2     3    1
