MODEL 1
REMARK VINA RESULT:      -7.5      0.000      0.000
REMARK SMILES CC(=O)CCc1ccc2c(c1)OCO2
REMARK SMILES IDX 4 1 2 2 1 3 3 4 5 5 6 6 7 7 11 8 8 9 10 10 9 11 12 12 14 13
REMARK SMILES IDX 13 14
REMARK H PARENT
REMARK Flexibility Score: inf
ROOT
ATOM      1  C   UNL     1       5.733   2.133   1.461  1.00  0.00     0.080 C 
ENDROOT
BRANCH   1   2
ATOM      2  C   UNL     1       5.616   0.842   2.196  1.00  0.00     0.130 C 
ATOM      3  C   UNL     1       6.791   0.206   2.847  1.00  0.00     0.087 C 
ATOM      4  O   UNL     1       4.544   0.266   2.284  1.00  0.00    -0.300 OA
ENDBRANCH   1   2
BRANCH   1   5
ATOM      5  C   UNL     1       5.530   1.939  -0.029  1.00  0.00     0.043 C 
BRANCH   5   6
ATOM      6  C   UNL     1       6.635   1.175  -0.635  1.00  0.00    -0.044 A 
ATOM      7  C   UNL     1       7.969   1.571  -0.485  1.00  0.00     0.008 A 
ATOM      8  C   UNL     1       6.361   0.042  -1.367  1.00  0.00     0.054 A 
ATOM      9  C   UNL     1       8.965   0.814  -1.076  1.00  0.00     0.051 A 
ATOM     10  C   UNL     1       7.370  -0.720  -1.962  1.00  0.00     0.166 A 
ATOM     11  C   UNL     1       8.683  -0.330  -1.816  1.00  0.00     0.165 A 
ATOM     12  O   UNL     1       7.355  -1.867  -2.727  1.00  0.00    -0.454 OA
ATOM     13  O   UNL     1       9.455  -1.256  -2.500  1.00  0.00    -0.454 OA
ATOM     14  C   UNL     1       8.661  -2.297  -3.016  1.00  0.00     0.468 C 
ENDBRANCH   5   6
ENDBRANCH   1   5
TORSDOF 3
ENDMDL
MODEL 2
REMARK VINA RESULT:      -7.1      1.796      2.216
REMARK SMILES CC(=O)CCc1ccc2c(c1)OCO2
REMARK SMILES IDX 4 1 2 2 1 3 3 4 5 5 6 6 7 7 11 8 8 9 10 10 9 11 12 12 14 13
REMARK SMILES IDX 13 14
REMARK H PARENT
REMARK Flexibility Score: inf
ROOT
ATOM      1  C   UNL     1       5.452   1.145   0.273  1.00  0.00     0.080 C 
ENDROOT
BRANCH   1   2
ATOM      2  C   UNL     1       5.284   1.152   1.753  1.00  0.00     0.130 C 
ATOM      3  C   UNL     1       6.375   0.714   2.664  1.00  0.00     0.087 C 
ATOM      4  O   UNL     1       4.238   1.518   2.264  1.00  0.00    -0.300 OA
ENDBRANCH   1   2
BRANCH   1   5
ATOM      5  C   UNL     1       6.916   1.190  -0.115  1.00  0.00     0.043 C 
BRANCH   5   6
ATOM      6  C   UNL     1       7.356  -0.071  -0.737  1.00  0.00    -0.044 A 
ATOM      7  C   UNL     1       7.435  -0.215  -2.127  1.00  0.00     0.008 A 
ATOM      8  C   UNL     1       7.702  -1.140   0.058  1.00  0.00     0.054 A 
ATOM      9  C   UNL     1       7.856  -1.423  -2.654  1.00  0.00     0.051 A 
ATOM     10  C   UNL     1       8.127  -2.359  -0.479  1.00  0.00     0.166 A 
ATOM     11  C   UNL     1       8.204  -2.501  -1.847  1.00  0.00     0.165 A 
ATOM     12  O   UNL     1       8.519  -3.551   0.090  1.00  0.00    -0.454 OA
ATOM     13  O   UNL     1       8.647  -3.791  -2.091  1.00  0.00    -0.454 OA
ATOM     14  C   UNL     1       8.946  -4.462  -0.890  1.00  0.00     0.468 C 
ENDBRANCH   5   6
ENDBRANCH   1   5
TORSDOF 3
ENDMDL
MODEL 3
REMARK VINA RESULT:      -7.0      1.264      5.110
REMARK SMILES CC(=O)CCc1ccc2c(c1)OCO2
REMARK SMILES IDX 4 1 2 2 1 3 3 4 5 5 6 6 7 7 11 8 8 9 10 10 9 11 12 12 14 13
REMARK SMILES IDX 13 14
REMARK H PARENT
REMARK Flexibility Score: inf
ROOT
ATOM      1  C   UNL     1       8.268   0.187  -2.694  1.00  0.00     0.080 C 
ENDROOT
BRANCH   1   2
ATOM      2  C   UNL     1       8.026  -1.281  -2.764  1.00  0.00     0.130 C 
ATOM      3  C   UNL     1       9.133  -2.243  -3.014  1.00  0.00     0.087 C 
ATOM      4  O   UNL     1       6.905  -1.739  -2.618  1.00  0.00    -0.300 OA
ENDBRANCH   1   2
BRANCH   1   5
ATOM      5  C   UNL     1       8.807   0.592  -1.337  1.00  0.00     0.043 C 
BRANCH   5   6
ATOM      6  C   UNL     1       7.792   0.445  -0.279  1.00  0.00    -0.044 A 
ATOM      7  C   UNL     1       7.885  -0.559   0.692  1.00  0.00     0.008 A 
ATOM      8  C   UNL     1       6.723   1.311  -0.233  1.00  0.00     0.054 A 
ATOM      9  C   UNL     1       6.903  -0.649   1.662  1.00  0.00     0.051 A 
ATOM     10  C   UNL     1       5.733   1.216   0.749  1.00  0.00     0.166 A 
ATOM     11  C   UNL     1       5.824   0.228   1.704  1.00  0.00     0.165 A 
ATOM     12  O   UNL     1       4.590   1.944   1.004  1.00  0.00    -0.454 OA
ATOM     13  O   UNL     1       4.724   0.372   2.535  1.00  0.00    -0.454 OA
ATOM     14  C   UNL     1       3.964   1.503   2.182  1.00  0.00     0.468 C 
ENDBRANCH   5   6
ENDBRANCH   1   5
TORSDOF 3
ENDMDL
MODEL 4
REMARK VINA RESULT:      -6.7      1.682      2.361
REMARK SMILES CC(=O)CCc1ccc2c(c1)OCO2
REMARK SMILES IDX 4 1 2 2 1 3 3 4 5 5 6 6 7 7 11 8 8 9 10 10 9 11 12 12 14 13
REMARK SMILES IDX 13 14
REMARK H PARENT
REMARK Flexibility Score: inf
ROOT
ATOM      1  C   UNL     1       5.452   0.131   2.363  1.00  0.00     0.080 C 
ENDROOT
BRANCH   1   2
ATOM      2  C   UNL     1       4.541   1.239   1.960  1.00  0.00     0.130 C 
ATOM      3  C   UNL     1       4.872   2.150   0.832  1.00  0.00     0.087 C 
ATOM      4  O   UNL     1       3.490   1.432   2.550  1.00  0.00    -0.300 OA
ENDBRANCH   1   2
BRANCH   1   5
ATOM      5  C   UNL     1       6.881   0.414   1.946  1.00  0.00     0.043 C 
BRANCH   5   6
ATOM      6  C   UNL     1       7.346  -0.530   0.913  1.00  0.00    -0.044 A 
ATOM      7  C   UNL     1       7.527  -1.889   1.191  1.00  0.00     0.008 A 
ATOM      8  C   UNL     1       7.609  -0.074  -0.358  1.00  0.00     0.054 A 
ATOM      9  C   UNL     1       7.964  -2.728   0.182  1.00  0.00     0.051 A 
ATOM     10  C   UNL     1       8.050  -0.925  -1.376  1.00  0.00     0.166 A 
ATOM     11  C   UNL     1       8.230  -2.263  -1.103  1.00  0.00     0.165 A 
ATOM     12  O   UNL     1       8.375  -0.719  -2.699  1.00  0.00    -0.454 OA
ATOM     13  O   UNL     1       8.665  -2.857  -2.278  1.00  0.00    -0.454 OA
ATOM     14  C   UNL     1       8.684  -1.931  -3.338  1.00  0.00     0.468 C 
ENDBRANCH   5   6
ENDBRANCH   1   5
TORSDOF 3
ENDMDL
MODEL 5
REMARK VINA RESULT:      -6.6      1.769      2.270
REMARK SMILES CC(=O)CCc1ccc2c(c1)OCO2
REMARK SMILES IDX 4 1 2 2 1 3 3 4 5 5 6 6 7 7 11 8 8 9 10 10 9 11 12 12 14 13
REMARK SMILES IDX 13 14
REMARK H PARENT
REMARK Flexibility Score: inf
ROOT
ATOM      1  C   UNL     1       6.689   1.390   0.791  1.00  0.00     0.080 C 
ENDROOT
BRANCH   1   2
ATOM      2  C   UNL     1       5.823   0.981   1.932  1.00  0.00     0.130 C 
ATOM      3  C   UNL     1       4.397   1.395   2.017  1.00  0.00     0.087 C 
ATOM      4  O   UNL     1       6.263   0.288   2.835  1.00  0.00    -0.300 OA
ENDBRANCH   1   2
BRANCH   1   5
ATOM      5  C   UNL     1       6.115   0.923  -0.532  1.00  0.00     0.043 C 
BRANCH   5   6
ATOM      6  C   UNL     1       6.860  -0.225  -1.076  1.00  0.00    -0.044 A 
ATOM      7  C   UNL     1       7.213  -0.295  -2.429  1.00  0.00     0.008 A 
ATOM      8  C   UNL     1       7.225  -1.259  -0.244  1.00  0.00     0.054 A 
ATOM      9  C   UNL     1       7.914  -1.398  -2.883  1.00  0.00     0.051 A 
ATOM     10  C   UNL     1       7.934  -2.371  -0.708  1.00  0.00     0.166 A 
ATOM     11  C   UNL     1       8.281  -2.441  -2.039  1.00  0.00     0.165 A 
ATOM     12  O   UNL     1       8.405  -3.510  -0.090  1.00  0.00    -0.454 OA
ATOM     13  O   UNL     1       8.966  -3.634  -2.212  1.00  0.00    -0.454 OA
ATOM     14  C   UNL     1       9.146  -4.299  -0.984  1.00  0.00     0.468 C 
ENDBRANCH   5   6
ENDBRANCH   1   5
TORSDOF 3
ENDMDL
