@<TRIPOS>MOLECULE
/home/cewinharhar/GITHUB/reincatalyze/data/processed/docking_pred/2023-May-25-1902_sub9_nm5_bs15_s42_ex16_mel10_mts10000_k50_ec01_g099_lra3e-4_lrc3e-3/46aa5159a95d0d08c04f597503a56ad94e9ef6ed_ligand_9.pdbqt
 14 15 0 0 0
SMALL
GASTEIGER

@<TRIPOS>ATOM
      1  C          6.0140    1.6770    1.1300 C.3     1  UNL1        0.0800
      2  C          5.4850    0.5680    1.9730 C.2     1  UNL1        0.1300
      3  C          6.3160   -0.6170    2.3160 C.3     1  UNL1        0.0870
      4  O          4.3450    0.6010    2.4080 O.2     1  UNL1       -0.3000
      5  C          5.7320    1.4340   -0.3390 C.3     1  UNL1        0.0430
      6  C          6.8030    0.6500   -0.9790 C.2     1  UNL1       -0.0440
      7  C          8.1490    1.0160   -0.8620 C.2     1  UNL1        0.0080
      8  C          6.4840   -0.4720   -1.7100 C.2     1  UNL1        0.0540
      9  C          9.1120    0.2420   -1.4840 C.2     1  UNL1        0.0510
     10  C          7.4610   -1.2520   -2.3360 C.2     1  UNL1        0.1660
     11  C          8.7860   -0.8920   -2.2220 C.2     1  UNL1        0.1650
     12  O          7.4010   -2.3940   -3.1060 O.2     1  UNL1       -0.4540
     13  O          9.5180   -1.8310   -2.9310 O.2     1  UNL1       -0.4540
     14  C          8.6880   -2.8510   -3.4320 C.3     1  UNL1        0.4680
@<TRIPOS>BOND
     1    14    12    1
     2    14    13    1
     3    12    10    1
     4    13    11    1
     5    10    11    2
     6    10     8    1
     7    11     9    1
     8     8     6    2
     9     9     7    2
    10     6     7    1
    11     6     5    1
    12     5     1    1
    13     1     2    1
    14     2     3    1
    15     2     4    2
