@<TRIPOS>MOLECULE
/home/cewinharhar/GITHUB/reincatalyze/data/processed/docking_pred/2023-May-25-1902_sub9_nm5_bs15_s42_ex16_mel10_mts10000_k50_ec01_g099_lra3e-4_lrc3e-3/46aa5159a95d0d08c04f597503a56ad94e9ef6ed_ligand_9.pdbqt
 14 15 0 0 0
SMALL
GASTEIGER

@<TRIPOS>ATOM
      1  C          5.7610    0.8230    0.4230 C.3     1  UNL1        0.0800
      2  C          5.4260    0.3110    1.7810 C.2     1  UNL1        0.1300
      3  C          6.2580   -0.7230    2.4520 C.3     1  UNL1        0.0870
      4  O          4.4530    0.7300    2.3870 O.2     1  UNL1       -0.3000
      5  C          7.2590    0.8420    0.1950 C.3     1  UNL1        0.0430
      6  C          7.6520   -0.0210   -0.9330 C.2     1  UNL1       -0.0440
      7  C          7.8390    0.4960   -2.2210 C.2     1  UNL1        0.0080
      8  C          7.8430   -1.3680   -0.7270 C.2     1  UNL1        0.0540
      9  C          8.2090   -0.3620   -3.2410 C.2     1  UNL1        0.0510
     10  C          8.2170   -2.2310   -1.7620 C.2     1  UNL1        0.1660
     11  C          8.4010   -1.7240   -3.0290 C.2     1  UNL1        0.1650
     12  O          8.4640   -3.5870   -1.8120 O.2     1  UNL1       -0.4540
     13  O          8.7620   -2.7890   -3.8390 O.2     1  UNL1       -0.4540
     14  C          8.9020   -3.9730   -3.0890 C.3     1  UNL1        0.4680
@<TRIPOS>BOND
     1    13    14    1
     2    13    11    1
     3     9    11    2
     4     9     7    1
     5    14    12    1
     6    11    10    1
     7     7     6    2
     8    12    10    1
     9    10     8    2
    10     6     8    1
    11     6     5    1
    12     5     1    1
    13     1     2    1
    14     2     4    2
    15     2     3    1
