@<TRIPOS>MOLECULE
/home/cewinharhar/GITHUB/reincatalyze/data/processed/docking_pred/2023-May-25-1902_sub9_nm5_bs15_s42_ex16_mel10_mts10000_k50_ec01_g099_lra3e-4_lrc3e-3/4907adade3a0a91bc8df442564f641a5838c63da_ligand_9.pdbqt
 14 15 0 0 0
SMALL
GASTEIGER

@<TRIPOS>ATOM
      1  C          5.7770    1.2820   -0.2820 C.3     1  UNL1        0.0800
      2  C          5.2100    1.1940    1.0920 C.2     1  UNL1        0.1300
      3  C          5.3050   -0.0530    1.8970 C.3     1  UNL1        0.0870
      4  O          4.6460    2.1490    1.6010 O.2     1  UNL1       -0.3000
      5  C          7.2770    1.0610   -0.2740 C.3     1  UNL1        0.0430
      6  C          7.6410   -0.2360   -0.8720 C.2     1  UNL1       -0.0440
      7  C          7.6710   -0.4210   -2.2590 C.2     1  UNL1        0.0080
      8  C          7.9630   -1.2970   -0.0560 C.2     1  UNL1        0.0540
      9  C          8.0210   -1.6610   -2.7630 C.2     1  UNL1        0.0510
     10  C          8.3170   -2.5480   -0.5710 C.2     1  UNL1        0.1660
     11  C          8.3460   -2.7310   -1.9360 C.2     1  UNL1        0.1650
     12  O          8.6730   -3.7410    0.0210 O.2     1  UNL1       -0.4540
     13  O          8.7240   -4.0460   -2.1550 O.2     1  UNL1       -0.4540
     14  C          9.0290   -4.6970   -0.9450 C.3     1  UNL1        0.4680
@<TRIPOS>BOND
     1     9     7    1
     2     9    11    2
     3     7     6    2
     4    13    11    1
     5    13    14    1
     6    11    10    1
     7    14    12    1
     8     6     5    1
     9     6     8    1
    10    10     8    2
    11    10    12    1
    12     1     5    1
    13     1     2    1
    14     2     4    2
    15     2     3    1
