@<TRIPOS>MOLECULE
/home/cewinharhar/GITHUB/reincatalyze/data/processed/docking_pred/2023-May-25-1902_sub9_nm5_bs15_s42_ex16_mel10_mts10000_k50_ec01_g099_lra3e-4_lrc3e-3/4907adade3a0a91bc8df442564f641a5838c63da_ligand_9.pdbqt
 14 15 0 0 0
SMALL
GASTEIGER

@<TRIPOS>ATOM
      1  C          5.5630    1.9150    1.2750 C.3     1  UNL1        0.0800
      2  C          5.1320    0.6970    2.0170 C.2     1  UNL1        0.1300
      3  C          6.0410   -0.4650    2.2060 C.3     1  UNL1        0.0870
      4  O          4.0110    0.6180    2.4940 O.2     1  UNL1       -0.3000
      5  C          5.4260    1.7240   -0.2220 C.3     1  UNL1        0.0430
      6  C          6.5880    1.0190   -0.7920 C.2     1  UNL1       -0.0440
      7  C          7.8980    1.4470   -0.5470 C.2     1  UNL1        0.0080
      8  C          6.3920   -0.0900   -1.5820 C.2     1  UNL1        0.0540
      9  C          8.9490    0.7450   -1.1080 C.2     1  UNL1        0.0510
     10  C          7.4580   -0.7970   -2.1460 C.2     1  UNL1        0.1660
     11  C          8.7470   -0.3760   -1.9070 C.2     1  UNL1        0.1650
     12  O          7.5240   -1.9120   -2.9550 O.2     1  UNL1       -0.4540
     13  O          9.5860   -1.2500   -2.5800 O.2     1  UNL1       -0.4540
     14  C          8.8570   -2.2920   -3.1830 C.3     1  UNL1        0.4680
@<TRIPOS>BOND
     1    14    12    1
     2    14    13    1
     3    12    10    1
     4    13    11    1
     5    10    11    2
     6    10     8    1
     7    11     9    1
     8     8     6    2
     9     9     7    2
    10     6     7    1
    11     6     5    1
    12     5     1    1
    13     1     2    1
    14     2     3    1
    15     2     4    2
