@<TRIPOS>MOLECULE
/home/cewinharhar/GITHUB/reincatalyze/data/processed/docking_pred/2023-May-25-1902_sub9_nm5_bs15_s42_ex16_mel10_mts10000_k50_ec01_g099_lra3e-4_lrc3e-3/4907adade3a0a91bc8df442564f641a5838c63da_ligand_9.pdbqt
 14 15 0 0 0
SMALL
GASTEIGER

@<TRIPOS>ATOM
      1  C          6.9450    1.0600    1.2430 C.3     1  UNL1        0.0800
      2  C          5.4710    1.1840    1.4200 C.2     1  UNL1        0.1300
      3  C          4.6670    2.1500    0.6240 C.3     1  UNL1        0.0870
      4  O          4.8760    0.4910    2.2300 O.2     1  UNL1       -0.3000
      5  C          7.3370    1.1930   -0.2150 C.3     1  UNL1        0.0430
      6  C          7.6780   -0.1120   -0.8100 C.2     1  UNL1       -0.0440
      7  C          7.7580   -0.2860   -2.1970 C.2     1  UNL1        0.0080
      8  C          7.9290   -1.1900    0.0070 C.2     1  UNL1        0.0540
      9  C          8.0840   -1.5330   -2.6980 C.2     1  UNL1        0.0510
     10  C          8.2590   -2.4490   -0.5040 C.2     1  UNL1        0.1660
     11  C          8.3360   -2.6220   -1.8680 C.2     1  UNL1        0.1650
     12  O          8.5470   -3.6590    0.0900 O.2     1  UNL1       -0.4540
     13  O          8.6750   -3.9480   -2.0850 O.2     1  UNL1       -0.4540
     14  C          8.9080   -4.6190   -0.8700 C.3     1  UNL1        0.4680
@<TRIPOS>BOND
     1     9     7    1
     2     9    11    2
     3     7     6    2
     4    13    11    1
     5    13    14    1
     6    11    10    1
     7    14    12    1
     8     6     5    1
     9     6     8    1
    10    10     8    2
    11    10    12    1
    12     5     1    1
    13     3     2    1
    14     1     2    1
    15     2     4    2
