MODEL 1
REMARK VINA RESULT:      -7.6      0.000      0.000
REMARK SMILES CC(=O)CCc1ccc2c(c1)OCO2
REMARK SMILES IDX 4 1 2 2 1 3 3 4 5 5 6 6 7 7 11 8 8 9 10 10 9 11 12 12 14 13
REMARK SMILES IDX 13 14
REMARK H PARENT
REMARK Flexibility Score: inf
ROOT
ATOM      1  C   UNL     1       5.563   1.915   1.275  1.00  0.00     0.080 C 
ENDROOT
BRANCH   1   2
ATOM      2  C   UNL     1       5.132   0.697   2.017  1.00  0.00     0.130 C 
ATOM      3  C   UNL     1       6.041  -0.465   2.206  1.00  0.00     0.087 C 
ATOM      4  O   UNL     1       4.011   0.618   2.494  1.00  0.00    -0.300 OA
ENDBRANCH   1   2
BRANCH   1   5
ATOM      5  C   UNL     1       5.426   1.724  -0.222  1.00  0.00     0.043 C 
BRANCH   5   6
ATOM      6  C   UNL     1       6.588   1.019  -0.792  1.00  0.00    -0.044 A 
ATOM      7  C   UNL     1       7.898   1.447  -0.547  1.00  0.00     0.008 A 
ATOM      8  C   UNL     1       6.392  -0.090  -1.582  1.00  0.00     0.054 A 
ATOM      9  C   UNL     1       8.949   0.745  -1.108  1.00  0.00     0.051 A 
ATOM     10  C   UNL     1       7.458  -0.797  -2.146  1.00  0.00     0.166 A 
ATOM     11  C   UNL     1       8.747  -0.376  -1.907  1.00  0.00     0.165 A 
ATOM     12  O   UNL     1       7.524  -1.912  -2.955  1.00  0.00    -0.454 OA
ATOM     13  O   UNL     1       9.586  -1.250  -2.580  1.00  0.00    -0.454 OA
ATOM     14  C   UNL     1       8.857  -2.292  -3.183  1.00  0.00     0.468 C 
ENDBRANCH   5   6
ENDBRANCH   1   5
TORSDOF 3
ENDMDL
MODEL 2
REMARK VINA RESULT:      -7.3      1.952      2.421
REMARK SMILES CC(=O)CCc1ccc2c(c1)OCO2
REMARK SMILES IDX 4 1 2 2 1 3 3 4 5 5 6 6 7 7 11 8 8 9 10 10 9 11 12 12 14 13
REMARK SMILES IDX 13 14
REMARK H PARENT
REMARK Flexibility Score: inf
ROOT
ATOM      1  C   UNL     1       5.777   1.282  -0.282  1.00  0.00     0.080 C 
ENDROOT
BRANCH   1   2
ATOM      2  C   UNL     1       5.210   1.194   1.092  1.00  0.00     0.130 C 
ATOM      3  C   UNL     1       5.305  -0.053   1.897  1.00  0.00     0.087 C 
ATOM      4  O   UNL     1       4.646   2.149   1.601  1.00  0.00    -0.300 OA
ENDBRANCH   1   2
BRANCH   1   5
ATOM      5  C   UNL     1       7.277   1.061  -0.274  1.00  0.00     0.043 C 
BRANCH   5   6
ATOM      6  C   UNL     1       7.641  -0.236  -0.872  1.00  0.00    -0.044 A 
ATOM      7  C   UNL     1       7.671  -0.421  -2.259  1.00  0.00     0.008 A 
ATOM      8  C   UNL     1       7.963  -1.297  -0.056  1.00  0.00     0.054 A 
ATOM      9  C   UNL     1       8.021  -1.661  -2.763  1.00  0.00     0.051 A 
ATOM     10  C   UNL     1       8.317  -2.548  -0.571  1.00  0.00     0.166 A 
ATOM     11  C   UNL     1       8.346  -2.731  -1.936  1.00  0.00     0.165 A 
ATOM     12  O   UNL     1       8.673  -3.741   0.021  1.00  0.00    -0.454 OA
ATOM     13  O   UNL     1       8.724  -4.046  -2.155  1.00  0.00    -0.454 OA
ATOM     14  C   UNL     1       9.029  -4.697  -0.945  1.00  0.00     0.468 C 
ENDBRANCH   5   6
ENDBRANCH   1   5
TORSDOF 3
ENDMDL
MODEL 3
REMARK VINA RESULT:      -7.2      2.044      2.600
REMARK SMILES CC(=O)CCc1ccc2c(c1)OCO2
REMARK SMILES IDX 4 1 2 2 1 3 3 4 5 5 6 6 7 7 11 8 8 9 10 10 9 11 12 12 14 13
REMARK SMILES IDX 13 14
REMARK H PARENT
REMARK Flexibility Score: inf
ROOT
ATOM      1  C   UNL     1       5.471  -0.017   2.003  1.00  0.00     0.080 C 
ENDROOT
BRANCH   1   2
ATOM      2  C   UNL     1       4.588   1.155   1.751  1.00  0.00     0.130 C 
ATOM      3  C   UNL     1       4.879   2.134   0.670  1.00  0.00     0.087 C 
ATOM      4  O   UNL     1       3.592   1.347   2.430  1.00  0.00    -0.300 OA
ENDBRANCH   1   2
BRANCH   1   5
ATOM      5  C   UNL     1       6.888   0.250   1.535  1.00  0.00     0.043 C 
BRANCH   5   6
ATOM      6  C   UNL     1       7.301  -0.691   0.478  1.00  0.00    -0.044 A 
ATOM      7  C   UNL     1       7.168  -0.374  -0.878  1.00  0.00     0.008 A 
ATOM      8  C   UNL     1       7.834  -1.912   0.823  1.00  0.00     0.054 A 
ATOM      9  C   UNL     1       7.574  -1.296  -1.826  1.00  0.00     0.051 A 
ATOM     10  C   UNL     1       8.243  -2.841  -0.139  1.00  0.00     0.166 A 
ATOM     11  C   UNL     1       8.112  -2.530  -1.474  1.00  0.00     0.165 A 
ATOM     12  O   UNL     1       8.793  -4.102  -0.053  1.00  0.00    -0.454 OA
ATOM     13  O   UNL     1       8.590  -3.618  -2.188  1.00  0.00    -0.454 OA
ATOM     14  C   UNL     1       9.115  -4.600  -1.326  1.00  0.00     0.468 C 
ENDBRANCH   5   6
ENDBRANCH   1   5
TORSDOF 3
ENDMDL
MODEL 4
REMARK VINA RESULT:      -7.1      1.249      1.459
REMARK SMILES CC(=O)CCc1ccc2c(c1)OCO2
REMARK SMILES IDX 4 1 2 2 1 3 3 4 5 5 6 6 7 7 11 8 8 9 10 10 9 11 12 12 14 13
REMARK SMILES IDX 13 14
REMARK H PARENT
REMARK Flexibility Score: inf
ROOT
ATOM      1  C   UNL     1       6.384   1.192   0.933  1.00  0.00     0.080 C 
ENDROOT
BRANCH   1   2
ATOM      2  C   UNL     1       5.664   0.374   1.948  1.00  0.00     0.130 C 
ATOM      3  C   UNL     1       6.259  -0.864   2.519  1.00  0.00     0.087 C 
ATOM      4  O   UNL     1       4.555   0.698   2.343  1.00  0.00    -0.300 OA
ENDBRANCH   1   2
BRANCH   1   5
ATOM      5  C   UNL     1       5.871   0.911  -0.465  1.00  0.00     0.043 C 
BRANCH   5   6
ATOM      6  C   UNL     1       6.817   0.090  -1.241  1.00  0.00    -0.044 A 
ATOM      7  C   UNL     1       7.496   0.605  -2.351  1.00  0.00     0.008 A 
ATOM      8  C   UNL     1       7.050  -1.215  -0.871  1.00  0.00     0.054 A 
ATOM      9  C   UNL     1       8.373  -0.213  -3.040  1.00  0.00     0.051 A 
ATOM     10  C   UNL     1       7.938  -2.038  -1.570  1.00  0.00     0.166 A 
ATOM     11  C   UNL     1       8.605  -1.532  -2.664  1.00  0.00     0.165 A 
ATOM     12  O   UNL     1       8.334  -3.348  -1.405  1.00  0.00    -0.454 OA
ATOM     13  O   UNL     1       9.406  -2.553  -3.152  1.00  0.00    -0.454 OA
ATOM     14  C   UNL     1       9.334  -3.693  -2.330  1.00  0.00     0.468 C 
ENDBRANCH   5   6
ENDBRANCH   1   5
TORSDOF 3
ENDMDL
MODEL 5
REMARK VINA RESULT:      -7.0      1.949      2.477
REMARK SMILES CC(=O)CCc1ccc2c(c1)OCO2
REMARK SMILES IDX 4 1 2 2 1 3 3 4 5 5 6 6 7 7 11 8 8 9 10 10 9 11 12 12 14 13
REMARK SMILES IDX 13 14
REMARK H PARENT
REMARK Flexibility Score: inf
ROOT
ATOM      1  C   UNL     1       6.945   1.060   1.243  1.00  0.00     0.080 C 
ENDROOT
BRANCH   1   2
ATOM      2  C   UNL     1       5.471   1.184   1.420  1.00  0.00     0.130 C 
ATOM      3  C   UNL     1       4.667   2.150   0.624  1.00  0.00     0.087 C 
ATOM      4  O   UNL     1       4.876   0.491   2.230  1.00  0.00    -0.300 OA
ENDBRANCH   1   2
BRANCH   1   5
ATOM      5  C   UNL     1       7.337   1.193  -0.215  1.00  0.00     0.043 C 
BRANCH   5   6
ATOM      6  C   UNL     1       7.678  -0.112  -0.810  1.00  0.00    -0.044 A 
ATOM      7  C   UNL     1       7.758  -0.286  -2.197  1.00  0.00     0.008 A 
ATOM      8  C   UNL     1       7.929  -1.190   0.007  1.00  0.00     0.054 A 
ATOM      9  C   UNL     1       8.084  -1.533  -2.698  1.00  0.00     0.051 A 
ATOM     10  C   UNL     1       8.259  -2.449  -0.504  1.00  0.00     0.166 A 
ATOM     11  C   UNL     1       8.336  -2.622  -1.868  1.00  0.00     0.165 A 
ATOM     12  O   UNL     1       8.547  -3.659   0.090  1.00  0.00    -0.454 OA
ATOM     13  O   UNL     1       8.675  -3.948  -2.085  1.00  0.00    -0.454 OA
ATOM     14  C   UNL     1       8.908  -4.619  -0.870  1.00  0.00     0.468 C 
ENDBRANCH   5   6
ENDBRANCH   1   5
TORSDOF 3
ENDMDL
