@<TRIPOS>MOLECULE
/home/cewinharhar/GITHUB/reincatalyze/data/processed/docking_pred/2023-May-25-1902_sub9_nm5_bs15_s42_ex16_mel10_mts10000_k50_ec01_g099_lra3e-4_lrc3e-3/4907adade3a0a91bc8df442564f641a5838c63da_ligand_9.pdbqt
 14 15 0 0 0
SMALL
GASTEIGER

@<TRIPOS>ATOM
      1  C          5.4710   -0.0170    2.0030 C.3     1  UNL1        0.0800
      2  C          4.5880    1.1550    1.7510 C.2     1  UNL1        0.1300
      3  C          4.8790    2.1340    0.6700 C.3     1  UNL1        0.0870
      4  O          3.5920    1.3470    2.4300 O.2     1  UNL1       -0.3000
      5  C          6.8880    0.2500    1.5350 C.3     1  UNL1        0.0430
      6  C          7.3010   -0.6910    0.4780 C.2     1  UNL1       -0.0440
      7  C          7.1680   -0.3740   -0.8780 C.2     1  UNL1        0.0080
      8  C          7.8340   -1.9120    0.8230 C.2     1  UNL1        0.0540
      9  C          7.5740   -1.2960   -1.8260 C.2     1  UNL1        0.0510
     10  C          8.2430   -2.8410   -0.1390 C.2     1  UNL1        0.1660
     11  C          8.1120   -2.5300   -1.4740 C.2     1  UNL1        0.1650
     12  O          8.7930   -4.1020   -0.0530 O.2     1  UNL1       -0.4540
     13  O          8.5900   -3.6180   -2.1880 O.2     1  UNL1       -0.4540
     14  C          9.1150   -4.6000   -1.3260 C.3     1  UNL1        0.4680
@<TRIPOS>BOND
     1    13    11    1
     2    13    14    1
     3     9    11    2
     4     9     7    1
     5    11    10    1
     6    14    12    1
     7     7     6    2
     8    10    12    1
     9    10     8    2
    10     6     8    1
    11     6     5    1
    12     3     2    1
    13     5     1    1
    14     2     1    1
    15     2     4    2
