@<TRIPOS>MOLECULE
/home/cewinharhar/GITHUB/reincatalyze/data/processed/docking_pred/2023-May-25-1902_sub9_nm5_bs15_s42_ex16_mel10_mts10000_k50_ec01_g099_lra3e-4_lrc3e-3/4907adade3a0a91bc8df442564f641a5838c63da_ligand_9.pdbqt
 14 15 0 0 0
SMALL
GASTEIGER

@<TRIPOS>ATOM
      1  C          6.3840    1.1920    0.9330 C.3     1  UNL1        0.0800
      2  C          5.6640    0.3740    1.9480 C.2     1  UNL1        0.1300
      3  C          6.2590   -0.8640    2.5190 C.3     1  UNL1        0.0870
      4  O          4.5550    0.6980    2.3430 O.2     1  UNL1       -0.3000
      5  C          5.8710    0.9110   -0.4650 C.3     1  UNL1        0.0430
      6  C          6.8170    0.0900   -1.2410 C.2     1  UNL1       -0.0440
      7  C          7.4960    0.6050   -2.3510 C.2     1  UNL1        0.0080
      8  C          7.0500   -1.2150   -0.8710 C.2     1  UNL1        0.0540
      9  C          8.3730   -0.2130   -3.0400 C.2     1  UNL1        0.0510
     10  C          7.9380   -2.0380   -1.5700 C.2     1  UNL1        0.1660
     11  C          8.6050   -1.5320   -2.6640 C.2     1  UNL1        0.1650
     12  O          8.3340   -3.3480   -1.4050 O.2     1  UNL1       -0.4540
     13  O          9.4060   -2.5530   -3.1520 O.2     1  UNL1       -0.4540
     14  C          9.3340   -3.6930   -2.3300 C.3     1  UNL1        0.4680
@<TRIPOS>BOND
     1    13    11    1
     2    13    14    1
     3     9    11    2
     4     9     7    1
     5    11    10    1
     6     7     6    2
     7    14    12    1
     8    10    12    1
     9    10     8    2
    10     6     8    1
    11     6     5    1
    12     5     1    1
    13     1     2    1
    14     2     4    2
    15     2     3    1
