@<TRIPOS>MOLECULE
/home/cewinharhar/GITHUB/reincatalyze/data/processed/docking_pred/2023-May-25-1902_sub9_nm5_bs15_s42_ex16_mel10_mts10000_k50_ec01_g099_lra3e-4_lrc3e-3/49b3117837231080fe644fe44c00424f4b8d2b91_ligand_9.pdbqt
 14 15 0 0 0
SMALL
GASTEIGER

@<TRIPOS>ATOM
      1  C          5.5570    1.9160    1.2800 C.3     1  UNL1        0.0800
      2  C          5.1250    0.6980    2.0200 C.2     1  UNL1        0.1300
      3  C          6.0310   -0.4680    2.2000 C.3     1  UNL1        0.0870
      4  O          4.0070    0.6210    2.5040 O.2     1  UNL1       -0.3000
      5  C          5.4210    1.7270   -0.2180 C.3     1  UNL1        0.0430
      6  C          6.5850    1.0250   -0.7870 C.2     1  UNL1       -0.0440
      7  C          7.8940    1.4540   -0.5400 C.2     1  UNL1        0.0080
      8  C          6.3910   -0.0830   -1.5810 C.2     1  UNL1        0.0540
      9  C          8.9470    0.7550   -1.1010 C.2     1  UNL1        0.0510
     10  C          7.4590   -0.7870   -2.1460 C.2     1  UNL1        0.1660
     11  C          8.7470   -0.3640   -1.9030 C.2     1  UNL1        0.1650
     12  O          7.5270   -1.8990   -2.9570 O.2     1  UNL1       -0.4540
     13  O          9.5880   -1.2360   -2.5770 O.2     1  UNL1       -0.4540
     14  C          8.8610   -2.2770   -3.1840 C.3     1  UNL1        0.4680
@<TRIPOS>BOND
     1    14    12    1
     2    14    13    1
     3    12    10    1
     4    13    11    1
     5    10    11    2
     6    10     8    1
     7    11     9    1
     8     8     6    2
     9     9     7    2
    10     6     7    1
    11     6     5    1
    12     5     1    1
    13     1     2    1
    14     2     3    1
    15     2     4    2
