MODEL 1
REMARK VINA RESULT:      -7.6      0.000      0.000
REMARK SMILES CC(=O)CCc1ccc2c(c1)OCO2
REMARK SMILES IDX 4 1 2 2 1 3 3 4 5 5 6 6 7 7 11 8 8 9 10 10 9 11 12 12 14 13
REMARK SMILES IDX 13 14
REMARK H PARENT
REMARK Flexibility Score: inf
ROOT
ATOM      1  C   UNL     1       5.557   1.916   1.280  1.00  0.00     0.080 C 
ENDROOT
BRANCH   1   2
ATOM      2  C   UNL     1       5.125   0.698   2.020  1.00  0.00     0.130 C 
ATOM      3  C   UNL     1       6.031  -0.468   2.200  1.00  0.00     0.087 C 
ATOM      4  O   UNL     1       4.007   0.621   2.504  1.00  0.00    -0.300 OA
ENDBRANCH   1   2
BRANCH   1   5
ATOM      5  C   UNL     1       5.421   1.727  -0.218  1.00  0.00     0.043 C 
BRANCH   5   6
ATOM      6  C   UNL     1       6.585   1.025  -0.787  1.00  0.00    -0.044 A 
ATOM      7  C   UNL     1       7.894   1.454  -0.540  1.00  0.00     0.008 A 
ATOM      8  C   UNL     1       6.391  -0.083  -1.581  1.00  0.00     0.054 A 
ATOM      9  C   UNL     1       8.947   0.755  -1.101  1.00  0.00     0.051 A 
ATOM     10  C   UNL     1       7.459  -0.787  -2.146  1.00  0.00     0.166 A 
ATOM     11  C   UNL     1       8.747  -0.364  -1.903  1.00  0.00     0.165 A 
ATOM     12  O   UNL     1       7.527  -1.899  -2.957  1.00  0.00    -0.454 OA
ATOM     13  O   UNL     1       9.588  -1.236  -2.577  1.00  0.00    -0.454 OA
ATOM     14  C   UNL     1       8.861  -2.277  -3.184  1.00  0.00     0.468 C 
ENDBRANCH   5   6
ENDBRANCH   1   5
TORSDOF 3
ENDMDL
MODEL 2
REMARK VINA RESULT:      -7.4      1.966      2.477
REMARK SMILES CC(=O)CCc1ccc2c(c1)OCO2
REMARK SMILES IDX 4 1 2 2 1 3 3 4 5 5 6 6 7 7 11 8 8 9 10 10 9 11 12 12 14 13
REMARK SMILES IDX 13 14
REMARK H PARENT
REMARK Flexibility Score: inf
ROOT
ATOM      1  C   UNL     1       5.816   1.135  -0.341  1.00  0.00     0.080 C 
ENDROOT
BRANCH   1   2
ATOM      2  C   UNL     1       5.317   1.192   1.062  1.00  0.00     0.130 C 
ATOM      3  C   UNL     1       5.577   0.093   2.029  1.00  0.00     0.087 C 
ATOM      4  O   UNL     1       4.673   2.150   1.459  1.00  0.00    -0.300 OA
ENDBRANCH   1   2
BRANCH   1   5
ATOM      5  C   UNL     1       7.323   0.970  -0.382  1.00  0.00     0.043 C 
BRANCH   5   6
ATOM      6  C   UNL     1       7.715  -0.326  -0.964  1.00  0.00    -0.044 A 
ATOM      7  C   UNL     1       7.856  -0.495  -2.346  1.00  0.00     0.008 A 
ATOM      8  C   UNL     1       7.953  -1.401  -0.138  1.00  0.00     0.054 A 
ATOM      9  C   UNL     1       8.228  -1.735  -2.835  1.00  0.00     0.051 A 
ATOM     10  C   UNL     1       8.329  -2.651  -0.638  1.00  0.00     0.166 A 
ATOM     11  C   UNL     1       8.467  -2.819  -1.997  1.00  0.00     0.165 A 
ATOM     12  O   UNL     1       8.617  -3.857  -0.033  1.00  0.00    -0.454 OA
ATOM     13  O   UNL     1       8.842  -4.138  -2.202  1.00  0.00    -0.454 OA
ATOM     14  C   UNL     1       9.036  -4.807  -0.979  1.00  0.00     0.468 C 
ENDBRANCH   5   6
ENDBRANCH   1   5
TORSDOF 3
ENDMDL
MODEL 3
REMARK VINA RESULT:      -7.2      2.059      2.634
REMARK SMILES CC(=O)CCc1ccc2c(c1)OCO2
REMARK SMILES IDX 4 1 2 2 1 3 3 4 5 5 6 6 7 7 11 8 8 9 10 10 9 11 12 12 14 13
REMARK SMILES IDX 13 14
REMARK H PARENT
REMARK Flexibility Score: inf
ROOT
ATOM      1  C   UNL     1       5.399  -0.061   2.015  1.00  0.00     0.080 C 
ENDROOT
BRANCH   1   2
ATOM      2  C   UNL     1       4.561   1.145   1.767  1.00  0.00     0.130 C 
ATOM      3  C   UNL     1       4.906   2.132   0.709  1.00  0.00     0.087 C 
ATOM      4  O   UNL     1       3.560   1.360   2.432  1.00  0.00    -0.300 OA
ENDBRANCH   1   2
BRANCH   1   5
ATOM      5  C   UNL     1       6.842   0.179   1.616  1.00  0.00     0.043 C 
BRANCH   5   6
ATOM      6  C   UNL     1       7.275  -0.741   0.550  1.00  0.00    -0.044 A 
ATOM      7  C   UNL     1       7.154  -0.404  -0.803  1.00  0.00     0.008 A 
ATOM      8  C   UNL     1       7.815  -1.963   0.881  1.00  0.00     0.054 A 
ATOM      9  C   UNL     1       7.578  -1.308  -1.761  1.00  0.00     0.051 A 
ATOM     10  C   UNL     1       8.243  -2.873  -0.091  1.00  0.00     0.166 A 
ATOM     11  C   UNL     1       8.123  -2.543  -1.422  1.00  0.00     0.165 A 
ATOM     12  O   UNL     1       8.803  -4.130  -0.018  1.00  0.00    -0.454 OA
ATOM     13  O   UNL     1       8.618  -3.615  -2.147  1.00  0.00    -0.454 OA
ATOM     14  C   UNL     1       9.144  -4.605  -1.296  1.00  0.00     0.468 C 
ENDBRANCH   5   6
ENDBRANCH   1   5
TORSDOF 3
ENDMDL
MODEL 4
REMARK VINA RESULT:      -7.1      1.254      1.468
REMARK SMILES CC(=O)CCc1ccc2c(c1)OCO2
REMARK SMILES IDX 4 1 2 2 1 3 3 4 5 5 6 6 7 7 11 8 8 9 10 10 9 11 12 12 14 13
REMARK SMILES IDX 13 14
REMARK H PARENT
REMARK Flexibility Score: inf
ROOT
ATOM      1  C   UNL     1       6.411   1.197   0.941  1.00  0.00     0.080 C 
ENDROOT
BRANCH   1   2
ATOM      2  C   UNL     1       5.677   0.361   1.931  1.00  0.00     0.130 C 
ATOM      3  C   UNL     1       6.273  -0.876   2.504  1.00  0.00     0.087 C 
ATOM      4  O   UNL     1       4.556   0.669   2.302  1.00  0.00    -0.300 OA
ENDBRANCH   1   2
BRANCH   1   5
ATOM      5  C   UNL     1       5.905   0.954  -0.468  1.00  0.00     0.043 C 
BRANCH   5   6
ATOM      6  C   UNL     1       6.835   0.116  -1.246  1.00  0.00    -0.044 A 
ATOM      7  C   UNL     1       7.512   0.616  -2.364  1.00  0.00     0.008 A 
ATOM      8  C   UNL     1       7.052  -1.190  -0.871  1.00  0.00     0.054 A 
ATOM      9  C   UNL     1       8.372  -0.217  -3.055  1.00  0.00     0.051 A 
ATOM     10  C   UNL     1       7.923  -2.029  -1.573  1.00  0.00     0.166 A 
ATOM     11  C   UNL     1       8.589  -1.538  -2.674  1.00  0.00     0.165 A 
ATOM     12  O   UNL     1       8.303  -3.343  -1.403  1.00  0.00    -0.454 OA
ATOM     13  O   UNL     1       9.372  -2.572  -3.163  1.00  0.00    -0.454 OA
ATOM     14  C   UNL     1       9.290  -3.707  -2.334  1.00  0.00     0.468 C 
ENDBRANCH   5   6
ENDBRANCH   1   5
TORSDOF 3
ENDMDL
MODEL 5
REMARK VINA RESULT:      -7.0      1.972      2.487
REMARK SMILES CC(=O)CCc1ccc2c(c1)OCO2
REMARK SMILES IDX 4 1 2 2 1 3 3 4 5 5 6 6 7 7 11 8 8 9 10 10 9 11 12 12 14 13
REMARK SMILES IDX 13 14
REMARK H PARENT
REMARK Flexibility Score: inf
ROOT
ATOM      1  C   UNL     1       6.829   0.949   1.354  1.00  0.00     0.080 C 
ENDROOT
BRANCH   1   2
ATOM      2  C   UNL     1       5.357   1.159   1.442  1.00  0.00     0.130 C 
ATOM      3  C   UNL     1       4.656   2.146   0.577  1.00  0.00     0.087 C 
ATOM      4  O   UNL     1       4.678   0.523   2.232  1.00  0.00    -0.300 OA
ENDBRANCH   1   2
BRANCH   1   5
ATOM      5  C   UNL     1       7.328   1.138  -0.065  1.00  0.00     0.043 C 
BRANCH   5   6
ATOM      6  C   UNL     1       7.674  -0.148  -0.698  1.00  0.00    -0.044 A 
ATOM      7  C   UNL     1       7.729  -0.288  -2.089  1.00  0.00     0.008 A 
ATOM      8  C   UNL     1       7.954  -1.242   0.089  1.00  0.00     0.054 A 
ATOM      9  C   UNL     1       8.060  -1.518  -2.627  1.00  0.00     0.051 A 
ATOM     10  C   UNL     1       8.289  -2.484  -0.460  1.00  0.00     0.166 A 
ATOM     11  C   UNL     1       8.342  -2.623  -1.829  1.00  0.00     0.165 A 
ATOM     12  O   UNL     1       8.605  -3.704   0.099  1.00  0.00    -0.454 OA
ATOM     13  O   UNL     1       8.694  -3.939  -2.084  1.00  0.00    -0.454 OA
ATOM     14  C   UNL     1       8.958  -4.636  -0.890  1.00  0.00     0.468 C 
ENDBRANCH   5   6
ENDBRANCH   1   5
TORSDOF 3
ENDMDL
