@<TRIPOS>MOLECULE
/home/cewinharhar/GITHUB/reincatalyze/data/processed/docking_pred/2023-May-25-1902_sub9_nm5_bs15_s42_ex16_mel10_mts10000_k50_ec01_g099_lra3e-4_lrc3e-3/4a3a178b6a4326eb13634b12f3ce9c4ec26f8538_ligand_9.pdbqt
 14 15 0 0 0
SMALL
GASTEIGER

@<TRIPOS>ATOM
      1  C          6.1590    1.7330    0.2740 C.3     1  UNL1        0.0800
      2  C          5.2380    1.2050    1.3190 C.2     1  UNL1        0.1300
      3  C          5.4700   -0.1120    1.9710 C.3     1  UNL1        0.0870
      4  O          4.2590    1.8420    1.6720 O.2     1  UNL1       -0.3000
      5  C          6.0460    0.9380   -1.0120 C.3     1  UNL1        0.0430
      6  C          7.2100    0.0560   -1.2120 C.2     1  UNL1       -0.0440
      7  C          7.1700   -1.0170   -2.1100 C.2     1  UNL1        0.0080
      8  C          8.3690    0.2860   -0.5070 C.2     1  UNL1        0.0540
      9  C          8.2940   -1.8100   -2.2580 C.2     1  UNL1        0.0510
     10  C          9.5030   -0.5190   -0.6600 C.2     1  UNL1        0.1660
     11  C          9.4640   -1.5760   -1.5430 C.2     1  UNL1        0.1650
     12  O         10.7550   -0.4980   -0.0840 O.2     1  UNL1       -0.4540
     13  O         10.7070   -2.1880   -1.4890 O.2     1  UNL1       -0.4540
     14  C         11.5850   -1.4820   -0.6450 C.3     1  UNL1        0.4680
@<TRIPOS>BOND
     1     9     7    1
     2     9    11    2
     3     7     6    2
     4    11    13    1
     5    11    10    1
     6    13    14    1
     7     6     5    1
     8     6     8    1
     9     5     1    1
    10    10     8    2
    11    10    12    1
    12    14    12    1
    13     1     2    1
    14     2     4    2
    15     2     3    1
