@<TRIPOS>MOLECULE
/home/cewinharhar/GITHUB/reincatalyze/data/processed/docking_pred/2023-May-25-1902_sub9_nm5_bs15_s42_ex16_mel10_mts10000_k50_ec01_g099_lra3e-4_lrc3e-3/4a3a178b6a4326eb13634b12f3ce9c4ec26f8538_ligand_9.pdbqt
 14 15 0 0 0
SMALL
GASTEIGER

@<TRIPOS>ATOM
      1  C          5.8110    1.6060    0.8390 C.3     1  UNL1        0.0800
      2  C          5.3850    0.5960    1.8470 C.2     1  UNL1        0.1300
      3  C          6.2570   -0.5490    2.2220 C.3     1  UNL1        0.0870
      4  O          4.2990    0.6800    2.3980 O.2     1  UNL1       -0.3000
      5  C          5.7280    1.0480   -0.5680 C.3     1  UNL1        0.0430
      6  C          6.9880    0.3990   -0.9730 C.2     1  UNL1       -0.0440
      7  C          8.2300    1.0050   -0.7520 C.2     1  UNL1        0.0080
      8  C          6.9540   -0.8350   -1.5830 C.2     1  UNL1        0.0540
      9  C          9.3790    0.3480   -1.1530 C.2     1  UNL1        0.0510
     10  C          8.1190   -1.4950   -1.9860 C.2     1  UNL1        0.1660
     11  C          9.3410   -0.8980   -1.7690 C.2     1  UNL1        0.1650
     12  O          8.3460   -2.7070   -2.6030 O.2     1  UNL1       -0.4540
     13  O         10.3030   -1.7660   -2.2620 O.2     1  UNL1       -0.4540
     14  C          9.7220   -2.9650   -2.7170 C.3     1  UNL1        0.4680
@<TRIPOS>BOND
     1    14    12    1
     2    14    13    1
     3    12    10    1
     4    13    11    1
     5    10    11    2
     6    10     8    1
     7    11     9    1
     8     8     6    2
     9     9     7    2
    10     6     7    1
    11     6     5    1
    12     5     1    1
    13     1     2    1
    14     2     3    1
    15     2     4    2
