@<TRIPOS>MOLECULE
/home/cewinharhar/GITHUB/reincatalyze/data/processed/docking_pred/2023-May-25-1902_sub9_nm5_bs15_s42_ex16_mel10_mts10000_k50_ec01_g099_lra3e-4_lrc3e-3/4c3a486d5bbb1ad3c8ce5b6da142191fd088767a_ligand_9.pdbqt
 14 15 0 0 0
SMALL
GASTEIGER

@<TRIPOS>ATOM
      1  C          6.4140    0.4350   -0.8810 C.3     1  UNL1        0.0800
      2  C          7.0660   -0.3820   -1.9420 C.2     1  UNL1        0.1300
      3  C          8.1800    0.1560   -2.7680 C.3     1  UNL1        0.0870
      4  O          6.7010   -1.5250   -2.1650 O.2     1  UNL1       -0.3000
      5  C          6.6380   -0.1650    0.4920 C.3     1  UNL1        0.0430
      6  C          7.8370    0.3920    1.1430 C.2     1  UNL1       -0.0440
      7  C          7.7900    1.5910    1.8620 C.2     1  UNL1        0.0080
      8  C          9.0360   -0.2770    1.0500 C.2     1  UNL1        0.0540
      9  C          8.9470    2.0650    2.4530 C.2     1  UNL1        0.0510
     10  C         10.2030    0.2060    1.6500 C.2     1  UNL1        0.1660
     11  C         10.1590    1.3870    2.3560 C.2     1  UNL1        0.1650
     12  O         11.4980   -0.2660    1.7000 O.2     1  UNL1       -0.4540
     13  O         11.4400    1.6180    2.8320 O.2     1  UNL1       -0.4540
     14  C         12.3000    0.5490    2.5170 C.3     1  UNL1        0.4680
@<TRIPOS>BOND
     1     3     2    1
     2     4     2    2
     3     2     1    1
     4     1     5    1
     5     5     6    1
     6     8     6    2
     7     8    10    1
     8     6     7    1
     9    10    12    1
    10    10    11    2
    11    12    14    1
    12     7     9    2
    13    11     9    1
    14    11    13    1
    15    14    13    1
