@<TRIPOS>MOLECULE
/home/cewinharhar/GITHUB/reincatalyze/data/processed/docking_pred/2023-May-25-1902_sub9_nm5_bs15_s42_ex16_mel10_mts10000_k50_ec01_g099_lra3e-4_lrc3e-3/4c3a486d5bbb1ad3c8ce5b6da142191fd088767a_ligand_9.pdbqt
 14 15 0 0 0
SMALL
GASTEIGER

@<TRIPOS>ATOM
      1  C          5.7960    0.6750    0.3240 C.3     1  UNL1        0.0800
      2  C          5.5040    0.1920    1.7020 C.2     1  UNL1        0.1300
      3  C          6.2450   -0.9500    2.3030 C.3     1  UNL1        0.0870
      4  O          4.6420    0.7230    2.3830 O.2     1  UNL1       -0.3000
      5  C          6.5810    1.9710    0.3490 C.3     1  UNL1        0.0430
      6  C          8.0100    1.7390    0.6260 C.2     1  UNL1       -0.0440
      7  C          8.8590    1.1710   -0.3300 C.2     1  UNL1        0.0080
      8  C          8.5320    2.0880    1.8510 C.2     1  UNL1        0.0540
      9  C         10.1920    0.9770   -0.0140 C.2     1  UNL1        0.0510
     10  C          9.8800    1.8910    2.1650 C.2     1  UNL1        0.1660
     11  C         10.7170    1.3310    1.2250 C.2     1  UNL1        0.1650
     12  O         10.6290    2.1480    3.2940 O.2     1  UNL1       -0.4540
     13  O         11.9750    1.2560    1.8020 O.2     1  UNL1       -0.4540
     14  C         11.9840    1.8470    3.0800 C.3     1  UNL1        0.4680
@<TRIPOS>BOND
     1     7     9    1
     2     7     6    2
     3     9    11    2
     4     1     5    1
     5     1     2    1
     6     5     6    1
     7     6     8    1
     8    11    13    1
     9    11    10    1
    10     2     3    1
    11     2     4    2
    12    13    14    1
    13     8    10    2
    14    10    12    1
    15    14    12    1
