MODEL 1
REMARK VINA RESULT:      -7.0      0.000      0.000
REMARK SMILES CC(=O)CCc1ccc2c(c1)OCO2
REMARK SMILES IDX 4 1 2 2 1 3 3 4 5 5 6 6 7 7 11 8 8 9 10 10 9 11 12 12 14 13
REMARK SMILES IDX 13 14
REMARK H PARENT
REMARK Flexibility Score: inf
ROOT
ATOM      1  C   UNL     1       5.504   1.932   1.294  1.00  0.00     0.080 C 
ENDROOT
BRANCH   1   2
ATOM      2  C   UNL     1       5.061   0.711   2.024  1.00  0.00     0.130 C 
ATOM      3  C   UNL     1       5.947  -0.474   2.173  1.00  0.00     0.087 C 
ATOM      4  O   UNL     1       3.949   0.648   2.523  1.00  0.00    -0.300 OA
ENDBRANCH   1   2
BRANCH   1   5
ATOM      5  C   UNL     1       5.389   1.749  -0.206  1.00  0.00     0.043 C 
BRANCH   5   6
ATOM      6  C   UNL     1       6.560   1.049  -0.762  1.00  0.00    -0.044 A 
ATOM      7  C   UNL     1       7.866   1.456  -0.467  1.00  0.00     0.008 A 
ATOM      8  C   UNL     1       6.378  -0.035  -1.591  1.00  0.00     0.054 A 
ATOM      9  C   UNL     1       8.927   0.760  -1.018  1.00  0.00     0.051 A 
ATOM     10  C   UNL     1       7.454  -0.736  -2.145  1.00  0.00     0.166 A 
ATOM     11  C   UNL     1       8.739  -0.334  -1.856  1.00  0.00     0.165 A 
ATOM     12  O   UNL     1       7.532  -1.826  -2.984  1.00  0.00    -0.454 OA
ATOM     13  O   UNL     1       9.589  -1.197  -2.530  1.00  0.00    -0.454 OA
ATOM     14  C   UNL     1       8.868  -2.213  -3.184  1.00  0.00     0.468 C 
ENDBRANCH   5   6
ENDBRANCH   1   5
TORSDOF 3
ENDMDL
MODEL 2
REMARK VINA RESULT:      -7.0      2.704      3.924
REMARK SMILES CC(=O)CCc1ccc2c(c1)OCO2
REMARK SMILES IDX 4 1 2 2 1 3 3 4 5 5 6 6 7 7 11 8 8 9 10 10 9 11 12 12 14 13
REMARK SMILES IDX 13 14
REMARK H PARENT
REMARK Flexibility Score: inf
ROOT
ATOM      1  C   UNL     1       9.650   1.382   2.644  1.00  0.00     0.080 C 
ENDROOT
BRANCH   1   2
ATOM      2  C   UNL     1      11.092   1.011   2.675  1.00  0.00     0.130 C 
ATOM      3  C   UNL     1      12.068   1.745   3.524  1.00  0.00     0.087 C 
ATOM      4  O   UNL     1      11.516   0.087   2.000  1.00  0.00    -0.300 OA
ENDBRANCH   1   2
BRANCH   1   5
ATOM      5  C   UNL     1       9.288   2.074   1.344  1.00  0.00     0.043 C 
BRANCH   5   6
ATOM      6  C   UNL     1       8.538   1.182   0.441  1.00  0.00    -0.044 A 
ATOM      7  C   UNL     1       7.148   1.044   0.535  1.00  0.00     0.008 A 
ATOM      8  C   UNL     1       9.210   0.466  -0.523  1.00  0.00     0.054 A 
ATOM      9  C   UNL     1       6.498   0.193  -0.340  1.00  0.00     0.051 A 
ATOM     10  C   UNL     1       8.548  -0.392  -1.406  1.00  0.00     0.166 A 
ATOM     11  C   UNL     1       7.181  -0.530  -1.313  1.00  0.00     0.165 A 
ATOM     12  O   UNL     1       8.984  -1.202  -2.434  1.00  0.00    -0.454 OA
ATOM     13  O   UNL     1       6.801  -1.430  -2.297  1.00  0.00    -0.454 OA
ATOM     14  C   UNL     1       7.901  -1.811  -3.089  1.00  0.00     0.468 C 
ENDBRANCH   5   6
ENDBRANCH   1   5
TORSDOF 3
ENDMDL
MODEL 3
REMARK VINA RESULT:      -7.0      3.421      4.422
REMARK SMILES CC(=O)CCc1ccc2c(c1)OCO2
REMARK SMILES IDX 4 1 2 2 1 3 3 4 5 5 6 6 7 7 11 8 8 9 10 10 9 11 12 12 14 13
REMARK SMILES IDX 13 14
REMARK H PARENT
REMARK Flexibility Score: inf
ROOT
ATOM      1  C   UNL     1       5.775   0.236   1.553  1.00  0.00     0.080 C 
ENDROOT
BRANCH   1   2
ATOM      2  C   UNL     1       5.043   1.421   1.025  1.00  0.00     0.130 C 
ATOM      3  C   UNL     1       5.331   1.979  -0.323  1.00  0.00     0.087 C 
ATOM      4  O   UNL     1       4.181   1.972   1.690  1.00  0.00    -0.300 OA
ENDBRANCH   1   2
BRANCH   1   5
ATOM      5  C   UNL     1       7.020  -0.051   0.737  1.00  0.00     0.043 C 
BRANCH   5   6
ATOM      6  C   UNL     1       8.236   0.453   1.400  1.00  0.00    -0.044 A 
ATOM      7  C   UNL     1       8.206   1.583   2.226  1.00  0.00     0.008 A 
ATOM      8  C   UNL     1       9.435  -0.196   1.211  1.00  0.00     0.054 A 
ATOM      9  C   UNL     1       9.379   2.009   2.822  1.00  0.00     0.051 A 
ATOM     10  C   UNL     1      10.618   0.239   1.817  1.00  0.00     0.166 A 
ATOM     11  C   UNL     1      10.589   1.351   2.629  1.00  0.00     0.165 A 
ATOM     12  O   UNL     1      11.915  -0.227   1.786  1.00  0.00    -0.454 OA
ATOM     13  O   UNL     1      11.883   1.547   3.085  1.00  0.00    -0.454 OA
ATOM     14  C   UNL     1      12.738   0.517   2.649  1.00  0.00     0.468 C 
ENDBRANCH   5   6
ENDBRANCH   1   5
TORSDOF 3
ENDMDL
MODEL 4
REMARK VINA RESULT:      -6.8      3.161      4.745
REMARK SMILES CC(=O)CCc1ccc2c(c1)OCO2
REMARK SMILES IDX 4 1 2 2 1 3 3 4 5 5 6 6 7 7 11 8 8 9 10 10 9 11 12 12 14 13
REMARK SMILES IDX 13 14
REMARK H PARENT
REMARK Flexibility Score: inf
ROOT
ATOM      1  C   UNL     1       6.414   0.435  -0.881  1.00  0.00     0.080 C 
ENDROOT
BRANCH   1   2
ATOM      2  C   UNL     1       7.066  -0.382  -1.942  1.00  0.00     0.130 C 
ATOM      3  C   UNL     1       8.180   0.156  -2.768  1.00  0.00     0.087 C 
ATOM      4  O   UNL     1       6.701  -1.525  -2.165  1.00  0.00    -0.300 OA
ENDBRANCH   1   2
BRANCH   1   5
ATOM      5  C   UNL     1       6.638  -0.165   0.492  1.00  0.00     0.043 C 
BRANCH   5   6
ATOM      6  C   UNL     1       7.837   0.392   1.143  1.00  0.00    -0.044 A 
ATOM      7  C   UNL     1       7.790   1.591   1.862  1.00  0.00     0.008 A 
ATOM      8  C   UNL     1       9.036  -0.277   1.050  1.00  0.00     0.054 A 
ATOM      9  C   UNL     1       8.947   2.065   2.453  1.00  0.00     0.051 A 
ATOM     10  C   UNL     1      10.203   0.206   1.650  1.00  0.00     0.166 A 
ATOM     11  C   UNL     1      10.159   1.387   2.356  1.00  0.00     0.165 A 
ATOM     12  O   UNL     1      11.498  -0.266   1.700  1.00  0.00    -0.454 OA
ATOM     13  O   UNL     1      11.440   1.618   2.832  1.00  0.00    -0.454 OA
ATOM     14  C   UNL     1      12.300   0.549   2.517  1.00  0.00     0.468 C 
ENDBRANCH   5   6
ENDBRANCH   1   5
TORSDOF 3
ENDMDL
MODEL 5
REMARK VINA RESULT:      -6.7      3.154      4.169
REMARK SMILES CC(=O)CCc1ccc2c(c1)OCO2
REMARK SMILES IDX 4 1 2 2 1 3 3 4 5 5 6 6 7 7 11 8 8 9 10 10 9 11 12 12 14 13
REMARK SMILES IDX 13 14
REMARK H PARENT
REMARK Flexibility Score: inf
ROOT
ATOM      1  C   UNL     1       5.796   0.675   0.324  1.00  0.00     0.080 C 
ENDROOT
BRANCH   1   2
ATOM      2  C   UNL     1       5.504   0.192   1.702  1.00  0.00     0.130 C 
ATOM      3  C   UNL     1       6.245  -0.950   2.303  1.00  0.00     0.087 C 
ATOM      4  O   UNL     1       4.642   0.723   2.383  1.00  0.00    -0.300 OA
ENDBRANCH   1   2
BRANCH   1   5
ATOM      5  C   UNL     1       6.581   1.971   0.349  1.00  0.00     0.043 C 
BRANCH   5   6
ATOM      6  C   UNL     1       8.010   1.739   0.626  1.00  0.00    -0.044 A 
ATOM      7  C   UNL     1       8.859   1.171  -0.330  1.00  0.00     0.008 A 
ATOM      8  C   UNL     1       8.532   2.088   1.851  1.00  0.00     0.054 A 
ATOM      9  C   UNL     1      10.192   0.977  -0.014  1.00  0.00     0.051 A 
ATOM     10  C   UNL     1       9.880   1.891   2.165  1.00  0.00     0.166 A 
ATOM     11  C   UNL     1      10.717   1.331   1.225  1.00  0.00     0.165 A 
ATOM     12  O   UNL     1      10.629   2.148   3.294  1.00  0.00    -0.454 OA
ATOM     13  O   UNL     1      11.975   1.256   1.802  1.00  0.00    -0.454 OA
ATOM     14  C   UNL     1      11.984   1.847   3.080  1.00  0.00     0.468 C 
ENDBRANCH   5   6
ENDBRANCH   1   5
TORSDOF 3
ENDMDL
