@<TRIPOS>MOLECULE
/home/cewinharhar/GITHUB/reincatalyze/data/processed/docking_pred/2023-May-25-1902_sub9_nm5_bs15_s42_ex16_mel10_mts10000_k50_ec01_g099_lra3e-4_lrc3e-3/4c3a486d5bbb1ad3c8ce5b6da142191fd088767a_ligand_9.pdbqt
 14 15 0 0 0
SMALL
GASTEIGER

@<TRIPOS>ATOM
      1  C          5.5040    1.9320    1.2940 C.3     1  UNL1        0.0800
      2  C          5.0610    0.7110    2.0240 C.2     1  UNL1        0.1300
      3  C          5.9470   -0.4740    2.1730 C.3     1  UNL1        0.0870
      4  O          3.9490    0.6480    2.5230 O.2     1  UNL1       -0.3000
      5  C          5.3890    1.7490   -0.2060 C.3     1  UNL1        0.0430
      6  C          6.5600    1.0490   -0.7620 C.2     1  UNL1       -0.0440
      7  C          7.8660    1.4560   -0.4670 C.2     1  UNL1        0.0080
      8  C          6.3780   -0.0350   -1.5910 C.2     1  UNL1        0.0540
      9  C          8.9270    0.7600   -1.0180 C.2     1  UNL1        0.0510
     10  C          7.4540   -0.7360   -2.1450 C.2     1  UNL1        0.1660
     11  C          8.7390   -0.3340   -1.8560 C.2     1  UNL1        0.1650
     12  O          7.5320   -1.8260   -2.9840 O.2     1  UNL1       -0.4540
     13  O          9.5890   -1.1970   -2.5300 O.2     1  UNL1       -0.4540
     14  C          8.8680   -2.2130   -3.1840 C.3     1  UNL1        0.4680
@<TRIPOS>BOND
     1    14    12    1
     2    14    13    1
     3    12    10    1
     4    13    11    1
     5    10    11    2
     6    10     8    1
     7    11     9    1
     8     8     6    2
     9     9     7    2
    10     6     7    1
    11     6     5    1
    12     5     1    1
    13     1     2    1
    14     2     3    1
    15     2     4    2
