@<TRIPOS>MOLECULE
/home/cewinharhar/GITHUB/reincatalyze/data/processed/docking_pred/2023-May-25-1902_sub9_nm5_bs15_s42_ex16_mel10_mts10000_k50_ec01_g099_lra3e-4_lrc3e-3/4c41b041102a8d5d821093d1e21668bd2b50a839_ligand_9.pdbqt
 14 15 0 0 0
SMALL
GASTEIGER

@<TRIPOS>ATOM
      1  C          5.4120   -0.0640    2.0280 C.3     1  UNL1        0.0800
      2  C          4.5540    1.1260    1.7690 C.2     1  UNL1        0.1300
      3  C          4.9020    2.1270    0.7240 C.3     1  UNL1        0.0870
      4  O          3.5340    1.3160    2.4110 O.2     1  UNL1       -0.3000
      5  C          6.8460    0.1890    1.6080 C.3     1  UNL1        0.0430
      6  C          7.2740   -0.7330    0.5410 C.2     1  UNL1       -0.0440
      7  C          7.1450   -0.4000   -0.8120 C.2     1  UNL1        0.0080
      8  C          7.8160   -1.9540    0.8720 C.2     1  UNL1        0.0540
      9  C          7.5650   -1.3050   -1.7690 C.2     1  UNL1        0.0510
     10  C          8.2390   -2.8660   -0.0990 C.2     1  UNL1        0.1660
     11  C          8.1120   -2.5390   -1.4310 C.2     1  UNL1        0.1650
     12  O          8.8000   -4.1240   -0.0270 O.2     1  UNL1       -0.4540
     13  O          8.6040   -3.6130   -2.1560 O.2     1  UNL1       -0.4540
     14  C          9.1340   -4.6010   -1.3050 C.3     1  UNL1        0.4680
@<TRIPOS>BOND
     1    13    11    1
     2    13    14    1
     3     9    11    2
     4     9     7    1
     5    11    10    1
     6    14    12    1
     7     7     6    2
     8    10    12    1
     9    10     8    2
    10     6     8    1
    11     6     5    1
    12     3     2    1
    13     5     1    1
    14     2     1    1
    15     2     4    2
