@<TRIPOS>MOLECULE
/home/cewinharhar/GITHUB/reincatalyze/data/processed/docking_pred/2023-May-25-1902_sub9_nm5_bs15_s42_ex16_mel10_mts10000_k50_ec01_g099_lra3e-4_lrc3e-3/4c41b041102a8d5d821093d1e21668bd2b50a839_ligand_9.pdbqt
 14 15 0 0 0
SMALL
GASTEIGER

@<TRIPOS>ATOM
      1  C          6.7430    0.7850    1.4200 C.3     1  UNL1        0.0800
      2  C          5.3020    1.1600    1.4310 C.2     1  UNL1        0.1300
      3  C          4.7400    2.1270    0.4500 C.3     1  UNL1        0.0870
      4  O          4.5350    0.6810    2.2510 O.2     1  UNL1       -0.3000
      5  C          7.3630    1.0170    0.0570 C.3     1  UNL1        0.0430
      6  C          7.6600   -0.2520   -0.6320 C.2     1  UNL1       -0.0440
      7  C          7.5980   -0.3610   -2.0260 C.2     1  UNL1        0.0080
      8  C          8.0090   -1.3620    0.1030 C.2     1  UNL1        0.0540
      9  C          7.8880   -1.5770   -2.6170 C.2     1  UNL1        0.0510
     10  C          8.3010   -2.5890   -0.5000 C.2     1  UNL1        0.1660
     11  C          8.2400   -2.6970   -1.8710 C.2     1  UNL1        0.1650
     12  O          8.6670   -3.8190    0.0030 O.2     1  UNL1       -0.4540
     13  O          8.5740   -4.0050   -2.1850 O.2     1  UNL1       -0.4540
     14  C          8.9400   -4.7270   -1.0330 C.3     1  UNL1        0.4680
@<TRIPOS>BOND
     1     9     7    1
     2     9    11    2
     3    13    11    1
     4    13    14    1
     5     7     6    2
     6    11    10    1
     7    14    12    1
     8     6     5    1
     9     6     8    1
    10    10    12    1
    11    10     8    2
    12     5     1    1
    13     3     2    1
    14     1     2    1
    15     2     4    2
