@<TRIPOS>MOLECULE
/home/cewinharhar/GITHUB/reincatalyze/data/processed/docking_pred/2023-May-25-1902_sub9_nm5_bs15_s42_ex16_mel10_mts10000_k50_ec01_g099_lra3e-4_lrc3e-3/4d620996829bdf69d2437cdb6940cc233521eaf3_ligand_9.pdbqt
 14 15 0 0 0
SMALL
GASTEIGER

@<TRIPOS>ATOM
      1  C          6.3430    1.2870    0.9040 C.3     1  UNL1        0.0800
      2  C          5.6590    0.4280    1.9100 C.2     1  UNL1        0.1300
      3  C          6.3270   -0.7610    2.5040 C.3     1  UNL1        0.0870
      4  O          4.5230    0.6780    2.2790 O.2     1  UNL1       -0.3000
      5  C          5.8480    0.9920   -0.4980 C.3     1  UNL1        0.0430
      6  C          6.8020    0.1560   -1.2500 C.2     1  UNL1       -0.0440
      7  C          7.5190    0.6620   -2.3400 C.2     1  UNL1        0.0080
      8  C          7.0010   -1.1530   -0.8770 C.2     1  UNL1        0.0540
      9  C          8.4010   -0.1690   -3.0070 C.2     1  UNL1        0.0510
     10  C          7.8950   -1.9890   -1.5540 C.2     1  UNL1        0.1660
     11  C          8.6000   -1.4930   -2.6280 C.2     1  UNL1        0.1650
     12  O          8.2630   -3.3070   -1.3820 O.2     1  UNL1       -0.4540
     13  O          9.3960   -2.5260   -3.0970 O.2     1  UNL1       -0.4540
     14  C          9.2810   -3.6670   -2.2800 C.3     1  UNL1        0.4680
@<TRIPOS>BOND
     1    13    11    1
     2    13    14    1
     3     9    11    2
     4     9     7    1
     5    11    10    1
     6     7     6    2
     7    14    12    1
     8    10    12    1
     9    10     8    2
    10     6     8    1
    11     6     5    1
    12     5     1    1
    13     1     2    1
    14     2     4    2
    15     2     3    1
