MODEL 1
REMARK VINA RESULT:      -7.7      0.000      0.000
REMARK SMILES CC(=O)CCc1ccc2c(c1)OCO2
REMARK SMILES IDX 4 1 2 2 1 3 3 4 5 5 6 6 7 7 11 8 8 9 10 10 9 11 12 12 14 13
REMARK SMILES IDX 13 14
REMARK H PARENT
REMARK Flexibility Score: inf
ROOT
ATOM      1  C   UNL     1       5.514   1.901   1.278  1.00  0.00     0.080 C 
ENDROOT
BRANCH   1   2
ATOM      2  C   UNL     1       5.065   0.682   2.007  1.00  0.00     0.130 C 
ATOM      3  C   UNL     1       5.946  -0.506   2.158  1.00  0.00     0.087 C 
ATOM      4  O   UNL     1       3.952   0.624   2.505  1.00  0.00    -0.300 OA
ENDBRANCH   1   2
BRANCH   1   5
ATOM      5  C   UNL     1       5.389   1.723  -0.222  1.00  0.00     0.043 C 
BRANCH   5   6
ATOM      6  C   UNL     1       6.558   1.026  -0.788  1.00  0.00    -0.044 A 
ATOM      7  C   UNL     1       7.863   1.468  -0.545  1.00  0.00     0.008 A 
ATOM      8  C   UNL     1       6.373  -0.088  -1.575  1.00  0.00     0.054 A 
ATOM      9  C   UNL     1       8.922   0.774  -1.103  1.00  0.00     0.051 A 
ATOM     10  C   UNL     1       7.446  -0.786  -2.136  1.00  0.00     0.166 A 
ATOM     11  C   UNL     1       8.731  -0.351  -1.898  1.00  0.00     0.165 A 
ATOM     12  O   UNL     1       7.523  -1.903  -2.941  1.00  0.00    -0.454 OA
ATOM     13  O   UNL     1       9.579  -1.220  -2.568  1.00  0.00    -0.454 OA
ATOM     14  C   UNL     1       8.859  -2.271  -3.167  1.00  0.00     0.468 C 
ENDBRANCH   5   6
ENDBRANCH   1   5
TORSDOF 3
ENDMDL
MODEL 2
REMARK VINA RESULT:      -7.4      1.872      2.314
REMARK SMILES CC(=O)CCc1ccc2c(c1)OCO2
REMARK SMILES IDX 4 1 2 2 1 3 3 4 5 5 6 6 7 7 11 8 8 9 10 10 9 11 12 12 14 13
REMARK SMILES IDX 13 14
REMARK H PARENT
REMARK Flexibility Score: inf
ROOT
ATOM      1  C   UNL     1       5.753   1.474  -0.288  1.00  0.00     0.080 C 
ENDROOT
BRANCH   1   2
ATOM      2  C   UNL     1       5.194   1.310   1.083  1.00  0.00     0.130 C 
ATOM      3  C   UNL     1       5.519   0.126   1.923  1.00  0.00     0.087 C 
ATOM      4  O   UNL     1       4.448   2.150   1.560  1.00  0.00    -0.300 OA
ENDBRANCH   1   2
BRANCH   1   5
ATOM      5  C   UNL     1       7.254   1.259  -0.300  1.00  0.00     0.043 C 
BRANCH   5   6
ATOM      6  C   UNL     1       7.615  -0.041  -0.893  1.00  0.00    -0.044 A 
ATOM      7  C   UNL     1       7.714  -0.212  -2.279  1.00  0.00     0.008 A 
ATOM      8  C   UNL     1       7.865  -1.119  -0.075  1.00  0.00     0.054 A 
ATOM      9  C   UNL     1       8.057  -1.455  -2.779  1.00  0.00     0.051 A 
ATOM     10  C   UNL     1       8.213  -2.373  -0.585  1.00  0.00     0.166 A 
ATOM     11  C   UNL     1       8.309  -2.542  -1.948  1.00  0.00     0.165 A 
ATOM     12  O   UNL     1       8.505  -3.582   0.010  1.00  0.00    -0.454 OA
ATOM     13  O   UNL     1       8.663  -3.865  -2.164  1.00  0.00    -0.454 OA
ATOM     14  C   UNL     1       8.886  -4.536  -0.947  1.00  0.00     0.468 C 
ENDBRANCH   5   6
ENDBRANCH   1   5
TORSDOF 3
ENDMDL
MODEL 3
REMARK VINA RESULT:      -7.2      2.050      2.614
REMARK SMILES CC(=O)CCc1ccc2c(c1)OCO2
REMARK SMILES IDX 4 1 2 2 1 3 3 4 5 5 6 6 7 7 11 8 8 9 10 10 9 11 12 12 14 13
REMARK SMILES IDX 13 14
REMARK H PARENT
REMARK Flexibility Score: inf
ROOT
ATOM      1  C   UNL     1       5.442  -0.035   2.006  1.00  0.00     0.080 C 
ENDROOT
BRANCH   1   2
ATOM      2  C   UNL     1       4.580   1.153   1.754  1.00  0.00     0.130 C 
ATOM      3  C   UNL     1       4.897   2.134   0.682  1.00  0.00     0.087 C 
ATOM      4  O   UNL     1       3.583   1.358   2.427  1.00  0.00    -0.300 OA
ENDBRANCH   1   2
BRANCH   1   5
ATOM      5  C   UNL     1       6.871   0.219   1.571  1.00  0.00     0.043 C 
BRANCH   5   6
ATOM      6  C   UNL     1       7.293  -0.713   0.509  1.00  0.00    -0.044 A 
ATOM      7  C   UNL     1       7.166  -0.385  -0.846  1.00  0.00     0.008 A 
ATOM      8  C   UNL     1       7.828  -1.935   0.846  1.00  0.00     0.054 A 
ATOM      9  C   UNL     1       7.579  -1.299  -1.799  1.00  0.00     0.051 A 
ATOM     10  C   UNL     1       8.245  -2.855  -0.121  1.00  0.00     0.166 A 
ATOM     11  C   UNL     1       8.119  -2.534  -1.454  1.00  0.00     0.165 A 
ATOM     12  O   UNL     1       8.799  -4.115  -0.042  1.00  0.00    -0.454 OA
ATOM     13  O   UNL     1       8.605  -3.615  -2.173  1.00  0.00    -0.454 OA
ATOM     14  C   UNL     1       9.129  -4.601  -1.317  1.00  0.00     0.468 C 
ENDBRANCH   5   6
ENDBRANCH   1   5
TORSDOF 3
ENDMDL
MODEL 4
REMARK VINA RESULT:      -7.1      1.990      2.562
REMARK SMILES CC(=O)CCc1ccc2c(c1)OCO2
REMARK SMILES IDX 4 1 2 2 1 3 3 4 5 5 6 6 7 7 11 8 8 9 10 10 9 11 12 12 14 13
REMARK SMILES IDX 13 14
REMARK H PARENT
REMARK Flexibility Score: inf
ROOT
ATOM      1  C   UNL     1       6.781   0.725   1.351  1.00  0.00     0.080 C 
ENDROOT
BRANCH   1   2
ATOM      2  C   UNL     1       5.357   1.144   1.473  1.00  0.00     0.130 C 
ATOM      3  C   UNL     1       4.758   2.150   0.556  1.00  0.00     0.087 C 
ATOM      4  O   UNL     1       4.636   0.670   2.336  1.00  0.00    -0.300 OA
ENDBRANCH   1   2
BRANCH   1   5
ATOM      5  C   UNL     1       7.301   0.944  -0.056  1.00  0.00     0.043 C 
BRANCH   5   6
ATOM      6  C   UNL     1       7.635  -0.329  -0.719  1.00  0.00    -0.044 A 
ATOM      7  C   UNL     1       7.631  -0.453  -2.113  1.00  0.00     0.008 A 
ATOM      8  C   UNL     1       7.964  -1.428   0.041  1.00  0.00     0.054 A 
ATOM      9  C   UNL     1       7.954  -1.672  -2.680  1.00  0.00     0.051 A 
ATOM     10  C   UNL     1       8.291  -2.659  -0.537  1.00  0.00     0.166 A 
ATOM     11  C   UNL     1       8.285  -2.782  -1.908  1.00  0.00     0.165 A 
ATOM     12  O   UNL     1       8.646  -3.881  -0.007  1.00  0.00    -0.454 OA
ATOM     13  O   UNL     1       8.642  -4.090  -2.195  1.00  0.00    -0.454 OA
ATOM     14  C   UNL     1       8.968  -4.797  -1.022  1.00  0.00     0.468 C 
ENDBRANCH   5   6
ENDBRANCH   1   5
TORSDOF 3
ENDMDL
MODEL 5
REMARK VINA RESULT:      -7.1      1.241      1.432
REMARK SMILES CC(=O)CCc1ccc2c(c1)OCO2
REMARK SMILES IDX 4 1 2 2 1 3 3 4 5 5 6 6 7 7 11 8 8 9 10 10 9 11 12 12 14 13
REMARK SMILES IDX 13 14
REMARK H PARENT
REMARK Flexibility Score: inf
ROOT
ATOM      1  C   UNL     1       6.343   1.287   0.904  1.00  0.00     0.080 C 
ENDROOT
BRANCH   1   2
ATOM      2  C   UNL     1       5.659   0.428   1.910  1.00  0.00     0.130 C 
ATOM      3  C   UNL     1       6.327  -0.761   2.504  1.00  0.00     0.087 C 
ATOM      4  O   UNL     1       4.523   0.678   2.279  1.00  0.00    -0.300 OA
ENDBRANCH   1   2
BRANCH   1   5
ATOM      5  C   UNL     1       5.848   0.992  -0.498  1.00  0.00     0.043 C 
BRANCH   5   6
ATOM      6  C   UNL     1       6.802   0.156  -1.250  1.00  0.00    -0.044 A 
ATOM      7  C   UNL     1       7.519   0.662  -2.340  1.00  0.00     0.008 A 
ATOM      8  C   UNL     1       7.001  -1.153  -0.877  1.00  0.00     0.054 A 
ATOM      9  C   UNL     1       8.401  -0.169  -3.007  1.00  0.00     0.051 A 
ATOM     10  C   UNL     1       7.895  -1.989  -1.554  1.00  0.00     0.166 A 
ATOM     11  C   UNL     1       8.600  -1.493  -2.628  1.00  0.00     0.165 A 
ATOM     12  O   UNL     1       8.263  -3.307  -1.382  1.00  0.00    -0.454 OA
ATOM     13  O   UNL     1       9.396  -2.526  -3.097  1.00  0.00    -0.454 OA
ATOM     14  C   UNL     1       9.281  -3.667  -2.280  1.00  0.00     0.468 C 
ENDBRANCH   5   6
ENDBRANCH   1   5
TORSDOF 3
ENDMDL
