MODEL 1
REMARK VINA RESULT:      -8.1      0.000      0.000
REMARK SMILES CC(=O)CCc1ccc2c(c1)OCO2
REMARK SMILES IDX 4 1 2 2 1 3 3 4 5 5 6 6 7 7 11 8 8 9 10 10 9 11 12 12 14 13
REMARK SMILES IDX 13 14
REMARK H PARENT
REMARK Flexibility Score: inf
ROOT
ATOM      1  C   UNL     1       6.057   1.490   0.936  1.00  0.00     0.080 C 
ENDROOT
BRANCH   1   2
ATOM      2  C   UNL     1       5.490   0.493   1.887  1.00  0.00     0.130 C 
ATOM      3  C   UNL     1       6.257  -0.712   2.303  1.00  0.00     0.087 C 
ATOM      4  O   UNL     1       4.372   0.638   2.355  1.00  0.00    -0.300 OA
ENDBRANCH   1   2
BRANCH   1   5
ATOM      5  C   UNL     1       5.856   1.055  -0.502  1.00  0.00     0.043 C 
BRANCH   5   6
ATOM      6  C   UNL     1       7.026   0.324  -1.020  1.00  0.00    -0.044 A 
ATOM      7  C   UNL     1       8.332   0.765  -0.779  1.00  0.00     0.008 A 
ATOM      8  C   UNL     1       6.841  -0.823  -1.758  1.00  0.00     0.054 A 
ATOM      9  C   UNL     1       9.391   0.037  -1.289  1.00  0.00     0.051 A 
ATOM     10  C   UNL     1       7.915  -1.556  -2.271  1.00  0.00     0.166 A 
ATOM     11  C   UNL     1       9.201  -1.122  -2.035  1.00  0.00     0.165 A 
ATOM     12  O   UNL     1       7.992  -2.709  -3.023  1.00  0.00    -0.454 OA
ATOM     13  O   UNL     1      10.049  -2.028  -2.653  1.00  0.00    -0.454 OA
ATOM     14  C   UNL     1       9.328  -3.099  -3.213  1.00  0.00     0.468 C 
ENDBRANCH   5   6
ENDBRANCH   1   5
TORSDOF 3
ENDMDL
MODEL 2
REMARK VINA RESULT:      -7.3      1.235      1.892
REMARK SMILES CC(=O)CCc1ccc2c(c1)OCO2
REMARK SMILES IDX 4 1 2 2 1 3 3 4 5 5 6 6 7 7 11 8 8 9 10 10 9 11 12 12 14 13
REMARK SMILES IDX 13 14
REMARK H PARENT
REMARK Flexibility Score: inf
ROOT
ATOM      1  C   UNL     1       5.850   1.221  -0.276  1.00  0.00     0.080 C 
ENDROOT
BRANCH   1   2
ATOM      2  C   UNL     1       5.292   1.091   1.100  1.00  0.00     0.130 C 
ATOM      3  C   UNL     1       5.643  -0.055   1.980  1.00  0.00     0.087 C 
ATOM      4  O   UNL     1       4.524   1.928   1.546  1.00  0.00    -0.300 OA
ENDBRANCH   1   2
BRANCH   1   5
ATOM      5  C   UNL     1       7.355   1.392  -0.245  1.00  0.00     0.043 C 
BRANCH   5   6
ATOM      6  C   UNL     1       8.042   0.325  -0.994  1.00  0.00    -0.044 A 
ATOM      7  C   UNL     1       7.654  -0.027  -2.292  1.00  0.00     0.008 A 
ATOM      8  C   UNL     1       9.094  -0.348  -0.413  1.00  0.00     0.054 A 
ATOM      9  C   UNL     1       8.337  -1.036  -2.946  1.00  0.00     0.051 A 
ATOM     10  C   UNL     1       9.781  -1.367  -1.079  1.00  0.00     0.166 A 
ATOM     11  C   UNL     1       9.399  -1.715  -2.356  1.00  0.00     0.165 A 
ATOM     12  O   UNL     1      10.841  -2.174  -0.723  1.00  0.00    -0.454 OA
ATOM     13  O   UNL     1      10.242  -2.737  -2.762  1.00  0.00    -0.454 OA
ATOM     14  C   UNL     1      11.229  -2.998  -1.793  1.00  0.00     0.468 C 
ENDBRANCH   5   6
ENDBRANCH   1   5
TORSDOF 3
ENDMDL
MODEL 3
REMARK VINA RESULT:      -7.3      1.245      1.820
REMARK SMILES CC(=O)CCc1ccc2c(c1)OCO2
REMARK SMILES IDX 4 1 2 2 1 3 3 4 5 5 6 6 7 7 11 8 8 9 10 10 9 11 12 12 14 13
REMARK SMILES IDX 13 14
REMARK H PARENT
REMARK Flexibility Score: inf
ROOT
ATOM      1  C   UNL     1       6.113  -0.804   1.418  1.00  0.00     0.080 C 
ENDROOT
BRANCH   1   2
ATOM      2  C   UNL     1       5.343   0.467   1.510  1.00  0.00     0.130 C 
ATOM      3  C   UNL     1       5.479   1.539   0.488  1.00  0.00     0.087 C 
ATOM      4  O   UNL     1       4.572   0.666   2.435  1.00  0.00    -0.300 OA
ENDBRANCH   1   2
BRANCH   1   5
ATOM      5  C   UNL     1       7.601  -0.558   1.571  1.00  0.00     0.043 C 
BRANCH   5   6
ATOM      6  C   UNL     1       8.362  -1.075   0.420  1.00  0.00    -0.044 A 
ATOM      7  C   UNL     1       9.761  -1.027   0.384  1.00  0.00     0.008 A 
ATOM      8  C   UNL     1       7.692  -1.623  -0.650  1.00  0.00     0.054 A 
ATOM      9  C   UNL     1      10.421  -1.528  -0.723  1.00  0.00     0.051 A 
ATOM     10  C   UNL     1       8.364  -2.129  -1.767  1.00  0.00     0.166 A 
ATOM     11  C   UNL     1       9.740  -2.080  -1.804  1.00  0.00     0.165 A 
ATOM     12  O   UNL     1       7.933  -2.713  -2.939  1.00  0.00    -0.454 OA
ATOM     13  O   UNL     1      10.129  -2.643  -3.009  1.00  0.00    -0.454 OA
ATOM     14  C   UNL     1       9.020  -3.140  -3.720  1.00  0.00     0.468 C 
ENDBRANCH   5   6
ENDBRANCH   1   5
TORSDOF 3
ENDMDL
MODEL 4
REMARK VINA RESULT:      -7.2      0.979      1.432
REMARK SMILES CC(=O)CCc1ccc2c(c1)OCO2
REMARK SMILES IDX 4 1 2 2 1 3 3 4 5 5 6 6 7 7 11 8 8 9 10 10 9 11 12 12 14 13
REMARK SMILES IDX 13 14
REMARK H PARENT
REMARK Flexibility Score: inf
ROOT
ATOM      1  C   UNL     1       6.619   0.219   1.066  1.00  0.00     0.080 C 
ENDROOT
BRANCH   1   2
ATOM      2  C   UNL     1       5.357   0.957   1.355  1.00  0.00     0.130 C 
ATOM      3  C   UNL     1       4.911   2.101   0.515  1.00  0.00     0.087 C 
ATOM      4  O   UNL     1       4.648   0.641   2.296  1.00  0.00    -0.300 OA
ENDBRANCH   1   2
BRANCH   1   5
ATOM      5  C   UNL     1       7.379   0.857  -0.081  1.00  0.00     0.043 C 
BRANCH   5   6
ATOM      6  C   UNL     1       8.222  -0.123  -0.789  1.00  0.00    -0.044 A 
ATOM      7  C   UNL     1       9.594  -0.227  -0.536  1.00  0.00     0.008 A 
ATOM      8  C   UNL     1       7.656  -0.961  -1.722  1.00  0.00     0.054 A 
ATOM      9  C   UNL     1      10.335  -1.166  -1.231  1.00  0.00     0.051 A 
ATOM     10  C   UNL     1       8.409  -1.909  -2.421  1.00  0.00     0.166 A 
ATOM     11  C   UNL     1       9.760  -2.012  -2.174  1.00  0.00     0.165 A 
ATOM     12  O   UNL     1       8.086  -2.843  -3.383  1.00  0.00    -0.454 OA
ATOM     13  O   UNL     1      10.243  -3.018  -2.996  1.00  0.00    -0.454 OA
ATOM     14  C   UNL     1       9.199  -3.633  -3.713  1.00  0.00     0.468 C 
ENDBRANCH   5   6
ENDBRANCH   1   5
TORSDOF 3
ENDMDL
MODEL 5
REMARK VINA RESULT:      -7.2      1.274      1.781
REMARK SMILES CC(=O)CCc1ccc2c(c1)OCO2
REMARK SMILES IDX 4 1 2 2 1 3 3 4 5 5 6 6 7 7 11 8 8 9 10 10 9 11 12 12 14 13
REMARK SMILES IDX 13 14
REMARK H PARENT
REMARK Flexibility Score: inf
ROOT
ATOM      1  C   UNL     1       6.353   0.836   1.762  1.00  0.00     0.080 C 
ENDROOT
BRANCH   1   2
ATOM      2  C   UNL     1       5.241   1.567   1.094  1.00  0.00     0.130 C 
ATOM      3  C   UNL     1       5.331   1.994  -0.328  1.00  0.00     0.087 C 
ATOM      4  O   UNL     1       4.217   1.839   1.699  1.00  0.00    -0.300 OA
ENDBRANCH   1   2
BRANCH   1   5
ATOM      5  C   UNL     1       6.288  -0.650   1.471  1.00  0.00     0.043 C 
BRANCH   5   6
ATOM      6  C   UNL     1       7.306  -1.059   0.486  1.00  0.00    -0.044 A 
ATOM      7  C   UNL     1       8.668  -1.079   0.805  1.00  0.00     0.008 A 
ATOM      8  C   UNL     1       6.917  -1.435  -0.780  1.00  0.00     0.054 A 
ATOM      9  C   UNL     1       9.577  -1.472  -0.161  1.00  0.00     0.051 A 
ATOM     10  C   UNL     1       7.840  -1.832  -1.752  1.00  0.00     0.166 A 
ATOM     11  C   UNL     1       9.181  -1.851  -1.440  1.00  0.00     0.165 A 
ATOM     12  O   UNL     1       7.707  -2.244  -3.061  1.00  0.00    -0.454 OA
ATOM     13  O   UNL     1       9.851  -2.279  -2.575  1.00  0.00    -0.454 OA
ATOM     14  C   UNL     1       8.948  -2.626  -3.598  1.00  0.00     0.468 C 
ENDBRANCH   5   6
ENDBRANCH   1   5
TORSDOF 3
ENDMDL
