@<TRIPOS>MOLECULE
/home/cewinharhar/GITHUB/reincatalyze/data/processed/docking_pred/2023-May-25-1902_sub9_nm5_bs15_s42_ex16_mel10_mts10000_k50_ec01_g099_lra3e-4_lrc3e-3/4dfe2a4ebf2cd2c58b23ebebd9c83ff91bb12173_ligand_9.pdbqt
 14 15 0 0 0
SMALL
GASTEIGER

@<TRIPOS>ATOM
      1  C          6.0570    1.4900    0.9360 C.3     1  UNL1        0.0800
      2  C          5.4900    0.4930    1.8870 C.2     1  UNL1        0.1300
      3  C          6.2570   -0.7120    2.3030 C.3     1  UNL1        0.0870
      4  O          4.3720    0.6380    2.3550 O.2     1  UNL1       -0.3000
      5  C          5.8560    1.0550   -0.5020 C.3     1  UNL1        0.0430
      6  C          7.0260    0.3240   -1.0200 C.2     1  UNL1       -0.0440
      7  C          8.3320    0.7650   -0.7790 C.2     1  UNL1        0.0080
      8  C          6.8410   -0.8230   -1.7580 C.2     1  UNL1        0.0540
      9  C          9.3910    0.0370   -1.2890 C.2     1  UNL1        0.0510
     10  C          7.9150   -1.5560   -2.2710 C.2     1  UNL1        0.1660
     11  C          9.2010   -1.1220   -2.0350 C.2     1  UNL1        0.1650
     12  O          7.9920   -2.7090   -3.0230 O.2     1  UNL1       -0.4540
     13  O         10.0490   -2.0280   -2.6530 O.2     1  UNL1       -0.4540
     14  C          9.3280   -3.0990   -3.2130 C.3     1  UNL1        0.4680
@<TRIPOS>BOND
     1    14    12    1
     2    14    13    1
     3    12    10    1
     4    13    11    1
     5    10    11    2
     6    10     8    1
     7    11     9    1
     8     8     6    2
     9     9     7    2
    10     6     7    1
    11     6     5    1
    12     5     1    1
    13     1     2    1
    14     2     3    1
    15     2     4    2
