@<TRIPOS>MOLECULE
/home/cewinharhar/GITHUB/reincatalyze/data/processed/docking_pred/2023-May-25-1902_sub9_nm5_bs15_s42_ex16_mel10_mts10000_k50_ec01_g099_lra3e-4_lrc3e-3/4dfe2a4ebf2cd2c58b23ebebd9c83ff91bb12173_ligand_9.pdbqt
 14 15 0 0 0
SMALL
GASTEIGER

@<TRIPOS>ATOM
      1  C          6.6190    0.2190    1.0660 C.3     1  UNL1        0.0800
      2  C          5.3570    0.9570    1.3550 C.2     1  UNL1        0.1300
      3  C          4.9110    2.1010    0.5150 C.3     1  UNL1        0.0870
      4  O          4.6480    0.6410    2.2960 O.2     1  UNL1       -0.3000
      5  C          7.3790    0.8570   -0.0810 C.3     1  UNL1        0.0430
      6  C          8.2220   -0.1230   -0.7890 C.2     1  UNL1       -0.0440
      7  C          9.5940   -0.2270   -0.5360 C.2     1  UNL1        0.0080
      8  C          7.6560   -0.9610   -1.7220 C.2     1  UNL1        0.0540
      9  C         10.3350   -1.1660   -1.2310 C.2     1  UNL1        0.0510
     10  C          8.4090   -1.9090   -2.4210 C.2     1  UNL1        0.1660
     11  C          9.7600   -2.0120   -2.1740 C.2     1  UNL1        0.1650
     12  O          8.0860   -2.8430   -3.3830 O.2     1  UNL1       -0.4540
     13  O         10.2430   -3.0180   -2.9960 O.2     1  UNL1       -0.4540
     14  C          9.1990   -3.6330   -3.7130 C.3     1  UNL1        0.4680
@<TRIPOS>BOND
     1    14    12    1
     2    14    13    1
     3    12    10    1
     4    13    11    1
     5    10    11    2
     6    10     8    1
     7    11     9    1
     8     8     6    2
     9     9     7    2
    10     6     7    1
    11     6     5    1
    12     5     1    1
    13     3     2    1
    14     1     2    1
    15     2     4    2
