@<TRIPOS>MOLECULE
/home/cewinharhar/GITHUB/reincatalyze/data/processed/docking_pred/2023-May-25-1902_sub9_nm5_bs15_s42_ex16_mel10_mts10000_k50_ec01_g099_lra3e-4_lrc3e-3/4dfe2a4ebf2cd2c58b23ebebd9c83ff91bb12173_ligand_9.pdbqt
 14 15 0 0 0
SMALL
GASTEIGER

@<TRIPOS>ATOM
      1  C          6.1130   -0.8040    1.4180 C.3     1  UNL1        0.0800
      2  C          5.3430    0.4670    1.5100 C.2     1  UNL1        0.1300
      3  C          5.4790    1.5390    0.4880 C.3     1  UNL1        0.0870
      4  O          4.5720    0.6660    2.4350 O.2     1  UNL1       -0.3000
      5  C          7.6010   -0.5580    1.5710 C.3     1  UNL1        0.0430
      6  C          8.3620   -1.0750    0.4200 C.2     1  UNL1       -0.0440
      7  C          9.7610   -1.0270    0.3840 C.2     1  UNL1        0.0080
      8  C          7.6920   -1.6230   -0.6500 C.2     1  UNL1        0.0540
      9  C         10.4210   -1.5280   -0.7230 C.2     1  UNL1        0.0510
     10  C          8.3640   -2.1290   -1.7670 C.2     1  UNL1        0.1660
     11  C          9.7400   -2.0800   -1.8040 C.2     1  UNL1        0.1650
     12  O          7.9330   -2.7130   -2.9390 O.2     1  UNL1       -0.4540
     13  O         10.1290   -2.6430   -3.0090 O.2     1  UNL1       -0.4540
     14  C          9.0200   -3.1400   -3.7200 C.3     1  UNL1        0.4680
@<TRIPOS>BOND
     1    14    13    1
     2    14    12    1
     3    13    11    1
     4    12    10    1
     5    11    10    2
     6    11     9    1
     7    10     8    1
     8     9     7    2
     9     8     6    2
    10     7     6    1
    11     6     5    1
    12     3     2    1
    13     1     2    1
    14     1     5    1
    15     2     4    2
