@<TRIPOS>MOLECULE
/home/cewinharhar/GITHUB/reincatalyze/data/processed/docking_pred/2023-May-25-1902_sub9_nm5_bs15_s42_ex16_mel10_mts10000_k50_ec01_g099_lra3e-4_lrc3e-3/4dfe2a4ebf2cd2c58b23ebebd9c83ff91bb12173_ligand_9.pdbqt
 14 15 0 0 0
SMALL
GASTEIGER

@<TRIPOS>ATOM
      1  C          6.3530    0.8360    1.7620 C.3     1  UNL1        0.0800
      2  C          5.2410    1.5670    1.0940 C.2     1  UNL1        0.1300
      3  C          5.3310    1.9940   -0.3280 C.3     1  UNL1        0.0870
      4  O          4.2170    1.8390    1.6990 O.2     1  UNL1       -0.3000
      5  C          6.2880   -0.6500    1.4710 C.3     1  UNL1        0.0430
      6  C          7.3060   -1.0590    0.4860 C.2     1  UNL1       -0.0440
      7  C          8.6680   -1.0790    0.8050 C.2     1  UNL1        0.0080
      8  C          6.9170   -1.4350   -0.7800 C.2     1  UNL1        0.0540
      9  C          9.5770   -1.4720   -0.1610 C.2     1  UNL1        0.0510
     10  C          7.8400   -1.8320   -1.7520 C.2     1  UNL1        0.1660
     11  C          9.1810   -1.8510   -1.4400 C.2     1  UNL1        0.1650
     12  O          7.7070   -2.2440   -3.0610 O.2     1  UNL1       -0.4540
     13  O          9.8510   -2.2790   -2.5750 O.2     1  UNL1       -0.4540
     14  C          8.9480   -2.6260   -3.5980 C.3     1  UNL1        0.4680
@<TRIPOS>BOND
     1    14    12    1
     2    14    13    1
     3    12    10    1
     4    13    11    1
     5    10    11    2
     6    10     8    1
     7    11     9    1
     8     8     6    2
     9     3     2    1
    10     9     7    2
    11     6     7    1
    12     6     5    1
    13     2     4    2
    14     2     1    1
    15     5     1    1
