MODEL 1
REMARK VINA RESULT:      -7.6      0.000      0.000
REMARK SMILES CC(=O)CCc1ccc2c(c1)OCO2
REMARK SMILES IDX 4 1 2 2 1 3 3 4 5 5 6 6 7 7 11 8 8 9 10 10 9 11 12 12 14 13
REMARK SMILES IDX 13 14
REMARK H PARENT
REMARK Flexibility Score: inf
ROOT
ATOM      1  C   UNL     1       5.547   1.882   1.300  1.00  0.00     0.080 C 
ENDROOT
BRANCH   1   2
ATOM      2  C   UNL     1       5.097   0.663   2.028  1.00  0.00     0.130 C 
ATOM      3  C   UNL     1       5.983  -0.521   2.190  1.00  0.00     0.087 C 
ATOM      4  O   UNL     1       3.980   0.601   2.515  1.00  0.00    -0.300 OA
ENDBRANCH   1   2
BRANCH   1   5
ATOM      5  C   UNL     1       5.412   1.709  -0.200  1.00  0.00     0.043 C 
BRANCH   5   6
ATOM      6  C   UNL     1       6.578   1.017  -0.777  1.00  0.00    -0.044 A 
ATOM      7  C   UNL     1       7.884   1.469  -0.554  1.00  0.00     0.008 A 
ATOM      8  C   UNL     1       6.391  -0.103  -1.554  1.00  0.00     0.054 A 
ATOM      9  C   UNL     1       8.939   0.779  -1.120  1.00  0.00     0.051 A 
ATOM     10  C   UNL     1       7.461  -0.798  -2.125  1.00  0.00     0.166 A 
ATOM     11  C   UNL     1       8.746  -0.353  -1.906  1.00  0.00     0.165 A 
ATOM     12  O   UNL     1       7.535  -1.920  -2.923  1.00  0.00    -0.454 OA
ATOM     13  O   UNL     1       9.591  -1.221  -2.581  1.00  0.00    -0.454 OA
ATOM     14  C   UNL     1       8.871  -2.281  -3.164  1.00  0.00     0.468 C 
ENDBRANCH   5   6
ENDBRANCH   1   5
TORSDOF 3
ENDMDL
MODEL 2
REMARK VINA RESULT:      -7.5      1.912      2.377
REMARK SMILES CC(=O)CCc1ccc2c(c1)OCO2
REMARK SMILES IDX 4 1 2 2 1 3 3 4 5 5 6 6 7 7 11 8 8 9 10 10 9 11 12 12 14 13
REMARK SMILES IDX 13 14
REMARK H PARENT
REMARK Flexibility Score: inf
ROOT
ATOM      1  C   UNL     1       5.697   1.352  -0.314  1.00  0.00     0.080 C 
ENDROOT
BRANCH   1   2
ATOM      2  C   UNL     1       5.091   1.267   1.044  1.00  0.00     0.130 C 
ATOM      3  C   UNL     1       5.364   0.120   1.951  1.00  0.00     0.087 C 
ATOM      4  O   UNL     1       4.347   2.144   1.454  1.00  0.00    -0.300 OA
ENDBRANCH   1   2
BRANCH   1   5
ATOM      5  C   UNL     1       7.195   1.128  -0.263  1.00  0.00     0.043 C 
BRANCH   5   6
ATOM      6  C   UNL     1       7.575  -0.165  -0.860  1.00  0.00    -0.044 A 
ATOM      7  C   UNL     1       7.642  -0.341  -2.246  1.00  0.00     0.008 A 
ATOM      8  C   UNL     1       7.876  -1.231  -0.043  1.00  0.00     0.054 A 
ATOM      9  C   UNL     1       8.006  -1.577  -2.749  1.00  0.00     0.051 A 
ATOM     10  C   UNL     1       8.244  -2.478  -0.556  1.00  0.00     0.166 A 
ATOM     11  C   UNL     1       8.309  -2.653  -1.920  1.00  0.00     0.165 A 
ATOM     12  O   UNL     1       8.584  -3.675   0.038  1.00  0.00    -0.454 OA
ATOM     13  O   UNL     1       8.693  -3.967  -2.138  1.00  0.00    -0.454 OA
ATOM     14  C   UNL     1       8.966  -4.625  -0.924  1.00  0.00     0.468 C 
ENDBRANCH   5   6
ENDBRANCH   1   5
TORSDOF 3
ENDMDL
MODEL 3
REMARK VINA RESULT:      -7.2      2.063      2.641
REMARK SMILES CC(=O)CCc1ccc2c(c1)OCO2
REMARK SMILES IDX 4 1 2 2 1 3 3 4 5 5 6 6 7 7 11 8 8 9 10 10 9 11 12 12 14 13
REMARK SMILES IDX 13 14
REMARK H PARENT
REMARK Flexibility Score: inf
ROOT
ATOM      1  C   UNL     1       5.445  -0.063   1.967  1.00  0.00     0.080 C 
ENDROOT
BRANCH   1   2
ATOM      2  C   UNL     1       4.606   1.140   1.703  1.00  0.00     0.130 C 
ATOM      3  C   UNL     1       4.952   2.113   0.633  1.00  0.00     0.087 C 
ATOM      4  O   UNL     1       3.604   1.362   2.363  1.00  0.00    -0.300 OA
ENDBRANCH   1   2
BRANCH   1   5
ATOM      5  C   UNL     1       6.883   0.166   1.547  1.00  0.00     0.043 C 
BRANCH   5   6
ATOM      6  C   UNL     1       7.298  -0.771   0.487  1.00  0.00    -0.044 A 
ATOM      7  C   UNL     1       7.129  -0.466  -0.868  1.00  0.00     0.008 A 
ATOM      8  C   UNL     1       7.869  -1.976   0.828  1.00  0.00     0.054 A 
ATOM      9  C   UNL     1       7.538  -1.384  -1.818  1.00  0.00     0.051 A 
ATOM     10  C   UNL     1       8.282  -2.900  -0.137  1.00  0.00     0.166 A 
ATOM     11  C   UNL     1       8.115  -2.602  -1.471  1.00  0.00     0.165 A 
ATOM     12  O   UNL     1       8.866  -4.146  -0.055  1.00  0.00    -0.454 OA
ATOM     13  O   UNL     1       8.606  -3.682  -2.187  1.00  0.00    -0.454 OA
ATOM     14  C   UNL     1       9.174  -4.644  -1.331  1.00  0.00     0.468 C 
ENDBRANCH   5   6
ENDBRANCH   1   5
TORSDOF 3
ENDMDL
MODEL 4
REMARK VINA RESULT:      -7.1      1.236      1.436
REMARK SMILES CC(=O)CCc1ccc2c(c1)OCO2
REMARK SMILES IDX 4 1 2 2 1 3 3 4 5 5 6 6 7 7 11 8 8 9 10 10 9 11 12 12 14 13
REMARK SMILES IDX 13 14
REMARK H PARENT
REMARK Flexibility Score: inf
ROOT
ATOM      1  C   UNL     1       6.388   1.273   0.903  1.00  0.00     0.080 C 
ENDROOT
BRANCH   1   2
ATOM      2  C   UNL     1       5.705   0.410   1.907  1.00  0.00     0.130 C 
ATOM      3  C   UNL     1       6.371  -0.787   2.488  1.00  0.00     0.087 C 
ATOM      4  O   UNL     1       4.572   0.662   2.283  1.00  0.00    -0.300 OA
ENDBRANCH   1   2
BRANCH   1   5
ATOM      5  C   UNL     1       5.880   0.995  -0.498  1.00  0.00     0.043 C 
BRANCH   5   6
ATOM      6  C   UNL     1       6.818   0.153  -1.262  1.00  0.00    -0.044 A 
ATOM      7  C   UNL     1       7.514   0.652  -2.370  1.00  0.00     0.008 A 
ATOM      8  C   UNL     1       7.024  -1.154  -0.885  1.00  0.00     0.054 A 
ATOM      9  C   UNL     1       8.382  -0.184  -3.048  1.00  0.00     0.051 A 
ATOM     10  C   UNL     1       7.904  -1.995  -1.574  1.00  0.00     0.166 A 
ATOM     11  C   UNL     1       8.588  -1.506  -2.665  1.00  0.00     0.165 A 
ATOM     12  O   UNL     1       8.276  -3.311  -1.400  1.00  0.00    -0.454 OA
ATOM     13  O   UNL     1       9.375  -2.543  -3.142  1.00  0.00    -0.454 OA
ATOM     14  C   UNL     1       9.276  -3.678  -2.316  1.00  0.00     0.468 C 
ENDBRANCH   5   6
ENDBRANCH   1   5
TORSDOF 3
ENDMDL
MODEL 5
REMARK VINA RESULT:      -7.0      1.969      2.662
REMARK SMILES CC(=O)CCc1ccc2c(c1)OCO2
REMARK SMILES IDX 4 1 2 2 1 3 3 4 5 5 6 6 7 7 11 8 8 9 10 10 9 11 12 12 14 13
REMARK SMILES IDX 13 14
REMARK H PARENT
REMARK Flexibility Score: inf
ROOT
ATOM      1  C   UNL     1       6.599   0.945   1.099  1.00  0.00     0.080 C 
ENDROOT
BRANCH   1   2
ATOM      2  C   UNL     1       5.329   1.638   0.744  1.00  0.00     0.130 C 
ATOM      3  C   UNL     1       5.076   2.150  -0.629  1.00  0.00     0.087 C 
ATOM      4  O   UNL     1       4.454   1.808   1.578  1.00  0.00    -0.300 OA
ENDBRANCH   1   2
BRANCH   1   5
ATOM      5  C   UNL     1       7.620   1.065  -0.015  1.00  0.00     0.043 C 
BRANCH   5   6
ATOM      6  C   UNL     1       7.852  -0.227  -0.685  1.00  0.00    -0.044 A 
ATOM      7  C   UNL     1       7.792  -0.352  -2.078  1.00  0.00     0.008 A 
ATOM      8  C   UNL     1       8.136  -1.345   0.066  1.00  0.00     0.054 A 
ATOM      9  C   UNL     1       8.019  -1.590  -2.652  1.00  0.00     0.051 A 
ATOM     10  C   UNL     1       8.365  -2.594  -0.518  1.00  0.00     0.166 A 
ATOM     11  C   UNL     1       8.305  -2.717  -1.888  1.00  0.00     0.165 A 
ATOM     12  O   UNL     1       8.661  -3.835   0.003  1.00  0.00    -0.454 OA
ATOM     13  O   UNL     1       8.570  -4.046  -2.183  1.00  0.00    -0.454 OA
ATOM     14  C   UNL     1       8.890  -4.770  -1.019  1.00  0.00     0.468 C 
ENDBRANCH   5   6
ENDBRANCH   1   5
TORSDOF 3
ENDMDL
