@<TRIPOS>MOLECULE
/home/cewinharhar/GITHUB/reincatalyze/data/processed/docking_pred/2023-May-25-1902_sub9_nm5_bs15_s42_ex16_mel10_mts10000_k50_ec01_g099_lra3e-4_lrc3e-3/4e2e003c692afcef440410ba16f5bc8e831af6c9_ligand_9.pdbqt
 14 15 0 0 0
SMALL
GASTEIGER

@<TRIPOS>ATOM
      1  C          6.5990    0.9450    1.0990 C.3     1  UNL1        0.0800
      2  C          5.3290    1.6380    0.7440 C.2     1  UNL1        0.1300
      3  C          5.0760    2.1500   -0.6290 C.3     1  UNL1        0.0870
      4  O          4.4540    1.8080    1.5780 O.2     1  UNL1       -0.3000
      5  C          7.6200    1.0650   -0.0150 C.3     1  UNL1        0.0430
      6  C          7.8520   -0.2270   -0.6850 C.2     1  UNL1       -0.0440
      7  C          7.7920   -0.3520   -2.0780 C.2     1  UNL1        0.0080
      8  C          8.1360   -1.3450    0.0660 C.2     1  UNL1        0.0540
      9  C          8.0190   -1.5900   -2.6520 C.2     1  UNL1        0.0510
     10  C          8.3650   -2.5940   -0.5180 C.2     1  UNL1        0.1660
     11  C          8.3050   -2.7170   -1.8880 C.2     1  UNL1        0.1650
     12  O          8.6610   -3.8350    0.0030 O.2     1  UNL1       -0.4540
     13  O          8.5700   -4.0460   -2.1830 O.2     1  UNL1       -0.4540
     14  C          8.8900   -4.7700   -1.0190 C.3     1  UNL1        0.4680
@<TRIPOS>BOND
     1     9     7    1
     2     9    11    2
     3    13    11    1
     4    13    14    1
     5     7     6    2
     6    11    10    1
     7    14    12    1
     8     6     5    1
     9     6     8    1
    10     3     2    1
    11    10    12    1
    12    10     8    2
    13     5     1    1
    14     2     1    1
    15     2     4    2
