@<TRIPOS>MOLECULE
/home/cewinharhar/GITHUB/reincatalyze/data/processed/docking_pred/2023-May-25-1902_sub9_nm5_bs15_s42_ex16_mel10_mts10000_k50_ec01_g099_lra3e-4_lrc3e-3/4e2e003c692afcef440410ba16f5bc8e831af6c9_ligand_9.pdbqt
 14 15 0 0 0
SMALL
GASTEIGER

@<TRIPOS>ATOM
      1  C          5.6970    1.3520   -0.3140 C.3     1  UNL1        0.0800
      2  C          5.0910    1.2670    1.0440 C.2     1  UNL1        0.1300
      3  C          5.3640    0.1200    1.9510 C.3     1  UNL1        0.0870
      4  O          4.3470    2.1440    1.4540 O.2     1  UNL1       -0.3000
      5  C          7.1950    1.1280   -0.2630 C.3     1  UNL1        0.0430
      6  C          7.5750   -0.1650   -0.8600 C.2     1  UNL1       -0.0440
      7  C          7.6420   -0.3410   -2.2460 C.2     1  UNL1        0.0080
      8  C          7.8760   -1.2310   -0.0430 C.2     1  UNL1        0.0540
      9  C          8.0060   -1.5770   -2.7490 C.2     1  UNL1        0.0510
     10  C          8.2440   -2.4780   -0.5560 C.2     1  UNL1        0.1660
     11  C          8.3090   -2.6530   -1.9200 C.2     1  UNL1        0.1650
     12  O          8.5840   -3.6750    0.0380 O.2     1  UNL1       -0.4540
     13  O          8.6930   -3.9670   -2.1380 O.2     1  UNL1       -0.4540
     14  C          8.9660   -4.6250   -0.9240 C.3     1  UNL1        0.4680
@<TRIPOS>BOND
     1     9     7    1
     2     9    11    2
     3     7     6    2
     4    13    11    1
     5    13    14    1
     6    11    10    1
     7    14    12    1
     8     6     5    1
     9     6     8    1
    10    10     8    2
    11    10    12    1
    12     1     5    1
    13     1     2    1
    14     2     4    2
    15     2     3    1
