@<TRIPOS>MOLECULE
/home/cewinharhar/GITHUB/reincatalyze/data/processed/docking_pred/2023-May-25-1902_sub9_nm5_bs15_s42_ex16_mel10_mts10000_k50_ec01_g099_lra3e-4_lrc3e-3/4e2e003c692afcef440410ba16f5bc8e831af6c9_ligand_9.pdbqt
 14 15 0 0 0
SMALL
GASTEIGER

@<TRIPOS>ATOM
      1  C          6.3880    1.2730    0.9030 C.3     1  UNL1        0.0800
      2  C          5.7050    0.4100    1.9070 C.2     1  UNL1        0.1300
      3  C          6.3710   -0.7870    2.4880 C.3     1  UNL1        0.0870
      4  O          4.5720    0.6620    2.2830 O.2     1  UNL1       -0.3000
      5  C          5.8800    0.9950   -0.4980 C.3     1  UNL1        0.0430
      6  C          6.8180    0.1530   -1.2620 C.2     1  UNL1       -0.0440
      7  C          7.5140    0.6520   -2.3700 C.2     1  UNL1        0.0080
      8  C          7.0240   -1.1540   -0.8850 C.2     1  UNL1        0.0540
      9  C          8.3820   -0.1840   -3.0480 C.2     1  UNL1        0.0510
     10  C          7.9040   -1.9950   -1.5740 C.2     1  UNL1        0.1660
     11  C          8.5880   -1.5060   -2.6650 C.2     1  UNL1        0.1650
     12  O          8.2760   -3.3110   -1.4000 O.2     1  UNL1       -0.4540
     13  O          9.3750   -2.5430   -3.1420 O.2     1  UNL1       -0.4540
     14  C          9.2760   -3.6780   -2.3160 C.3     1  UNL1        0.4680
@<TRIPOS>BOND
     1    13    11    1
     2    13    14    1
     3     9    11    2
     4     9     7    1
     5    11    10    1
     6     7     6    2
     7    14    12    1
     8    10    12    1
     9    10     8    2
    10     6     8    1
    11     6     5    1
    12     5     1    1
    13     1     2    1
    14     2     4    2
    15     2     3    1
