MODEL 1
REMARK VINA RESULT:      -7.7      0.000      0.000
REMARK SMILES CC(=O)CCc1ccc2c(c1)OCO2
REMARK SMILES IDX 4 1 2 2 1 3 3 4 5 5 6 6 7 7 11 8 8 9 10 10 9 11 12 12 14 13
REMARK SMILES IDX 13 14
REMARK H PARENT
REMARK Flexibility Score: inf
ROOT
ATOM      1  C   UNL     1       5.518   1.922   1.262  1.00  0.00     0.080 C 
ENDROOT
BRANCH   1   2
ATOM      2  C   UNL     1       5.086   0.705   2.005  1.00  0.00     0.130 C 
ATOM      3  C   UNL     1       5.988  -0.464   2.180  1.00  0.00     0.087 C 
ATOM      4  O   UNL     1       3.969   0.633   2.493  1.00  0.00    -0.300 OA
ENDBRANCH   1   2
BRANCH   1   5
ATOM      5  C   UNL     1       5.392   1.727  -0.236  1.00  0.00     0.043 C 
BRANCH   5   6
ATOM      6  C   UNL     1       6.561   1.024  -0.795  1.00  0.00    -0.044 A 
ATOM      7  C   UNL     1       7.867   1.458  -0.543  1.00  0.00     0.008 A 
ATOM      8  C   UNL     1       6.375  -0.088  -1.584  1.00  0.00     0.054 A 
ATOM      9  C   UNL     1       8.925   0.758  -1.094  1.00  0.00     0.051 A 
ATOM     10  C   UNL     1       7.448  -0.792  -2.139  1.00  0.00     0.166 A 
ATOM     11  C   UNL     1       8.733  -0.365  -1.892  1.00  0.00     0.165 A 
ATOM     12  O   UNL     1       7.523  -1.909  -2.944  1.00  0.00    -0.454 OA
ATOM     13  O   UNL     1       9.580  -1.238  -2.557  1.00  0.00    -0.454 OA
ATOM     14  C   UNL     1       8.859  -2.284  -3.162  1.00  0.00     0.468 C 
ENDBRANCH   5   6
ENDBRANCH   1   5
TORSDOF 3
ENDMDL
MODEL 2
REMARK VINA RESULT:      -7.5      1.907      2.352
REMARK SMILES CC(=O)CCc1ccc2c(c1)OCO2
REMARK SMILES IDX 4 1 2 2 1 3 3 4 5 5 6 6 7 7 11 8 8 9 10 10 9 11 12 12 14 13
REMARK SMILES IDX 13 14
REMARK H PARENT
REMARK Flexibility Score: inf
ROOT
ATOM      1  C   UNL     1       5.735   1.389  -0.253  1.00  0.00     0.080 C 
ENDROOT
BRANCH   1   2
ATOM      2  C   UNL     1       5.097   1.270   1.088  1.00  0.00     0.130 C 
ATOM      3  C   UNL     1       5.378   0.119   1.986  1.00  0.00     0.087 C 
ATOM      4  O   UNL     1       4.319   2.120   1.489  1.00  0.00    -0.300 OA
ENDBRANCH   1   2
BRANCH   1   5
ATOM      5  C   UNL     1       7.227   1.132  -0.177  1.00  0.00     0.043 C 
BRANCH   5   6
ATOM      6  C   UNL     1       7.593  -0.150  -0.805  1.00  0.00    -0.044 A 
ATOM      7  C   UNL     1       7.643  -0.297  -2.196  1.00  0.00     0.008 A 
ATOM      8  C   UNL     1       7.898  -1.235  -0.014  1.00  0.00     0.054 A 
ATOM      9  C   UNL     1       7.994  -1.524  -2.729  1.00  0.00     0.051 A 
ATOM     10  C   UNL     1       8.253  -2.473  -0.558  1.00  0.00     0.166 A 
ATOM     11  C   UNL     1       8.301  -2.619  -1.926  1.00  0.00     0.165 A 
ATOM     12  O   UNL     1       8.594  -3.684   0.006  1.00  0.00    -0.454 OA
ATOM     13  O   UNL     1       8.675  -3.930  -2.177  1.00  0.00    -0.454 OA
ATOM     14  C   UNL     1       8.959  -4.615  -0.980  1.00  0.00     0.468 C 
ENDBRANCH   5   6
ENDBRANCH   1   5
TORSDOF 3
ENDMDL
MODEL 3
REMARK VINA RESULT:      -7.2      2.056      2.637
REMARK SMILES CC(=O)CCc1ccc2c(c1)OCO2
REMARK SMILES IDX 4 1 2 2 1 3 3 4 5 5 6 6 7 7 11 8 8 9 10 10 9 11 12 12 14 13
REMARK SMILES IDX 13 14
REMARK H PARENT
REMARK Flexibility Score: inf
ROOT
ATOM      1  C   UNL     1       5.385  -0.088   2.016  1.00  0.00     0.080 C 
ENDROOT
BRANCH   1   2
ATOM      2  C   UNL     1       4.554   1.124   1.774  1.00  0.00     0.130 C 
ATOM      3  C   UNL     1       4.911   2.120   0.728  1.00  0.00     0.087 C 
ATOM      4  O   UNL     1       3.549   1.337   2.433  1.00  0.00    -0.300 OA
ENDBRANCH   1   2
BRANCH   1   5
ATOM      5  C   UNL     1       6.832   0.151   1.631  1.00  0.00     0.043 C 
BRANCH   5   6
ATOM      6  C   UNL     1       7.270  -0.763   0.561  1.00  0.00    -0.044 A 
ATOM      7  C   UNL     1       7.153  -0.420  -0.790  1.00  0.00     0.008 A 
ATOM      8  C   UNL     1       7.812  -1.986   0.889  1.00  0.00     0.054 A 
ATOM      9  C   UNL     1       7.583  -1.318  -1.750  1.00  0.00     0.051 A 
ATOM     10  C   UNL     1       8.245  -2.890  -0.086  1.00  0.00     0.166 A 
ATOM     11  C   UNL     1       8.129  -2.554  -1.416  1.00  0.00     0.165 A 
ATOM     12  O   UNL     1       8.808  -4.147  -0.017  1.00  0.00    -0.454 OA
ATOM     13  O   UNL     1       8.630  -3.621  -2.145  1.00  0.00    -0.454 OA
ATOM     14  C   UNL     1       9.154  -4.614  -1.296  1.00  0.00     0.468 C 
ENDBRANCH   5   6
ENDBRANCH   1   5
TORSDOF 3
ENDMDL
MODEL 4
REMARK VINA RESULT:      -7.1      1.259      1.470
REMARK SMILES CC(=O)CCc1ccc2c(c1)OCO2
REMARK SMILES IDX 4 1 2 2 1 3 3 4 5 5 6 6 7 7 11 8 8 9 10 10 9 11 12 12 14 13
REMARK SMILES IDX 13 14
REMARK H PARENT
REMARK Flexibility Score: inf
ROOT
ATOM      1  C   UNL     1       6.376   1.200   0.954  1.00  0.00     0.080 C 
ENDROOT
BRANCH   1   2
ATOM      2  C   UNL     1       5.640   0.371   1.948  1.00  0.00     0.130 C 
ATOM      3  C   UNL     1       6.242  -0.852   2.544  1.00  0.00     0.087 C 
ATOM      4  O   UNL     1       4.513   0.674   2.305  1.00  0.00    -0.300 OA
ENDBRANCH   1   2
BRANCH   1   5
ATOM      5  C   UNL     1       5.872   0.948  -0.454  1.00  0.00     0.043 C 
BRANCH   5   6
ATOM      6  C   UNL     1       6.809   0.114  -1.228  1.00  0.00    -0.044 A 
ATOM      7  C   UNL     1       7.466   0.609  -2.360  1.00  0.00     0.008 A 
ATOM      8  C   UNL     1       7.052  -1.182  -0.836  1.00  0.00     0.054 A 
ATOM      9  C   UNL     1       8.335  -0.219  -3.047  1.00  0.00     0.051 A 
ATOM     10  C   UNL     1       7.932  -2.016  -1.534  1.00  0.00     0.166 A 
ATOM     11  C   UNL     1       8.578  -1.530  -2.649  1.00  0.00     0.165 A 
ATOM     12  O   UNL     1       8.335  -3.321  -1.349  1.00  0.00    -0.454 OA
ATOM     13  O   UNL     1       9.374  -2.558  -3.130  1.00  0.00    -0.454 OA
ATOM     14  C   UNL     1       9.320  -3.682  -2.284  1.00  0.00     0.468 C 
ENDBRANCH   5   6
ENDBRANCH   1   5
TORSDOF 3
ENDMDL
MODEL 5
REMARK VINA RESULT:      -7.1      1.993      2.568
REMARK SMILES CC(=O)CCc1ccc2c(c1)OCO2
REMARK SMILES IDX 4 1 2 2 1 3 3 4 5 5 6 6 7 7 11 8 8 9 10 10 9 11 12 12 14 13
REMARK SMILES IDX 13 14
REMARK H PARENT
REMARK Flexibility Score: inf
ROOT
ATOM      1  C   UNL     1       6.791   0.673   1.433  1.00  0.00     0.080 C 
ENDROOT
BRANCH   1   2
ATOM      2  C   UNL     1       5.385   1.161   1.478  1.00  0.00     0.130 C 
ATOM      3  C   UNL     1       4.869   2.148   0.492  1.00  0.00     0.087 C 
ATOM      4  O   UNL     1       4.611   0.763   2.333  1.00  0.00    -0.300 OA
ENDBRANCH   1   2
BRANCH   1   5
ATOM      5  C   UNL     1       7.417   0.921   0.075  1.00  0.00     0.043 C 
BRANCH   5   6
ATOM      6  C   UNL     1       7.721  -0.340  -0.625  1.00  0.00    -0.044 A 
ATOM      7  C   UNL     1       7.703  -0.425  -2.022  1.00  0.00     0.008 A 
ATOM      8  C   UNL     1       8.034  -1.465   0.102  1.00  0.00     0.054 A 
ATOM      9  C   UNL     1       7.998  -1.635  -2.624  1.00  0.00     0.051 A 
ATOM     10  C   UNL     1       8.332  -2.686  -0.512  1.00  0.00     0.166 A 
ATOM     11  C   UNL     1       8.313  -2.771  -1.886  1.00  0.00     0.165 A 
ATOM     12  O   UNL     1       8.668  -3.928  -0.018  1.00  0.00    -0.454 OA
ATOM     13  O   UNL     1       8.642  -4.078  -2.211  1.00  0.00    -0.454 OA
ATOM     14  C   UNL     1       8.964  -4.822  -1.060  1.00  0.00     0.468 C 
ENDBRANCH   5   6
ENDBRANCH   1   5
TORSDOF 3
ENDMDL
