@<TRIPOS>MOLECULE
/home/cewinharhar/GITHUB/reincatalyze/data/processed/docking_pred/2023-May-25-1902_sub9_nm5_bs15_s42_ex16_mel10_mts10000_k50_ec01_g099_lra3e-4_lrc3e-3/4f8338f1f65f27d68c3e57a6b5041c9c59ec4c55_ligand_9.pdbqt
 14 15 0 0 0
SMALL
GASTEIGER

@<TRIPOS>ATOM
      1  C          5.5180    1.9220    1.2620 C.3     1  UNL1        0.0800
      2  C          5.0860    0.7050    2.0050 C.2     1  UNL1        0.1300
      3  C          5.9880   -0.4640    2.1800 C.3     1  UNL1        0.0870
      4  O          3.9690    0.6330    2.4930 O.2     1  UNL1       -0.3000
      5  C          5.3920    1.7270   -0.2360 C.3     1  UNL1        0.0430
      6  C          6.5610    1.0240   -0.7950 C.2     1  UNL1       -0.0440
      7  C          7.8670    1.4580   -0.5430 C.2     1  UNL1        0.0080
      8  C          6.3750   -0.0880   -1.5840 C.2     1  UNL1        0.0540
      9  C          8.9250    0.7580   -1.0940 C.2     1  UNL1        0.0510
     10  C          7.4480   -0.7920   -2.1390 C.2     1  UNL1        0.1660
     11  C          8.7330   -0.3650   -1.8920 C.2     1  UNL1        0.1650
     12  O          7.5230   -1.9090   -2.9440 O.2     1  UNL1       -0.4540
     13  O          9.5800   -1.2380   -2.5570 O.2     1  UNL1       -0.4540
     14  C          8.8590   -2.2840   -3.1620 C.3     1  UNL1        0.4680
@<TRIPOS>BOND
     1    14    12    1
     2    14    13    1
     3    12    10    1
     4    13    11    1
     5    10    11    2
     6    10     8    1
     7    11     9    1
     8     8     6    2
     9     9     7    2
    10     6     7    1
    11     6     5    1
    12     5     1    1
    13     1     2    1
    14     2     3    1
    15     2     4    2
