@<TRIPOS>MOLECULE
/home/cewinharhar/GITHUB/reincatalyze/data/processed/docking_pred/2023-May-25-1902_sub9_nm5_bs15_s42_ex16_mel10_mts10000_k50_ec01_g099_lra3e-4_lrc3e-3/4f8338f1f65f27d68c3e57a6b5041c9c59ec4c55_ligand_9.pdbqt
 14 15 0 0 0
SMALL
GASTEIGER

@<TRIPOS>ATOM
      1  C          6.7910    0.6730    1.4330 C.3     1  UNL1        0.0800
      2  C          5.3850    1.1610    1.4780 C.2     1  UNL1        0.1300
      3  C          4.8690    2.1480    0.4920 C.3     1  UNL1        0.0870
      4  O          4.6110    0.7630    2.3330 O.2     1  UNL1       -0.3000
      5  C          7.4170    0.9210    0.0750 C.3     1  UNL1        0.0430
      6  C          7.7210   -0.3400   -0.6250 C.2     1  UNL1       -0.0440
      7  C          7.7030   -0.4250   -2.0220 C.2     1  UNL1        0.0080
      8  C          8.0340   -1.4650    0.1020 C.2     1  UNL1        0.0540
      9  C          7.9980   -1.6350   -2.6240 C.2     1  UNL1        0.0510
     10  C          8.3320   -2.6860   -0.5120 C.2     1  UNL1        0.1660
     11  C          8.3130   -2.7710   -1.8860 C.2     1  UNL1        0.1650
     12  O          8.6680   -3.9280   -0.0180 O.2     1  UNL1       -0.4540
     13  O          8.6420   -4.0780   -2.2110 O.2     1  UNL1       -0.4540
     14  C          8.9640   -4.8220   -1.0600 C.3     1  UNL1        0.4680
@<TRIPOS>BOND
     1     9     7    1
     2     9    11    2
     3    13    11    1
     4    13    14    1
     5     7     6    2
     6    11    10    1
     7    14    12    1
     8     6     5    1
     9     6     8    1
    10    10    12    1
    11    10     8    2
    12     5     1    1
    13     3     2    1
    14     1     2    1
    15     2     4    2
