@<TRIPOS>MOLECULE
/home/cewinharhar/GITHUB/reincatalyze/data/processed/docking_pred/2023-May-25-1902_sub9_nm5_bs15_s42_ex16_mel10_mts10000_k50_ec01_g099_lra3e-4_lrc3e-3/4f8338f1f65f27d68c3e57a6b5041c9c59ec4c55_ligand_9.pdbqt
 14 15 0 0 0
SMALL
GASTEIGER

@<TRIPOS>ATOM
      1  C          6.3760    1.2000    0.9540 C.3     1  UNL1        0.0800
      2  C          5.6400    0.3710    1.9480 C.2     1  UNL1        0.1300
      3  C          6.2420   -0.8520    2.5440 C.3     1  UNL1        0.0870
      4  O          4.5130    0.6740    2.3050 O.2     1  UNL1       -0.3000
      5  C          5.8720    0.9480   -0.4540 C.3     1  UNL1        0.0430
      6  C          6.8090    0.1140   -1.2280 C.2     1  UNL1       -0.0440
      7  C          7.4660    0.6090   -2.3600 C.2     1  UNL1        0.0080
      8  C          7.0520   -1.1820   -0.8360 C.2     1  UNL1        0.0540
      9  C          8.3350   -0.2190   -3.0470 C.2     1  UNL1        0.0510
     10  C          7.9320   -2.0160   -1.5340 C.2     1  UNL1        0.1660
     11  C          8.5780   -1.5300   -2.6490 C.2     1  UNL1        0.1650
     12  O          8.3350   -3.3210   -1.3490 O.2     1  UNL1       -0.4540
     13  O          9.3740   -2.5580   -3.1300 O.2     1  UNL1       -0.4540
     14  C          9.3200   -3.6820   -2.2840 C.3     1  UNL1        0.4680
@<TRIPOS>BOND
     1    13    11    1
     2    13    14    1
     3     9    11    2
     4     9     7    1
     5    11    10    1
     6     7     6    2
     7    14    12    1
     8    10    12    1
     9    10     8    2
    10     6     8    1
    11     6     5    1
    12     5     1    1
    13     1     2    1
    14     2     4    2
    15     2     3    1
