@<TRIPOS>MOLECULE
/home/cewinharhar/GITHUB/reincatalyze/data/processed/docking_pred/2023-May-25-1902_sub9_nm5_bs15_s42_ex16_mel10_mts10000_k50_ec01_g099_lra3e-4_lrc3e-3/4f8338f1f65f27d68c3e57a6b5041c9c59ec4c55_ligand_9.pdbqt
 14 15 0 0 0
SMALL
GASTEIGER

@<TRIPOS>ATOM
      1  C          5.7350    1.3890   -0.2530 C.3     1  UNL1        0.0800
      2  C          5.0970    1.2700    1.0880 C.2     1  UNL1        0.1300
      3  C          5.3780    0.1190    1.9860 C.3     1  UNL1        0.0870
      4  O          4.3190    2.1200    1.4890 O.2     1  UNL1       -0.3000
      5  C          7.2270    1.1320   -0.1770 C.3     1  UNL1        0.0430
      6  C          7.5930   -0.1500   -0.8050 C.2     1  UNL1       -0.0440
      7  C          7.6430   -0.2970   -2.1960 C.2     1  UNL1        0.0080
      8  C          7.8980   -1.2350   -0.0140 C.2     1  UNL1        0.0540
      9  C          7.9940   -1.5240   -2.7290 C.2     1  UNL1        0.0510
     10  C          8.2530   -2.4730   -0.5580 C.2     1  UNL1        0.1660
     11  C          8.3010   -2.6190   -1.9260 C.2     1  UNL1        0.1650
     12  O          8.5940   -3.6840    0.0060 O.2     1  UNL1       -0.4540
     13  O          8.6750   -3.9300   -2.1770 O.2     1  UNL1       -0.4540
     14  C          8.9590   -4.6150   -0.9800 C.3     1  UNL1        0.4680
@<TRIPOS>BOND
     1     9     7    1
     2     9    11    2
     3     7     6    2
     4    13    11    1
     5    13    14    1
     6    11    10    1
     7    14    12    1
     8     6     5    1
     9     6     8    1
    10    10     8    2
    11    10    12    1
    12     1     5    1
    13     1     2    1
    14     2     4    2
    15     2     3    1
