@<TRIPOS>MOLECULE
/home/cewinharhar/GITHUB/reincatalyze/data/processed/docking_pred/2023-May-25-1902_sub9_nm5_bs15_s42_ex16_mel10_mts10000_k50_ec01_g099_lra3e-4_lrc3e-3/4f8485ffa73320ccf1b94cd7b1ea99ef776c762b_ligand_9.pdbqt
 14 15 0 0 0
SMALL
GASTEIGER

@<TRIPOS>ATOM
      1  C          5.3470   -0.0410    1.9450 C.3     1  UNL1        0.0800
      2  C          5.2640    1.1180    1.0120 C.2     1  UNL1        0.1300
      3  C          5.9220    1.0950   -0.3210 C.3     1  UNL1        0.0870
      4  O          4.6500    2.1270    1.3190 O.2     1  UNL1       -0.3000
      5  C          6.0550   -1.2170    1.3010 C.3     1  UNL1        0.0430
      6  C          7.3070   -1.5510    2.0030 C.2     1  UNL1       -0.0440
      7  C          8.3220   -2.2870    1.3800 C.2     1  UNL1        0.0080
      8  C          7.4950   -1.1340    3.3010 C.2     1  UNL1        0.0540
      9  C          9.4760   -2.5710    2.0870 C.2     1  UNL1        0.0510
     10  C          8.6630   -1.4230    4.0110 C.2     1  UNL1        0.1660
     11  C          9.6620   -2.1470    3.4000 C.2     1  UNL1        0.1650
     12  O          9.0830   -1.1260    5.2910 O.2     1  UNL1       -0.4540
     13  O         10.6850   -2.2810    4.3260 O.2     1  UNL1       -0.4540
     14  C         10.3970   -1.5710    5.5070 C.3     1  UNL1        0.4680
@<TRIPOS>BOND
     1     3     2    1
     2     2     4    2
     3     2     1    1
     4     5     1    1
     5     5     6    1
     6     7     6    2
     7     7     9    1
     8     6     8    1
     9     9    11    2
    10     8    10    2
    11    11    10    1
    12    11    13    1
    13    10    12    1
    14    13    14    1
    15    12    14    1
