@<TRIPOS>MOLECULE
/home/cewinharhar/GITHUB/reincatalyze/data/processed/docking_pred/2023-May-25-1902_sub9_nm5_bs15_s42_ex16_mel10_mts10000_k50_ec01_g099_lra3e-4_lrc3e-3/4fd116288ae20ad94bf91d23a53b6bc9c92e4cae_ligand_9.pdbqt
 14 15 0 0 0
SMALL
GASTEIGER

@<TRIPOS>ATOM
      1  C          5.7480    1.4050   -0.3190 C.3     1  UNL1        0.0800
      2  C          5.0830    1.3120    1.0110 C.2     1  UNL1        0.1300
      3  C          5.3950    0.2150    1.9650 C.3     1  UNL1        0.0870
      4  O          4.2570    2.1410    1.3580 O.2     1  UNL1       -0.3000
      5  C          7.2350    1.1350   -0.2110 C.3     1  UNL1        0.0430
      6  C          7.6030   -0.1540   -0.8250 C.2     1  UNL1       -0.0440
      7  C          7.6660   -0.3120   -2.2140 C.2     1  UNL1        0.0080
      8  C          7.8950   -1.2330   -0.0230 C.2     1  UNL1        0.0540
      9  C          8.0180   -1.5450   -2.7340 C.2     1  UNL1        0.0510
     10  C          8.2500   -2.4770   -0.5530 C.2     1  UNL1        0.1660
     11  C          8.3120   -2.6340   -1.9190 C.2     1  UNL1        0.1650
     12  O          8.5800   -3.6850    0.0250 O.2     1  UNL1       -0.4540
     13  O          8.6830   -3.9490   -2.1560 O.2     1  UNL1       -0.4540
     14  C          8.9520   -4.6250   -0.9510 C.3     1  UNL1        0.4680
@<TRIPOS>BOND
     1     9     7    1
     2     9    11    2
     3     7     6    2
     4    13    11    1
     5    13    14    1
     6    11    10    1
     7    14    12    1
     8     6     5    1
     9     6     8    1
    10    10     8    2
    11    10    12    1
    12     1     5    1
    13     1     2    1
    14     2     4    2
    15     2     3    1
