@<TRIPOS>MOLECULE
/home/cewinharhar/GITHUB/reincatalyze/data/processed/docking_pred/2023-May-25-1902_sub9_nm5_bs15_s42_ex16_mel10_mts10000_k50_ec01_g099_lra3e-4_lrc3e-3/4fd116288ae20ad94bf91d23a53b6bc9c92e4cae_ligand_9.pdbqt
 14 15 0 0 0
SMALL
GASTEIGER

@<TRIPOS>ATOM
      1  C          6.8130    0.8460    1.4570 C.3     1  UNL1        0.0800
      2  C          5.3520    1.1260    1.5260 C.2     1  UNL1        0.1300
      3  C          4.7080    2.1360    0.6440 C.3     1  UNL1        0.0870
      4  O          4.6360    0.5310    2.3160 O.2     1  UNL1       -0.3000
      5  C          7.3500    1.0680    0.0570 C.3     1  UNL1        0.0430
      6  C          7.6750   -0.2050   -0.6120 C.2     1  UNL1       -0.0440
      7  C          7.6880   -0.3170   -2.0070 C.2     1  UNL1        0.0080
      8  C          7.9770   -1.3150    0.1430 C.2     1  UNL1        0.0540
      9  C          8.0020   -1.5370   -2.5790 C.2     1  UNL1        0.0510
     10  C          8.2940   -2.5450   -0.4400 C.2     1  UNL1        0.1660
     11  C          8.3060   -2.6570   -1.8120 C.2     1  UNL1        0.1650
     12  O          8.6230   -3.7770    0.0850 O.2     1  UNL1       -0.4540
     13  O          8.6470   -3.9680   -2.1050 O.2     1  UNL1       -0.4540
     14  C          8.9460   -4.6890   -0.9330 C.3     1  UNL1        0.4680
@<TRIPOS>BOND
     1     9     7    1
     2     9    11    2
     3    13    11    1
     4    13    14    1
     5     7     6    2
     6    11    10    1
     7    14    12    1
     8     6     5    1
     9     6     8    1
    10    10    12    1
    11    10     8    2
    12     5     1    1
    13     3     2    1
    14     1     2    1
    15     2     4    2
