MODEL 1
REMARK VINA RESULT:      -7.6      0.000      0.000
REMARK SMILES CC(=O)CCc1ccc2c(c1)OCO2
REMARK SMILES IDX 4 1 2 2 1 3 3 4 5 5 6 6 7 7 11 8 8 9 10 10 9 11 12 12 14 13
REMARK SMILES IDX 13 14
REMARK H PARENT
REMARK Flexibility Score: inf
ROOT
ATOM      1  C   UNL     1       5.550   1.917   1.279  1.00  0.00     0.080 C 
ENDROOT
BRANCH   1   2
ATOM      2  C   UNL     1       5.120   0.698   2.019  1.00  0.00     0.130 C 
ATOM      3  C   UNL     1       6.027  -0.466   2.200  1.00  0.00     0.087 C 
ATOM      4  O   UNL     1       4.001   0.620   2.500  1.00  0.00    -0.300 OA
ENDBRANCH   1   2
BRANCH   1   5
ATOM      5  C   UNL     1       5.416   1.728  -0.219  1.00  0.00     0.043 C 
BRANCH   5   6
ATOM      6  C   UNL     1       6.581   1.027  -0.788  1.00  0.00    -0.044 A 
ATOM      7  C   UNL     1       7.889   1.458  -0.540  1.00  0.00     0.008 A 
ATOM      8  C   UNL     1       6.389  -0.081  -1.582  1.00  0.00     0.054 A 
ATOM      9  C   UNL     1       8.943   0.759  -1.100  1.00  0.00     0.051 A 
ATOM     10  C   UNL     1       7.458  -0.784  -2.146  1.00  0.00     0.166 A 
ATOM     11  C   UNL     1       8.745  -0.360  -1.903  1.00  0.00     0.165 A 
ATOM     12  O   UNL     1       7.527  -1.896  -2.958  1.00  0.00    -0.454 OA
ATOM     13  O   UNL     1       9.588  -1.230  -2.577  1.00  0.00    -0.454 OA
ATOM     14  C   UNL     1       8.861  -2.272  -3.184  1.00  0.00     0.468 C 
ENDBRANCH   5   6
ENDBRANCH   1   5
TORSDOF 3
ENDMDL
MODEL 2
REMARK VINA RESULT:      -7.5      1.927      2.380
REMARK SMILES CC(=O)CCc1ccc2c(c1)OCO2
REMARK SMILES IDX 4 1 2 2 1 3 3 4 5 5 6 6 7 7 11 8 8 9 10 10 9 11 12 12 14 13
REMARK SMILES IDX 13 14
REMARK H PARENT
REMARK Flexibility Score: inf
ROOT
ATOM      1  C   UNL     1       5.748   1.405  -0.319  1.00  0.00     0.080 C 
ENDROOT
BRANCH   1   2
ATOM      2  C   UNL     1       5.083   1.312   1.011  1.00  0.00     0.130 C 
ATOM      3  C   UNL     1       5.395   0.215   1.965  1.00  0.00     0.087 C 
ATOM      4  O   UNL     1       4.257   2.141   1.358  1.00  0.00    -0.300 OA
ENDBRANCH   1   2
BRANCH   1   5
ATOM      5  C   UNL     1       7.235   1.135  -0.211  1.00  0.00     0.043 C 
BRANCH   5   6
ATOM      6  C   UNL     1       7.603  -0.154  -0.825  1.00  0.00    -0.044 A 
ATOM      7  C   UNL     1       7.666  -0.312  -2.214  1.00  0.00     0.008 A 
ATOM      8  C   UNL     1       7.895  -1.233  -0.023  1.00  0.00     0.054 A 
ATOM      9  C   UNL     1       8.018  -1.545  -2.734  1.00  0.00     0.051 A 
ATOM     10  C   UNL     1       8.250  -2.477  -0.553  1.00  0.00     0.166 A 
ATOM     11  C   UNL     1       8.312  -2.634  -1.919  1.00  0.00     0.165 A 
ATOM     12  O   UNL     1       8.580  -3.685   0.025  1.00  0.00    -0.454 OA
ATOM     13  O   UNL     1       8.683  -3.949  -2.156  1.00  0.00    -0.454 OA
ATOM     14  C   UNL     1       8.952  -4.625  -0.951  1.00  0.00     0.468 C 
ENDBRANCH   5   6
ENDBRANCH   1   5
TORSDOF 3
ENDMDL
MODEL 3
REMARK VINA RESULT:      -7.2      2.057      2.622
REMARK SMILES CC(=O)CCc1ccc2c(c1)OCO2
REMARK SMILES IDX 4 1 2 2 1 3 3 4 5 5 6 6 7 7 11 8 8 9 10 10 9 11 12 12 14 13
REMARK SMILES IDX 13 14
REMARK H PARENT
REMARK Flexibility Score: inf
ROOT
ATOM      1  C   UNL     1       5.436  -0.034   2.030  1.00  0.00     0.080 C 
ENDROOT
BRANCH   1   2
ATOM      2  C   UNL     1       4.565   1.145   1.768  1.00  0.00     0.130 C 
ATOM      3  C   UNL     1       4.886   2.132   0.703  1.00  0.00     0.087 C 
ATOM      4  O   UNL     1       3.555   1.337   2.427  1.00  0.00    -0.300 OA
ENDBRANCH   1   2
BRANCH   1   5
ATOM      5  C   UNL     1       6.863   0.227   1.589  1.00  0.00     0.043 C 
BRANCH   5   6
ATOM      6  C   UNL     1       7.287  -0.705   0.530  1.00  0.00    -0.044 A 
ATOM      7  C   UNL     1       7.167  -0.378  -0.826  1.00  0.00     0.008 A 
ATOM      8  C   UNL     1       7.818  -1.928   0.870  1.00  0.00     0.054 A 
ATOM      9  C   UNL     1       7.583  -1.292  -1.776  1.00  0.00     0.051 A 
ATOM     10  C   UNL     1       8.238  -2.849  -0.095  1.00  0.00     0.166 A 
ATOM     11  C   UNL     1       8.119  -2.529  -1.429  1.00  0.00     0.165 A 
ATOM     12  O   UNL     1       8.789  -4.110  -0.013  1.00  0.00    -0.454 OA
ATOM     13  O   UNL     1       8.605  -3.611  -2.146  1.00  0.00    -0.454 OA
ATOM     14  C   UNL     1       9.124  -4.598  -1.287  1.00  0.00     0.468 C 
ENDBRANCH   5   6
ENDBRANCH   1   5
TORSDOF 3
ENDMDL
MODEL 4
REMARK VINA RESULT:      -7.1      1.236      1.429
REMARK SMILES CC(=O)CCc1ccc2c(c1)OCO2
REMARK SMILES IDX 4 1 2 2 1 3 3 4 5 5 6 6 7 7 11 8 8 9 10 10 9 11 12 12 14 13
REMARK SMILES IDX 13 14
REMARK H PARENT
REMARK Flexibility Score: inf
ROOT
ATOM      1  C   UNL     1       6.343   1.253   0.876  1.00  0.00     0.080 C 
ENDROOT
BRANCH   1   2
ATOM      2  C   UNL     1       5.661   0.423   1.907  1.00  0.00     0.130 C 
ATOM      3  C   UNL     1       6.295  -0.799   2.470  1.00  0.00     0.087 C 
ATOM      4  O   UNL     1       4.554   0.724   2.323  1.00  0.00    -0.300 OA
ENDBRANCH   1   2
BRANCH   1   5
ATOM      5  C   UNL     1       5.831   0.933  -0.515  1.00  0.00     0.043 C 
BRANCH   5   6
ATOM      6  C   UNL     1       6.796   0.124  -1.279  1.00  0.00    -0.044 A 
ATOM      7  C   UNL     1       7.513   0.659  -2.356  1.00  0.00     0.008 A 
ATOM      8  C   UNL     1       7.008  -1.192  -0.934  1.00  0.00     0.054 A 
ATOM      9  C   UNL     1       8.406  -0.148  -3.036  1.00  0.00     0.051 A 
ATOM     10  C   UNL     1       7.912  -2.004  -1.624  1.00  0.00     0.166 A 
ATOM     11  C   UNL     1       8.617  -1.478  -2.684  1.00  0.00     0.165 A 
ATOM     12  O   UNL     1       8.294  -3.321  -1.478  1.00  0.00    -0.454 OA
ATOM     13  O   UNL     1       9.426  -2.493  -3.171  1.00  0.00    -0.454 OA
ATOM     14  C   UNL     1       9.319  -3.652  -2.379  1.00  0.00     0.468 C 
ENDBRANCH   5   6
ENDBRANCH   1   5
TORSDOF 3
ENDMDL
MODEL 5
REMARK VINA RESULT:      -7.0      1.992      2.508
REMARK SMILES CC(=O)CCc1ccc2c(c1)OCO2
REMARK SMILES IDX 4 1 2 2 1 3 3 4 5 5 6 6 7 7 11 8 8 9 10 10 9 11 12 12 14 13
REMARK SMILES IDX 13 14
REMARK H PARENT
REMARK Flexibility Score: inf
ROOT
ATOM      1  C   UNL     1       6.813   0.846   1.457  1.00  0.00     0.080 C 
ENDROOT
BRANCH   1   2
ATOM      2  C   UNL     1       5.352   1.126   1.526  1.00  0.00     0.130 C 
ATOM      3  C   UNL     1       4.708   2.136   0.644  1.00  0.00     0.087 C 
ATOM      4  O   UNL     1       4.636   0.531   2.316  1.00  0.00    -0.300 OA
ENDBRANCH   1   2
BRANCH   1   5
ATOM      5  C   UNL     1       7.350   1.068   0.057  1.00  0.00     0.043 C 
BRANCH   5   6
ATOM      6  C   UNL     1       7.675  -0.205  -0.612  1.00  0.00    -0.044 A 
ATOM      7  C   UNL     1       7.688  -0.317  -2.007  1.00  0.00     0.008 A 
ATOM      8  C   UNL     1       7.977  -1.315   0.143  1.00  0.00     0.054 A 
ATOM      9  C   UNL     1       8.002  -1.537  -2.579  1.00  0.00     0.051 A 
ATOM     10  C   UNL     1       8.294  -2.545  -0.440  1.00  0.00     0.166 A 
ATOM     11  C   UNL     1       8.306  -2.657  -1.812  1.00  0.00     0.165 A 
ATOM     12  O   UNL     1       8.623  -3.777   0.085  1.00  0.00    -0.454 OA
ATOM     13  O   UNL     1       8.647  -3.968  -2.105  1.00  0.00    -0.454 OA
ATOM     14  C   UNL     1       8.946  -4.689  -0.933  1.00  0.00     0.468 C 
ENDBRANCH   5   6
ENDBRANCH   1   5
TORSDOF 3
ENDMDL
