@<TRIPOS>MOLECULE
/home/cewinharhar/GITHUB/reincatalyze/data/processed/docking_pred/2023-May-25-1902_sub9_nm5_bs15_s42_ex16_mel10_mts10000_k50_ec01_g099_lra3e-4_lrc3e-3/4fd116288ae20ad94bf91d23a53b6bc9c92e4cae_ligand_9.pdbqt
 14 15 0 0 0
SMALL
GASTEIGER

@<TRIPOS>ATOM
      1  C          6.3430    1.2530    0.8760 C.3     1  UNL1        0.0800
      2  C          5.6610    0.4230    1.9070 C.2     1  UNL1        0.1300
      3  C          6.2950   -0.7990    2.4700 C.3     1  UNL1        0.0870
      4  O          4.5540    0.7240    2.3230 O.2     1  UNL1       -0.3000
      5  C          5.8310    0.9330   -0.5150 C.3     1  UNL1        0.0430
      6  C          6.7960    0.1240   -1.2790 C.2     1  UNL1       -0.0440
      7  C          7.5130    0.6590   -2.3560 C.2     1  UNL1        0.0080
      8  C          7.0080   -1.1920   -0.9340 C.2     1  UNL1        0.0540
      9  C          8.4060   -0.1480   -3.0360 C.2     1  UNL1        0.0510
     10  C          7.9120   -2.0040   -1.6240 C.2     1  UNL1        0.1660
     11  C          8.6170   -1.4780   -2.6840 C.2     1  UNL1        0.1650
     12  O          8.2940   -3.3210   -1.4780 O.2     1  UNL1       -0.4540
     13  O          9.4260   -2.4930   -3.1710 O.2     1  UNL1       -0.4540
     14  C          9.3190   -3.6520   -2.3790 C.3     1  UNL1        0.4680
@<TRIPOS>BOND
     1    13    11    1
     2    13    14    1
     3     9    11    2
     4     9     7    1
     5    11    10    1
     6    14    12    1
     7     7     6    2
     8    10    12    1
     9    10     8    2
    10     6     8    1
    11     6     5    1
    12     5     1    1
    13     1     2    1
    14     2     4    2
    15     2     3    1
