@<TRIPOS>MOLECULE
/home/cewinharhar/GITHUB/reincatalyze/data/processed/docking_pred/2023-May-25-1902_sub9_nm5_bs15_s42_ex16_mel10_mts10000_k50_ec01_g099_lra3e-4_lrc3e-3/4fd116288ae20ad94bf91d23a53b6bc9c92e4cae_ligand_9.pdbqt
 14 15 0 0 0
SMALL
GASTEIGER

@<TRIPOS>ATOM
      1  C          5.4360   -0.0340    2.0300 C.3     1  UNL1        0.0800
      2  C          4.5650    1.1450    1.7680 C.2     1  UNL1        0.1300
      3  C          4.8860    2.1320    0.7030 C.3     1  UNL1        0.0870
      4  O          3.5550    1.3370    2.4270 O.2     1  UNL1       -0.3000
      5  C          6.8630    0.2270    1.5890 C.3     1  UNL1        0.0430
      6  C          7.2870   -0.7050    0.5300 C.2     1  UNL1       -0.0440
      7  C          7.1670   -0.3780   -0.8260 C.2     1  UNL1        0.0080
      8  C          7.8180   -1.9280    0.8700 C.2     1  UNL1        0.0540
      9  C          7.5830   -1.2920   -1.7760 C.2     1  UNL1        0.0510
     10  C          8.2380   -2.8490   -0.0950 C.2     1  UNL1        0.1660
     11  C          8.1190   -2.5290   -1.4290 C.2     1  UNL1        0.1650
     12  O          8.7890   -4.1100   -0.0130 O.2     1  UNL1       -0.4540
     13  O          8.6050   -3.6110   -2.1460 O.2     1  UNL1       -0.4540
     14  C          9.1240   -4.5980   -1.2870 C.3     1  UNL1        0.4680
@<TRIPOS>BOND
     1    13    11    1
     2    13    14    1
     3     9    11    2
     4     9     7    1
     5    11    10    1
     6    14    12    1
     7     7     6    2
     8    10    12    1
     9    10     8    2
    10     6     8    1
    11     6     5    1
    12     3     2    1
    13     5     1    1
    14     2     1    1
    15     2     4    2
