@<TRIPOS>MOLECULE
/home/cewinharhar/GITHUB/reincatalyze/data/processed/docking_pred/2023-May-25-1902_sub9_nm5_bs15_s42_ex16_mel10_mts10000_k50_ec01_g099_lra3e-4_lrc3e-3/51335195432d6c3c52ef841bfe8bb9323d602809_ligand_9.pdbqt
 14 15 0 0 0
SMALL
GASTEIGER

@<TRIPOS>ATOM
      1  C          5.5180    1.9470    1.2590 C.3     1  UNL1        0.0800
      2  C          5.1030    0.7250    2.0040 C.2     1  UNL1        0.1300
      3  C          6.0220   -0.4300    2.1820 C.3     1  UNL1        0.0870
      4  O          3.9870    0.6370    2.4910 O.2     1  UNL1       -0.3000
      5  C          5.3930    1.7480   -0.2380 C.3     1  UNL1        0.0430
      6  C          6.5600    1.0420   -0.7950 C.2     1  UNL1       -0.0440
      7  C          7.8680    1.4670   -0.5330 C.2     1  UNL1        0.0080
      8  C          6.3720   -0.0650   -1.5910 C.2     1  UNL1        0.0540
      9  C          8.9250    0.7640   -1.0820 C.2     1  UNL1        0.0510
     10  C          7.4440   -0.7730   -2.1440 C.2     1  UNL1        0.1660
     11  C          8.7310   -0.3540   -1.8870 C.2     1  UNL1        0.1650
     12  O          7.5170   -1.8850   -2.9550 O.2     1  UNL1       -0.4540
     13  O          9.5760   -1.2290   -2.5520 O.2     1  UNL1       -0.4540
     14  C          8.8520   -2.2670   -3.1670 C.3     1  UNL1        0.4680
@<TRIPOS>BOND
     1    14    12    1
     2    14    13    1
     3    12    10    1
     4    13    11    1
     5    10    11    2
     6    10     8    1
     7    11     9    1
     8     8     6    2
     9     9     7    2
    10     6     7    1
    11     6     5    1
    12     5     1    1
    13     1     2    1
    14     2     3    1
    15     2     4    2
