@<TRIPOS>MOLECULE
/home/cewinharhar/GITHUB/reincatalyze/data/processed/docking_pred/2023-May-25-1902_sub9_nm5_bs15_s42_ex16_mel10_mts10000_k50_ec01_g099_lra3e-4_lrc3e-3/51335195432d6c3c52ef841bfe8bb9323d602809_ligand_9.pdbqt
 14 15 0 0 0
SMALL
GASTEIGER

@<TRIPOS>ATOM
      1  C          8.3070    0.1930   -2.6840 C.3     1  UNL1        0.0800
      2  C          8.0230   -1.2680   -2.7550 C.2     1  UNL1        0.1300
      3  C          9.0960   -2.2590   -3.0360 C.3     1  UNL1        0.0870
      4  O          6.8930   -1.6960   -2.5830 O.2     1  UNL1       -0.3000
      5  C          8.8340    0.5860   -1.3190 C.3     1  UNL1        0.0430
      6  C          7.8080    0.4350   -0.2720 C.2     1  UNL1       -0.0440
      7  C          7.9250   -0.5280    0.7370 C.2     1  UNL1        0.0080
      8  C          6.7040    1.2580   -0.2750 C.2     1  UNL1        0.0540
      9  C          6.9310   -0.6230    1.6930 C.2     1  UNL1        0.0510
     10  C          5.7020    1.1590    0.6950 C.2     1  UNL1        0.1660
     11  C          5.8160    0.2100    1.6870 C.2     1  UNL1        0.1650
     12  O          4.5270    1.8480    0.9050 O.2     1  UNL1       -0.4540
     13  O          4.6970    0.3390    2.4950 O.2     1  UNL1       -0.4540
     14  C          3.8990    1.4240    2.0880 C.3     1  UNL1        0.4680
@<TRIPOS>BOND
     1     3     2    1
     2     2     1    1
     3     2     4    2
     4     1     5    1
     5     5     6    1
     6     8     6    2
     7     8    10    1
     8     6     7    1
     9    10    12    1
    10    10    11    2
    11     7     9    2
    12    12    14    1
    13    11     9    1
    14    11    13    1
    15    14    13    1
