MODEL 1
REMARK VINA RESULT:      -7.7      0.000      0.000
REMARK SMILES CC(=O)CCc1ccc2c(c1)OCO2
REMARK SMILES IDX 4 1 2 2 1 3 3 4 5 5 6 6 7 7 11 8 8 9 10 10 9 11 12 12 14 13
REMARK SMILES IDX 13 14
REMARK H PARENT
REMARK Flexibility Score: inf
ROOT
ATOM      1  C   UNL     1       5.518   1.947   1.259  1.00  0.00     0.080 C 
ENDROOT
BRANCH   1   2
ATOM      2  C   UNL     1       5.103   0.725   2.004  1.00  0.00     0.130 C 
ATOM      3  C   UNL     1       6.022  -0.430   2.182  1.00  0.00     0.087 C 
ATOM      4  O   UNL     1       3.987   0.637   2.491  1.00  0.00    -0.300 OA
ENDBRANCH   1   2
BRANCH   1   5
ATOM      5  C   UNL     1       5.393   1.748  -0.238  1.00  0.00     0.043 C 
BRANCH   5   6
ATOM      6  C   UNL     1       6.560   1.042  -0.795  1.00  0.00    -0.044 A 
ATOM      7  C   UNL     1       7.868   1.467  -0.533  1.00  0.00     0.008 A 
ATOM      8  C   UNL     1       6.372  -0.065  -1.591  1.00  0.00     0.054 A 
ATOM      9  C   UNL     1       8.925   0.764  -1.082  1.00  0.00     0.051 A 
ATOM     10  C   UNL     1       7.444  -0.773  -2.144  1.00  0.00     0.166 A 
ATOM     11  C   UNL     1       8.731  -0.354  -1.887  1.00  0.00     0.165 A 
ATOM     12  O   UNL     1       7.517  -1.885  -2.955  1.00  0.00    -0.454 OA
ATOM     13  O   UNL     1       9.576  -1.229  -2.552  1.00  0.00    -0.454 OA
ATOM     14  C   UNL     1       8.852  -2.267  -3.167  1.00  0.00     0.468 C 
ENDBRANCH   5   6
ENDBRANCH   1   5
TORSDOF 3
ENDMDL
MODEL 2
REMARK VINA RESULT:      -7.2      1.267      1.497
REMARK SMILES CC(=O)CCc1ccc2c(c1)OCO2
REMARK SMILES IDX 4 1 2 2 1 3 3 4 5 5 6 6 7 7 11 8 8 9 10 10 9 11 12 12 14 13
REMARK SMILES IDX 13 14
REMARK H PARENT
REMARK Flexibility Score: inf
ROOT
ATOM      1  C   UNL     1       6.400   1.180   0.919  1.00  0.00     0.080 C 
ENDROOT
BRANCH   1   2
ATOM      2  C   UNL     1       5.677   0.363   1.933  1.00  0.00     0.130 C 
ATOM      3  C   UNL     1       6.279  -0.864   2.519  1.00  0.00     0.087 C 
ATOM      4  O   UNL     1       4.562   0.680   2.314  1.00  0.00    -0.300 OA
ENDBRANCH   1   2
BRANCH   1   5
ATOM      5  C   UNL     1       5.892   0.896  -0.481  1.00  0.00     0.043 C 
BRANCH   5   6
ATOM      6  C   UNL     1       6.841   0.071  -1.250  1.00  0.00    -0.044 A 
ATOM      7  C   UNL     1       7.537   0.586  -2.350  1.00  0.00     0.008 A 
ATOM      8  C   UNL     1       7.058  -1.238  -0.884  1.00  0.00     0.054 A 
ATOM      9  C   UNL     1       8.415  -0.236  -3.032  1.00  0.00     0.051 A 
ATOM     10  C   UNL     1       7.948  -2.064  -1.577  1.00  0.00     0.166 A 
ATOM     11  C   UNL     1       8.632  -1.559  -2.661  1.00  0.00     0.165 A 
ATOM     12  O   UNL     1       8.330  -3.379  -1.415  1.00  0.00    -0.454 OA
ATOM     13  O   UNL     1       9.429  -2.584  -3.145  1.00  0.00    -0.454 OA
ATOM     14  C   UNL     1       9.338  -3.728  -2.330  1.00  0.00     0.468 C 
ENDBRANCH   5   6
ENDBRANCH   1   5
TORSDOF 3
ENDMDL
MODEL 3
REMARK VINA RESULT:      -7.0      1.641      2.010
REMARK SMILES CC(=O)CCc1ccc2c(c1)OCO2
REMARK SMILES IDX 4 1 2 2 1 3 3 4 5 5 6 6 7 7 11 8 8 9 10 10 9 11 12 12 14 13
REMARK SMILES IDX 13 14
REMARK H PARENT
REMARK Flexibility Score: inf
ROOT
ATOM      1  C   UNL     1       5.733   1.690  -0.204  1.00  0.00     0.080 C 
ENDROOT
BRANCH   1   2
ATOM      2  C   UNL     1       5.072   1.354   1.088  1.00  0.00     0.130 C 
ATOM      3  C   UNL     1       5.520   0.205   1.920  1.00  0.00     0.087 C 
ATOM      4  O   UNL     1       4.135   2.017   1.504  1.00  0.00    -0.300 OA
ENDBRANCH   1   2
BRANCH   1   5
ATOM      5  C   UNL     1       7.229   1.458  -0.133  1.00  0.00     0.043 C 
BRANCH   5   6
ATOM      6  C   UNL     1       7.632   0.252  -0.879  1.00  0.00    -0.044 A 
ATOM      7  C   UNL     1       7.836   0.281  -2.263  1.00  0.00     0.008 A 
ATOM      8  C   UNL     1       7.816  -0.935  -0.208  1.00  0.00     0.054 A 
ATOM      9  C   UNL     1       8.214  -0.881  -2.910  1.00  0.00     0.051 A 
ATOM     10  C   UNL     1       8.198  -2.108  -0.867  1.00  0.00     0.166 A 
ATOM     11  C   UNL     1       8.399  -2.081  -2.229  1.00  0.00     0.165 A 
ATOM     12  O   UNL     1       8.441  -3.393  -0.432  1.00  0.00    -0.454 OA
ATOM     13  O   UNL     1       8.765  -3.363  -2.606  1.00  0.00    -0.454 OA
ATOM     14  C   UNL     1       8.893  -4.205  -1.485  1.00  0.00     0.468 C 
ENDBRANCH   5   6
ENDBRANCH   1   5
TORSDOF 3
ENDMDL
MODEL 4
REMARK VINA RESULT:      -7.0      1.779      2.370
REMARK SMILES CC(=O)CCc1ccc2c(c1)OCO2
REMARK SMILES IDX 4 1 2 2 1 3 3 4 5 5 6 6 7 7 11 8 8 9 10 10 9 11 12 12 14 13
REMARK SMILES IDX 13 14
REMARK H PARENT
REMARK Flexibility Score: inf
ROOT
ATOM      1  C   UNL     1       5.358  -0.038   1.997  1.00  0.00     0.080 C 
ENDROOT
BRANCH   1   2
ATOM      2  C   UNL     1       4.480   1.150   1.802  1.00  0.00     0.130 C 
ATOM      3  C   UNL     1       4.745   2.150   0.733  1.00  0.00     0.087 C 
ATOM      4  O   UNL     1       3.512   1.338   2.522  1.00  0.00    -0.300 OA
ENDBRANCH   1   2
BRANCH   1   5
ATOM      5  C   UNL     1       6.780   0.251   1.559  1.00  0.00     0.043 C 
BRANCH   5   6
ATOM      6  C   UNL     1       7.166  -0.557   0.388  1.00  0.00    -0.044 A 
ATOM      7  C   UNL     1       6.959  -0.100  -0.918  1.00  0.00     0.008 A 
ATOM      8  C   UNL     1       7.747  -1.791   0.572  1.00  0.00     0.054 A 
ATOM      9  C   UNL     1       7.342  -0.901  -1.978  1.00  0.00     0.051 A 
ATOM     10  C   UNL     1       8.134  -2.597  -0.503  1.00  0.00     0.166 A 
ATOM     11  C   UNL     1       7.929  -2.149  -1.788  1.00  0.00     0.165 A 
ATOM     12  O   UNL     1       8.721  -3.842  -0.580  1.00  0.00    -0.454 OA
ATOM     13  O   UNL     1       8.401  -3.138  -2.638  1.00  0.00    -0.454 OA
ATOM     14  C   UNL     1       8.994  -4.189  -1.913  1.00  0.00     0.468 C 
ENDBRANCH   5   6
ENDBRANCH   1   5
TORSDOF 3
ENDMDL
MODEL 5
REMARK VINA RESULT:      -6.8      1.188      5.156
REMARK SMILES CC(=O)CCc1ccc2c(c1)OCO2
REMARK SMILES IDX 4 1 2 2 1 3 3 4 5 5 6 6 7 7 11 8 8 9 10 10 9 11 12 12 14 13
REMARK SMILES IDX 13 14
REMARK H PARENT
REMARK Flexibility Score: inf
ROOT
ATOM      1  C   UNL     1       8.307   0.193  -2.684  1.00  0.00     0.080 C 
ENDROOT
BRANCH   1   2
ATOM      2  C   UNL     1       8.023  -1.268  -2.755  1.00  0.00     0.130 C 
ATOM      3  C   UNL     1       9.096  -2.259  -3.036  1.00  0.00     0.087 C 
ATOM      4  O   UNL     1       6.893  -1.696  -2.583  1.00  0.00    -0.300 OA
ENDBRANCH   1   2
BRANCH   1   5
ATOM      5  C   UNL     1       8.834   0.586  -1.319  1.00  0.00     0.043 C 
BRANCH   5   6
ATOM      6  C   UNL     1       7.808   0.435  -0.272  1.00  0.00    -0.044 A 
ATOM      7  C   UNL     1       7.925  -0.528   0.737  1.00  0.00     0.008 A 
ATOM      8  C   UNL     1       6.704   1.258  -0.275  1.00  0.00     0.054 A 
ATOM      9  C   UNL     1       6.931  -0.623   1.693  1.00  0.00     0.051 A 
ATOM     10  C   UNL     1       5.702   1.159   0.695  1.00  0.00     0.166 A 
ATOM     11  C   UNL     1       5.816   0.210   1.687  1.00  0.00     0.165 A 
ATOM     12  O   UNL     1       4.527   1.848   0.905  1.00  0.00    -0.454 OA
ATOM     13  O   UNL     1       4.697   0.339   2.495  1.00  0.00    -0.454 OA
ATOM     14  C   UNL     1       3.899   1.424   2.088  1.00  0.00     0.468 C 
ENDBRANCH   5   6
ENDBRANCH   1   5
TORSDOF 3
ENDMDL
