@<TRIPOS>MOLECULE
/home/cewinharhar/GITHUB/reincatalyze/data/processed/docking_pred/2023-May-25-1902_sub9_nm5_bs15_s42_ex16_mel10_mts10000_k50_ec01_g099_lra3e-4_lrc3e-3/51335195432d6c3c52ef841bfe8bb9323d602809_ligand_9.pdbqt
 14 15 0 0 0
SMALL
GASTEIGER

@<TRIPOS>ATOM
      1  C          5.7330    1.6900   -0.2040 C.3     1  UNL1        0.0800
      2  C          5.0720    1.3540    1.0880 C.2     1  UNL1        0.1300
      3  C          5.5200    0.2050    1.9200 C.3     1  UNL1        0.0870
      4  O          4.1350    2.0170    1.5040 O.2     1  UNL1       -0.3000
      5  C          7.2290    1.4580   -0.1330 C.3     1  UNL1        0.0430
      6  C          7.6320    0.2520   -0.8790 C.2     1  UNL1       -0.0440
      7  C          7.8360    0.2810   -2.2630 C.2     1  UNL1        0.0080
      8  C          7.8160   -0.9350   -0.2080 C.2     1  UNL1        0.0540
      9  C          8.2140   -0.8810   -2.9100 C.2     1  UNL1        0.0510
     10  C          8.1980   -2.1080   -0.8670 C.2     1  UNL1        0.1660
     11  C          8.3990   -2.0810   -2.2290 C.2     1  UNL1        0.1650
     12  O          8.4410   -3.3930   -0.4320 O.2     1  UNL1       -0.4540
     13  O          8.7650   -3.3630   -2.6060 O.2     1  UNL1       -0.4540
     14  C          8.8930   -4.2050   -1.4850 C.3     1  UNL1        0.4680
@<TRIPOS>BOND
     1     9     7    1
     2     9    11    2
     3    13    11    1
     4    13    14    1
     5     7     6    2
     6    11    10    1
     7    14    12    1
     8     6     8    1
     9     6     5    1
    10    10    12    1
    11    10     8    2
    12     1     5    1
    13     1     2    1
    14     2     4    2
    15     2     3    1
