@<TRIPOS>MOLECULE
/home/cewinharhar/GITHUB/reincatalyze/data/processed/docking_pred/2023-May-25-1902_sub9_nm5_bs15_s42_ex16_mel10_mts10000_k50_ec01_g099_lra3e-4_lrc3e-3/51cadb519a72bd0ce332fe372f57097c9ba117cb_ligand_9.pdbqt
 14 15 0 0 0
SMALL
GASTEIGER

@<TRIPOS>ATOM
      1  C          5.4950    0.0130    2.0140 C.3     1  UNL1        0.0800
      2  C          4.5910    1.1670    1.7500 C.2     1  UNL1        0.1300
      3  C          4.8740    2.1500    0.6710 C.3     1  UNL1        0.0870
      4  O          3.5840    1.3400    2.4180 O.2     1  UNL1       -0.3000
      5  C          6.9010    0.2900    1.5180 C.3     1  UNL1        0.0430
      6  C          7.3080   -0.6600    0.4690 C.2     1  UNL1       -0.0440
      7  C          7.1830   -0.3500   -0.8900 C.2     1  UNL1        0.0080
      8  C          7.8270   -1.8850    0.8220 C.2     1  UNL1        0.0540
      9  C          7.5820   -1.2820   -1.8310 C.2     1  UNL1        0.0510
     10  C          8.2300   -2.8230   -0.1330 C.2     1  UNL1        0.1660
     11  C          8.1060   -2.5190   -1.4700 C.2     1  UNL1        0.1650
     12  O          8.7680   -4.0900   -0.0380 O.2     1  UNL1       -0.4540
     13  O          8.5760   -3.6160   -2.1760 O.2     1  UNL1       -0.4540
     14  C          9.0890   -4.5980   -1.3070 C.3     1  UNL1        0.4680
@<TRIPOS>BOND
     1    13    11    1
     2    13    14    1
     3     9    11    2
     4     9     7    1
     5    11    10    1
     6    14    12    1
     7     7     6    2
     8    10    12    1
     9    10     8    2
    10     6     8    1
    11     6     5    1
    12     3     2    1
    13     5     1    1
    14     2     1    1
    15     2     4    2
