@<TRIPOS>MOLECULE
/home/cewinharhar/GITHUB/reincatalyze/data/processed/docking_pred/2023-May-25-1902_sub9_nm5_bs15_s42_ex16_mel10_mts10000_k50_ec01_g099_lra3e-4_lrc3e-3/53c3fbcdd7c01d09a3e8b21e27d629f70ce21da9_ligand_9.pdbqt
 14 15 0 0 0
SMALL
GASTEIGER

@<TRIPOS>ATOM
      1  C          6.3840    1.2240    0.9180 C.3     1  UNL1        0.0800
      2  C          5.6660    0.4060    1.9360 C.2     1  UNL1        0.1300
      3  C          6.2770   -0.8130    2.5300 C.3     1  UNL1        0.0870
      4  O          4.5480    0.7160    2.3130 O.2     1  UNL1       -0.3000
      5  C          5.8730    0.9350   -0.4800 C.3     1  UNL1        0.0430
      6  C          6.8200    0.1070   -1.2470 C.2     1  UNL1       -0.0440
      7  C          7.5060    0.6140   -2.3560 C.2     1  UNL1        0.0080
      8  C          7.0440   -1.1980   -0.8720 C.2     1  UNL1        0.0540
      9  C          8.3830   -0.2100   -3.0380 C.2     1  UNL1        0.0510
     10  C          7.9320   -2.0280   -1.5630 C.2     1  UNL1        0.1660
     11  C          8.6070   -1.5300   -2.6560 C.2     1  UNL1        0.1650
     12  O          8.3210   -3.3390   -1.3910 O.2     1  UNL1       -0.4540
     13  O          9.4050   -2.5560   -3.1360 O.2     1  UNL1       -0.4540
     14  C          9.3230   -3.6930   -2.3100 C.3     1  UNL1        0.4680
@<TRIPOS>BOND
     1    13    11    1
     2    13    14    1
     3     9    11    2
     4     9     7    1
     5    11    10    1
     6     7     6    2
     7    14    12    1
     8    10    12    1
     9    10     8    2
    10     6     8    1
    11     6     5    1
    12     5     1    1
    13     1     2    1
    14     2     4    2
    15     2     3    1
