@<TRIPOS>MOLECULE
/home/cewinharhar/GITHUB/reincatalyze/data/processed/docking_pred/2023-May-25-1902_sub9_nm5_bs15_s42_ex16_mel10_mts10000_k50_ec01_g099_lra3e-4_lrc3e-3/53c3fbcdd7c01d09a3e8b21e27d629f70ce21da9_ligand_9.pdbqt
 14 15 0 0 0
SMALL
GASTEIGER

@<TRIPOS>ATOM
      1  C          5.7500    1.2920   -0.3060 C.3     1  UNL1        0.0800
      2  C          5.1860    1.2280    1.0720 C.2     1  UNL1        0.1300
      3  C          5.4010    0.0460    1.9490 C.3     1  UNL1        0.0870
      4  O          4.5260    2.1500    1.5220 O.2     1  UNL1       -0.3000
      5  C          7.2510    1.0870   -0.2960 C.3     1  UNL1        0.0430
      6  C          7.6300   -0.2100   -0.8850 C.2     1  UNL1       -0.0440
      7  C          7.7260   -0.3860   -2.2700 C.2     1  UNL1        0.0080
      8  C          7.9000   -1.2800   -0.0620 C.2     1  UNL1        0.0540
      9  C          8.0860   -1.6260   -2.7660 C.2     1  UNL1        0.0510
     10  C          8.2640   -2.5310   -0.5680 C.2     1  UNL1        0.1660
     11  C          8.3580   -2.7060   -1.9310 C.2     1  UNL1        0.1650
     12  O          8.5770   -3.7330    0.0310 O.2     1  UNL1       -0.4540
     13  O          8.7310   -4.0240   -2.1420 O.2     1  UNL1       -0.4540
     14  C          8.9690   -4.6860   -0.9230 C.3     1  UNL1        0.4680
@<TRIPOS>BOND
     1     9     7    1
     2     9    11    2
     3     7     6    2
     4    13    11    1
     5    13    14    1
     6    11    10    1
     7    14    12    1
     8     6     5    1
     9     6     8    1
    10    10     8    2
    11    10    12    1
    12     1     5    1
    13     1     2    1
    14     2     4    2
    15     2     3    1
