@<TRIPOS>MOLECULE
/home/cewinharhar/GITHUB/reincatalyze/data/processed/docking_pred/2023-May-25-1902_sub9_nm5_bs15_s42_ex16_mel10_mts10000_k50_ec01_g099_lra3e-4_lrc3e-3/544f4ddee7da09465e084ab518e20d4fbc72de61_ligand_9.pdbqt
 14 15 0 0 0
SMALL
GASTEIGER

@<TRIPOS>ATOM
      1  C          7.0160    1.0680    0.8050 C.3     1  UNL1        0.0800
      2  C          5.6240    1.1910    1.3200 C.2     1  UNL1        0.1300
      3  C          4.6510    2.1440    0.7220 C.3     1  UNL1        0.0870
      4  O          5.2390    0.5080    2.2560 O.2     1  UNL1       -0.3000
      5  C          7.0370    0.9860   -0.7090 C.3     1  UNL1        0.0430
      6  C          7.5450   -0.3150   -1.1780 C.2     1  UNL1       -0.0440
      7  C          7.8550   -0.5390   -2.5250 C.2     1  UNL1        0.0080
      8  C          7.7240   -1.3420   -0.2790 C.2     1  UNL1        0.0540
      9  C          8.3290   -1.7800   -2.9070 C.2     1  UNL1        0.0510
     10  C          8.2040   -2.5950   -0.6710 C.2     1  UNL1        0.1660
     11  C          8.5090   -2.8160   -1.9960 C.2     1  UNL1        0.1650
     12  O          8.4650   -3.7600    0.0200 O.2     1  UNL1       -0.4540
     13  O          8.9550   -4.1250   -2.0920 O.2     1  UNL1       -0.4540
     14  C          9.0290   -4.7310   -0.8230 C.3     1  UNL1        0.4680
@<TRIPOS>BOND
     1     9     7    1
     2     9    11    2
     3     7     6    2
     4    13    11    1
     5    13    14    1
     6    11    10    1
     7     6     5    1
     8     6     8    1
     9    14    12    1
    10     5     1    1
    11    10     8    2
    12    10    12    1
    13     3     2    1
    14     1     2    1
    15     2     4    2
