@<TRIPOS>MOLECULE
/home/cewinharhar/GITHUB/reincatalyze/data/processed/docking_pred/2023-May-25-1902_sub9_nm5_bs15_s42_ex16_mel10_mts10000_k50_ec01_g099_lra3e-4_lrc3e-3/544f4ddee7da09465e084ab518e20d4fbc72de61_ligand_9.pdbqt
 14 15 0 0 0
SMALL
GASTEIGER

@<TRIPOS>ATOM
      1  C          5.4180   -0.0510    2.0170 C.3     1  UNL1        0.0800
      2  C          4.5610    1.1430    1.7760 C.2     1  UNL1        0.1300
      3  C          4.8790    2.1300    0.7110 C.3     1  UNL1        0.0870
      4  O          3.5660    1.3460    2.4530 O.2     1  UNL1       -0.3000
      5  C          6.8500    0.2040    1.5900 C.3     1  UNL1        0.0430
      6  C          7.2730   -0.7150    0.5180 C.2     1  UNL1       -0.0440
      7  C          7.1420   -0.3740   -0.8330 C.2     1  UNL1        0.0080
      8  C          7.8140   -1.9380    0.8420 C.2     1  UNL1        0.0540
      9  C          7.5570   -1.2770   -1.7960 C.2     1  UNL1        0.0510
     10  C          8.2330   -2.8460   -0.1340 C.2     1  UNL1        0.1660
     11  C          8.1030   -2.5130   -1.4640 C.2     1  UNL1        0.1650
     12  O          8.7920   -4.1050   -0.0690 O.2     1  UNL1       -0.4540
     13  O          8.5910   -3.5850   -2.1960 O.2     1  UNL1       -0.4540
     14  C          9.1210   -4.5770   -1.3500 C.3     1  UNL1        0.4680
@<TRIPOS>BOND
     1    13    11    1
     2    13    14    1
     3     9    11    2
     4     9     7    1
     5    11    10    1
     6    14    12    1
     7     7     6    2
     8    10    12    1
     9    10     8    2
    10     6     8    1
    11     6     5    1
    12     3     2    1
    13     5     1    1
    14     2     1    1
    15     2     4    2
