@<TRIPOS>MOLECULE
/home/cewinharhar/GITHUB/reincatalyze/data/processed/docking_pred/2023-May-25-1902_sub9_nm5_bs15_s42_ex16_mel10_mts10000_k50_ec01_g099_lra3e-4_lrc3e-3/544f4ddee7da09465e084ab518e20d4fbc72de61_ligand_9.pdbqt
 14 15 0 0 0
SMALL
GASTEIGER

@<TRIPOS>ATOM
      1  C          5.7640    1.4390   -0.2380 C.3     1  UNL1        0.0800
      2  C          5.0790    1.2920    1.0760 C.2     1  UNL1        0.1300
      3  C          5.3670    0.1480    1.9830 C.3     1  UNL1        0.0870
      4  O          4.2560    2.1120    1.4490 O.2     1  UNL1       -0.3000
      5  C          7.2470    1.1460   -0.1220 C.3     1  UNL1        0.0430
      6  C          7.6040   -0.1280   -0.7710 C.2     1  UNL1       -0.0440
      7  C          7.6500   -0.2540   -2.1640 C.2     1  UNL1        0.0080
      8  C          7.9050   -1.2270    0.0020 C.2     1  UNL1        0.0540
      9  C          7.9930   -1.4750   -2.7170 C.2     1  UNL1        0.0510
     10  C          8.2520   -2.4580   -0.5620 C.2     1  UNL1        0.1660
     11  C          8.2960   -2.5830   -1.9320 C.2     1  UNL1        0.1650
     12  O          8.5880   -3.6800   -0.0170 O.2     1  UNL1       -0.4540
     13  O          8.6630   -3.8920   -2.2040 O.2     1  UNL1       -0.4540
     14  C          8.9460   -4.5970   -1.0190 C.3     1  UNL1        0.4680
@<TRIPOS>BOND
     1     9     7    1
     2     9    11    2
     3    13    11    1
     4    13    14    1
     5     7     6    2
     6    11    10    1
     7    14    12    1
     8     6     5    1
     9     6     8    1
    10    10    12    1
    11    10     8    2
    12     1     5    1
    13     1     2    1
    14     2     4    2
    15     2     3    1
