@<TRIPOS>MOLECULE
/home/cewinharhar/GITHUB/reincatalyze/data/processed/docking_pred/2023-May-25-1902_sub9_nm5_bs15_s42_ex16_mel10_mts10000_k50_ec01_g099_lra3e-4_lrc3e-3/544f4ddee7da09465e084ab518e20d4fbc72de61_ligand_9.pdbqt
 14 15 0 0 0
SMALL
GASTEIGER

@<TRIPOS>ATOM
      1  C          6.3830    1.2080    0.8890 C.3     1  UNL1        0.0800
      2  C          5.6800    0.4020    1.9260 C.2     1  UNL1        0.1300
      3  C          6.2870   -0.8270    2.5040 C.3     1  UNL1        0.0870
      4  O          4.5770    0.7300    2.3330 O.2     1  UNL1       -0.3000
      5  C          5.8640    0.8920   -0.4990 C.3     1  UNL1        0.0430
      6  C          6.8200    0.0720   -1.2660 C.2     1  UNL1       -0.0440
      7  C          7.5120    0.5910   -2.3660 C.2     1  UNL1        0.0080
      8  C          7.0460   -1.2350   -0.8990 C.2     1  UNL1        0.0540
      9  C          8.3970   -0.2250   -3.0470 C.2     1  UNL1        0.0510
     10  C          7.9420   -2.0550   -1.5900 C.2     1  UNL1        0.1660
     11  C          8.6230   -1.5460   -2.6740 C.2     1  UNL1        0.1650
     12  O          8.3340   -3.3670   -1.4250 O.2     1  UNL1       -0.4540
     13  O          9.4280   -2.5660   -3.1560 O.2     1  UNL1       -0.4540
     14  C          9.3440   -3.7090   -2.3390 C.3     1  UNL1        0.4680
@<TRIPOS>BOND
     1    13    11    1
     2    13    14    1
     3     9    11    2
     4     9     7    1
     5    11    10    1
     6     7     6    2
     7    14    12    1
     8    10    12    1
     9    10     8    2
    10     6     8    1
    11     6     5    1
    12     5     1    1
    13     1     2    1
    14     2     4    2
    15     2     3    1
