@<TRIPOS>MOLECULE
/home/cewinharhar/GITHUB/reincatalyze/data/processed/docking_pred/2023-May-25-1902_sub9_nm5_bs15_s42_ex16_mel10_mts10000_k50_ec01_g099_lra3e-4_lrc3e-3/551c5941f3bf749be32b1159c48b101be233bdbe_ligand_9.pdbqt
 14 15 0 0 0
SMALL
GASTEIGER

@<TRIPOS>ATOM
      1  C          6.3440    1.2270    0.9420 C.3     1  UNL1        0.0800
      2  C          5.6460    0.3730    1.9430 C.2     1  UNL1        0.1300
      3  C          6.2770   -0.8550    2.4960 C.3     1  UNL1        0.0870
      4  O          4.5290    0.6600    2.3400 O.2     1  UNL1       -0.3000
      5  C          5.8370    0.9570   -0.4610 C.3     1  UNL1        0.0430
      6  C          6.7850    0.1370   -1.2360 C.2     1  UNL1       -0.0440
      7  C          7.4740    0.6570   -2.3380 C.2     1  UNL1        0.0080
      8  C          7.0080   -1.1720   -0.8760 C.2     1  UNL1        0.0540
      9  C          8.3520   -0.1600   -3.0270 C.2     1  UNL1        0.0510
     10  C          7.8970   -1.9940   -1.5750 C.2     1  UNL1        0.1660
     11  C          8.5740   -1.4830   -2.6600 C.2     1  UNL1        0.1650
     12  O          8.2850   -3.3080   -1.4180 O.2     1  UNL1       -0.4540
     13  O          9.3730   -2.5040   -3.1510 O.2     1  UNL1       -0.4540
     14  C          9.2890   -3.6510   -2.3380 C.3     1  UNL1        0.4680
@<TRIPOS>BOND
     1    13    11    1
     2    13    14    1
     3     9    11    2
     4     9     7    1
     5    11    10    1
     6     7     6    2
     7    14    12    1
     8    10    12    1
     9    10     8    2
    10     6     8    1
    11     6     5    1
    12     5     1    1
    13     1     2    1
    14     2     4    2
    15     2     3    1
