@<TRIPOS>MOLECULE
/home/cewinharhar/GITHUB/reincatalyze/data/processed/docking_pred/2023-May-25-1902_sub9_nm5_bs15_s42_ex16_mel10_mts10000_k50_ec01_g099_lra3e-4_lrc3e-3/551c5941f3bf749be32b1159c48b101be233bdbe_ligand_9.pdbqt
 14 15 0 0 0
SMALL
GASTEIGER

@<TRIPOS>ATOM
      1  C          5.5700    1.8540    1.3150 C.3     1  UNL1        0.0800
      2  C          5.1190    0.6360    2.0450 C.2     1  UNL1        0.1300
      3  C          6.0010   -0.5510    2.2040 C.3     1  UNL1        0.0870
      4  O          4.0030    0.5780    2.5370 O.2     1  UNL1       -0.3000
      5  C          5.4220    1.6830   -0.1840 C.3     1  UNL1        0.0430
      6  C          6.5860    0.9970   -0.7730 C.2     1  UNL1       -0.0440
      7  C          7.8920    1.4530   -0.5590 C.2     1  UNL1        0.0080
      8  C          6.3960   -0.1220   -1.5520 C.2     1  UNL1        0.0540
      9  C          8.9450    0.7680   -1.1370 C.2     1  UNL1        0.0510
     10  C          7.4640   -0.8110   -2.1330 C.2     1  UNL1        0.1660
     11  C          8.7490   -0.3620   -1.9240 C.2     1  UNL1        0.1650
     12  O          7.5350   -1.9300   -2.9350 O.2     1  UNL1       -0.4540
     13  O          9.5910   -1.2250   -2.6090 O.2     1  UNL1       -0.4540
     14  C          8.8700   -2.2850   -3.1890 C.3     1  UNL1        0.4680
@<TRIPOS>BOND
     1    14    12    1
     2    14    13    1
     3    12    10    1
     4    13    11    1
     5    10    11    2
     6    10     8    1
     7    11     9    1
     8     8     6    2
     9     9     7    2
    10     6     7    1
    11     6     5    1
    12     5     1    1
    13     1     2    1
    14     2     3    1
    15     2     4    2
