MODEL 1
REMARK VINA RESULT:      -7.5      0.000      0.000
REMARK SMILES CC(=O)CCc1ccc2c(c1)OCO2
REMARK SMILES IDX 4 1 2 2 1 3 3 4 5 5 6 6 7 7 11 8 8 9 10 10 9 11 12 12 14 13
REMARK SMILES IDX 13 14
REMARK H PARENT
REMARK Flexibility Score: inf
ROOT
ATOM      1  C   UNL     1       5.570   1.854   1.315  1.00  0.00     0.080 C 
ENDROOT
BRANCH   1   2
ATOM      2  C   UNL     1       5.119   0.636   2.045  1.00  0.00     0.130 C 
ATOM      3  C   UNL     1       6.001  -0.551   2.204  1.00  0.00     0.087 C 
ATOM      4  O   UNL     1       4.003   0.578   2.537  1.00  0.00    -0.300 OA
ENDBRANCH   1   2
BRANCH   1   5
ATOM      5  C   UNL     1       5.422   1.683  -0.184  1.00  0.00     0.043 C 
BRANCH   5   6
ATOM      6  C   UNL     1       6.586   0.997  -0.773  1.00  0.00    -0.044 A 
ATOM      7  C   UNL     1       7.892   1.453  -0.559  1.00  0.00     0.008 A 
ATOM      8  C   UNL     1       6.396  -0.122  -1.552  1.00  0.00     0.054 A 
ATOM      9  C   UNL     1       8.945   0.768  -1.137  1.00  0.00     0.051 A 
ATOM     10  C   UNL     1       7.464  -0.811  -2.133  1.00  0.00     0.166 A 
ATOM     11  C   UNL     1       8.749  -0.362  -1.924  1.00  0.00     0.165 A 
ATOM     12  O   UNL     1       7.535  -1.930  -2.935  1.00  0.00    -0.454 OA
ATOM     13  O   UNL     1       9.591  -1.225  -2.609  1.00  0.00    -0.454 OA
ATOM     14  C   UNL     1       8.870  -2.285  -3.189  1.00  0.00     0.468 C 
ENDBRANCH   5   6
ENDBRANCH   1   5
TORSDOF 3
ENDMDL
MODEL 2
REMARK VINA RESULT:      -7.3      1.916      2.405
REMARK SMILES CC(=O)CCc1ccc2c(c1)OCO2
REMARK SMILES IDX 4 1 2 2 1 3 3 4 5 5 6 6 7 7 11 8 8 9 10 10 9 11 12 12 14 13
REMARK SMILES IDX 13 14
REMARK H PARENT
REMARK Flexibility Score: inf
ROOT
ATOM      1  C   UNL     1       5.710   1.110  -0.333  1.00  0.00     0.080 C 
ENDROOT
BRANCH   1   2
ATOM      2  C   UNL     1       5.196   1.185   1.063  1.00  0.00     0.130 C 
ATOM      3  C   UNL     1       5.442   0.095   2.045  1.00  0.00     0.087 C 
ATOM      4  O   UNL     1       4.552   2.149   1.443  1.00  0.00    -0.300 OA
ENDBRANCH   1   2
BRANCH   1   5
ATOM      5  C   UNL     1       7.221   0.991  -0.358  1.00  0.00     0.043 C 
BRANCH   5   6
ATOM      6  C   UNL     1       7.659  -0.281  -0.957  1.00  0.00    -0.044 A 
ATOM      7  C   UNL     1       7.871  -0.408  -2.335  1.00  0.00     0.008 A 
ATOM      8  C   UNL     1       7.871  -1.378  -0.153  1.00  0.00     0.054 A 
ATOM      9  C   UNL     1       8.283  -1.627  -2.842  1.00  0.00     0.051 A 
ATOM     10  C   UNL     1       8.288  -2.608  -0.670  1.00  0.00     0.166 A 
ATOM     11  C   UNL     1       8.495  -2.734  -2.025  1.00  0.00     0.165 A 
ATOM     12  O   UNL     1       8.562  -3.828  -0.087  1.00  0.00    -0.454 OA
ATOM     13  O   UNL     1       8.898  -4.041  -2.249  1.00  0.00    -0.454 OA
ATOM     14  C   UNL     1       9.041  -4.744  -1.038  1.00  0.00     0.468 C 
ENDBRANCH   5   6
ENDBRANCH   1   5
TORSDOF 3
ENDMDL
MODEL 3
REMARK VINA RESULT:      -7.1      2.078      2.615
REMARK SMILES CC(=O)CCc1ccc2c(c1)OCO2
REMARK SMILES IDX 4 1 2 2 1 3 3 4 5 5 6 6 7 7 11 8 8 9 10 10 9 11 12 12 14 13
REMARK SMILES IDX 13 14
REMARK H PARENT
REMARK Flexibility Score: inf
ROOT
ATOM      1  C   UNL     1       5.547   0.009   1.951  1.00  0.00     0.080 C 
ENDROOT
BRANCH   1   2
ATOM      2  C   UNL     1       4.666   1.170   1.644  1.00  0.00     0.130 C 
ATOM      3  C   UNL     1       4.993   2.133   0.558  1.00  0.00     0.087 C 
ATOM      4  O   UNL     1       3.643   1.366   2.280  1.00  0.00    -0.300 OA
ENDBRANCH   1   2
BRANCH   1   5
ATOM      5  C   UNL     1       6.967   0.256   1.479  1.00  0.00     0.043 C 
BRANCH   5   6
ATOM      6  C   UNL     1       7.370  -0.705   0.437  1.00  0.00    -0.044 A 
ATOM      7  C   UNL     1       7.253  -0.402  -0.924  1.00  0.00     0.008 A 
ATOM      8  C   UNL     1       7.879  -1.932   0.800  1.00  0.00     0.054 A 
ATOM      9  C   UNL     1       7.648  -1.343  -1.858  1.00  0.00     0.051 A 
ATOM     10  C   UNL     1       8.278  -2.879  -0.148  1.00  0.00     0.166 A 
ATOM     11  C   UNL     1       8.161  -2.582  -1.488  1.00  0.00     0.165 A 
ATOM     12  O   UNL     1       8.805  -4.149  -0.043  1.00  0.00    -0.454 OA
ATOM     13  O   UNL     1       8.625  -3.687  -2.185  1.00  0.00    -0.454 OA
ATOM     14  C   UNL     1       9.127  -4.667  -1.308  1.00  0.00     0.468 C 
ENDBRANCH   5   6
ENDBRANCH   1   5
TORSDOF 3
ENDMDL
MODEL 4
REMARK VINA RESULT:      -7.0      1.224      1.408
REMARK SMILES CC(=O)CCc1ccc2c(c1)OCO2
REMARK SMILES IDX 4 1 2 2 1 3 3 4 5 5 6 6 7 7 11 8 8 9 10 10 9 11 12 12 14 13
REMARK SMILES IDX 13 14
REMARK H PARENT
REMARK Flexibility Score: inf
ROOT
ATOM      1  C   UNL     1       6.344   1.227   0.942  1.00  0.00     0.080 C 
ENDROOT
BRANCH   1   2
ATOM      2  C   UNL     1       5.646   0.373   1.943  1.00  0.00     0.130 C 
ATOM      3  C   UNL     1       6.277  -0.855   2.496  1.00  0.00     0.087 C 
ATOM      4  O   UNL     1       4.529   0.660   2.340  1.00  0.00    -0.300 OA
ENDBRANCH   1   2
BRANCH   1   5
ATOM      5  C   UNL     1       5.837   0.957  -0.461  1.00  0.00     0.043 C 
BRANCH   5   6
ATOM      6  C   UNL     1       6.785   0.137  -1.236  1.00  0.00    -0.044 A 
ATOM      7  C   UNL     1       7.474   0.657  -2.338  1.00  0.00     0.008 A 
ATOM      8  C   UNL     1       7.008  -1.172  -0.876  1.00  0.00     0.054 A 
ATOM      9  C   UNL     1       8.352  -0.160  -3.027  1.00  0.00     0.051 A 
ATOM     10  C   UNL     1       7.897  -1.994  -1.575  1.00  0.00     0.166 A 
ATOM     11  C   UNL     1       8.574  -1.483  -2.660  1.00  0.00     0.165 A 
ATOM     12  O   UNL     1       8.285  -3.308  -1.418  1.00  0.00    -0.454 OA
ATOM     13  O   UNL     1       9.373  -2.504  -3.151  1.00  0.00    -0.454 OA
ATOM     14  C   UNL     1       9.289  -3.651  -2.338  1.00  0.00     0.468 C 
ENDBRANCH   5   6
ENDBRANCH   1   5
TORSDOF 3
ENDMDL
MODEL 5
REMARK VINA RESULT:      -6.8      1.947      2.514
REMARK SMILES CC(=O)CCc1ccc2c(c1)OCO2
REMARK SMILES IDX 4 1 2 2 1 3 3 4 5 5 6 6 7 7 11 8 8 9 10 10 9 11 12 12 14 13
REMARK SMILES IDX 13 14
REMARK H PARENT
REMARK Flexibility Score: inf
ROOT
ATOM      1  C   UNL     1       6.911   0.959   1.187  1.00  0.00     0.080 C 
ENDROOT
BRANCH   1   2
ATOM      2  C   UNL     1       5.461   1.133   1.480  1.00  0.00     0.130 C 
ATOM      3  C   UNL     1       4.638   2.150   0.773  1.00  0.00     0.087 C 
ATOM      4  O   UNL     1       4.904   0.440   2.316  1.00  0.00    -0.300 OA
ENDBRANCH   1   2
BRANCH   1   5
ATOM      5  C   UNL     1       7.189   1.068  -0.299  1.00  0.00     0.043 C 
BRANCH   5   6
ATOM      6  C   UNL     1       7.566  -0.232  -0.881  1.00  0.00    -0.044 A 
ATOM      7  C   UNL     1       7.614  -0.429  -2.266  1.00  0.00     0.008 A 
ATOM      8  C   UNL     1       7.883  -1.285  -0.053  1.00  0.00     0.054 A 
ATOM      9  C   UNL     1       7.976  -1.671  -2.755  1.00  0.00     0.051 A 
ATOM     10  C   UNL     1       8.248  -2.538  -0.552  1.00  0.00     0.166 A 
ATOM     11  C   UNL     1       8.295  -2.733  -1.915  1.00  0.00     0.165 A 
ATOM     12  O   UNL     1       8.602  -3.725   0.055  1.00  0.00    -0.454 OA
ATOM     13  O   UNL     1       8.681  -4.049  -2.118  1.00  0.00    -0.454 OA
ATOM     14  C   UNL     1       8.974  -4.687  -0.898  1.00  0.00     0.468 C 
ENDBRANCH   5   6
ENDBRANCH   1   5
TORSDOF 3
ENDMDL
