@<TRIPOS>MOLECULE
/home/cewinharhar/GITHUB/reincatalyze/data/processed/docking_pred/2023-May-25-1902_sub9_nm5_bs15_s42_ex16_mel10_mts10000_k50_ec01_g099_lra3e-4_lrc3e-3/551e6d8a024554ec32308953f7464105b503c37a_ligand_9.pdbqt
 14 15 0 0 0
SMALL
GASTEIGER

@<TRIPOS>ATOM
      1  C          5.5810    0.0120    1.9460 C.3     1  UNL1        0.0800
      2  C          4.6800    1.1530    1.6230 C.2     1  UNL1        0.1300
      3  C          4.9700    2.0830    0.4990 C.3     1  UNL1        0.0870
      4  O          3.6720    1.3600    2.2780 O.2     1  UNL1       -0.3000
      5  C          6.9920    0.2680    1.4530 C.3     1  UNL1        0.0430
      6  C          7.3930   -0.7020    0.4180 C.2     1  UNL1       -0.0440
      7  C          7.2850   -0.4050   -0.9460 C.2     1  UNL1        0.0080
      8  C          7.8900   -1.9300    0.7900 C.2     1  UNL1        0.0540
      9  C          7.6780   -1.3540   -1.8720 C.2     1  UNL1        0.0510
     10  C          8.2870   -2.8860   -0.1510 C.2     1  UNL1        0.1660
     11  C          8.1790   -2.5950   -1.4930 C.2     1  UNL1        0.1650
     12  O          8.8030   -4.1590   -0.0360 O.2     1  UNL1       -0.4540
     13  O          8.6370   -3.7070   -2.1810 O.2     1  UNL1       -0.4540
     14  C          9.1270   -4.6870   -1.2970 C.3     1  UNL1        0.4680
@<TRIPOS>BOND
     1    13    11    1
     2    13    14    1
     3     9    11    2
     4     9     7    1
     5    11    10    1
     6    14    12    1
     7     7     6    2
     8    10    12    1
     9    10     8    2
    10     6     8    1
    11     6     5    1
    12     3     2    1
    13     5     1    1
    14     2     1    1
    15     2     4    2
