MODEL 1
REMARK VINA RESULT:      -7.7      0.000      0.000
REMARK SMILES CC(=O)CCc1ccc2c(c1)OCO2
REMARK SMILES IDX 4 1 2 2 1 3 3 4 5 5 6 6 7 7 11 8 8 9 10 10 9 11 12 12 14 13
REMARK SMILES IDX 13 14
REMARK H PARENT
REMARK Flexibility Score: inf
ROOT
ATOM      1  C   UNL     1       5.513   1.920   1.264  1.00  0.00     0.080 C 
ENDROOT
BRANCH   1   2
ATOM      2  C   UNL     1       5.064   0.705   2.000  1.00  0.00     0.130 C 
ATOM      3  C   UNL     1       5.943  -0.484   2.154  1.00  0.00     0.087 C 
ATOM      4  O   UNL     1       3.952   0.651   2.500  1.00  0.00    -0.300 OA
ENDBRANCH   1   2
BRANCH   1   5
ATOM      5  C   UNL     1       5.390   1.732  -0.235  1.00  0.00     0.043 C 
BRANCH   5   6
ATOM      6  C   UNL     1       6.560   1.031  -0.796  1.00  0.00    -0.044 A 
ATOM      7  C   UNL     1       7.866   1.467  -0.543  1.00  0.00     0.008 A 
ATOM      8  C   UNL     1       6.374  -0.081  -1.585  1.00  0.00     0.054 A 
ATOM      9  C   UNL     1       8.924   0.768  -1.096  1.00  0.00     0.051 A 
ATOM     10  C   UNL     1       7.448  -0.784  -2.141  1.00  0.00     0.166 A 
ATOM     11  C   UNL     1       8.733  -0.355  -1.894  1.00  0.00     0.165 A 
ATOM     12  O   UNL     1       7.524  -1.900  -2.946  1.00  0.00    -0.454 OA
ATOM     13  O   UNL     1       9.581  -1.227  -2.560  1.00  0.00    -0.454 OA
ATOM     14  C   UNL     1       8.861  -2.274  -3.165  1.00  0.00     0.468 C 
ENDBRANCH   5   6
ENDBRANCH   1   5
TORSDOF 3
ENDMDL
MODEL 2
REMARK VINA RESULT:      -7.4      1.865      2.324
REMARK SMILES CC(=O)CCc1ccc2c(c1)OCO2
REMARK SMILES IDX 4 1 2 2 1 3 3 4 5 5 6 6 7 7 11 8 8 9 10 10 9 11 12 12 14 13
REMARK SMILES IDX 13 14
REMARK H PARENT
REMARK Flexibility Score: inf
ROOT
ATOM      1  C   UNL     1       5.735   1.405  -0.290  1.00  0.00     0.080 C 
ENDROOT
BRANCH   1   2
ATOM      2  C   UNL     1       5.180   1.286   1.087  1.00  0.00     0.130 C 
ATOM      3  C   UNL     1       5.488   0.117   1.954  1.00  0.00     0.087 C 
ATOM      4  O   UNL     1       4.451   2.150   1.547  1.00  0.00    -0.300 OA
ENDBRANCH   1   2
BRANCH   1   5
ATOM      5  C   UNL     1       7.236   1.193  -0.299  1.00  0.00     0.043 C 
BRANCH   5   6
ATOM      6  C   UNL     1       7.601  -0.096  -0.911  1.00  0.00    -0.044 A 
ATOM      7  C   UNL     1       7.672  -0.255  -2.300  1.00  0.00     0.008 A 
ATOM      8  C   UNL     1       7.885  -1.177  -0.108  1.00  0.00     0.054 A 
ATOM      9  C   UNL     1       8.021  -1.488  -2.818  1.00  0.00     0.051 A 
ATOM     10  C   UNL     1       8.239  -2.422  -0.636  1.00  0.00     0.166 A 
ATOM     11  C   UNL     1       8.307  -2.579  -2.003  1.00  0.00     0.165 A 
ATOM     12  O   UNL     1       8.561  -3.631  -0.058  1.00  0.00    -0.454 OA
ATOM     13  O   UNL     1       8.675  -3.895  -2.237  1.00  0.00    -0.454 OA
ATOM     14  C   UNL     1       8.934  -4.573  -1.031  1.00  0.00     0.468 C 
ENDBRANCH   5   6
ENDBRANCH   1   5
TORSDOF 3
ENDMDL
MODEL 3
REMARK VINA RESULT:      -7.2      2.094      2.627
REMARK SMILES CC(=O)CCc1ccc2c(c1)OCO2
REMARK SMILES IDX 4 1 2 2 1 3 3 4 5 5 6 6 7 7 11 8 8 9 10 10 9 11 12 12 14 13
REMARK SMILES IDX 13 14
REMARK H PARENT
REMARK Flexibility Score: inf
ROOT
ATOM      1  C   UNL     1       5.581   0.012   1.946  1.00  0.00     0.080 C 
ENDROOT
BRANCH   1   2
ATOM      2  C   UNL     1       4.680   1.153   1.623  1.00  0.00     0.130 C 
ATOM      3  C   UNL     1       4.970   2.083   0.499  1.00  0.00     0.087 C 
ATOM      4  O   UNL     1       3.672   1.360   2.278  1.00  0.00    -0.300 OA
ENDBRANCH   1   2
BRANCH   1   5
ATOM      5  C   UNL     1       6.992   0.268   1.453  1.00  0.00     0.043 C 
BRANCH   5   6
ATOM      6  C   UNL     1       7.393  -0.702   0.418  1.00  0.00    -0.044 A 
ATOM      7  C   UNL     1       7.285  -0.405  -0.946  1.00  0.00     0.008 A 
ATOM      8  C   UNL     1       7.890  -1.930   0.790  1.00  0.00     0.054 A 
ATOM      9  C   UNL     1       7.678  -1.354  -1.872  1.00  0.00     0.051 A 
ATOM     10  C   UNL     1       8.287  -2.886  -0.151  1.00  0.00     0.166 A 
ATOM     11  C   UNL     1       8.179  -2.595  -1.493  1.00  0.00     0.165 A 
ATOM     12  O   UNL     1       8.803  -4.159  -0.036  1.00  0.00    -0.454 OA
ATOM     13  O   UNL     1       8.637  -3.707  -2.181  1.00  0.00    -0.454 OA
ATOM     14  C   UNL     1       9.127  -4.687  -1.297  1.00  0.00     0.468 C 
ENDBRANCH   5   6
ENDBRANCH   1   5
TORSDOF 3
ENDMDL
MODEL 4
REMARK VINA RESULT:      -7.1      1.263      1.479
REMARK SMILES CC(=O)CCc1ccc2c(c1)OCO2
REMARK SMILES IDX 4 1 2 2 1 3 3 4 5 5 6 6 7 7 11 8 8 9 10 10 9 11 12 12 14 13
REMARK SMILES IDX 13 14
REMARK H PARENT
REMARK Flexibility Score: inf
ROOT
ATOM      1  C   UNL     1       6.383   1.176   0.957  1.00  0.00     0.080 C 
ENDROOT
BRANCH   1   2
ATOM      2  C   UNL     1       5.644   0.362   1.962  1.00  0.00     0.130 C 
ATOM      3  C   UNL     1       6.232  -0.868   2.556  1.00  0.00     0.087 C 
ATOM      4  O   UNL     1       4.525   0.685   2.329  1.00  0.00    -0.300 OA
ENDBRANCH   1   2
BRANCH   1   5
ATOM      5  C   UNL     1       5.871   0.915  -0.446  1.00  0.00     0.043 C 
BRANCH   5   6
ATOM      6  C   UNL     1       6.812   0.091  -1.226  1.00  0.00    -0.044 A 
ATOM      7  C   UNL     1       7.477   0.601  -2.348  1.00  0.00     0.008 A 
ATOM      8  C   UNL     1       7.052  -1.211  -0.851  1.00  0.00     0.054 A 
ATOM      9  C   UNL     1       8.349  -0.219  -3.040  1.00  0.00     0.051 A 
ATOM     10  C   UNL     1       7.935  -2.036  -1.554  1.00  0.00     0.166 A 
ATOM     11  C   UNL     1       8.589  -1.535  -2.658  1.00  0.00     0.165 A 
ATOM     12  O   UNL     1       8.337  -3.344  -1.385  1.00  0.00    -0.454 OA
ATOM     13  O   UNL     1       9.387  -2.557  -3.148  1.00  0.00    -0.454 OA
ATOM     14  C   UNL     1       9.327  -3.692  -2.318  1.00  0.00     0.468 C 
ENDBRANCH   5   6
ENDBRANCH   1   5
TORSDOF 3
ENDMDL
MODEL 5
REMARK VINA RESULT:      -6.8      2.017      2.678
REMARK SMILES CC(=O)CCc1ccc2c(c1)OCO2
REMARK SMILES IDX 4 1 2 2 1 3 3 4 5 5 6 6 7 7 11 8 8 9 10 10 9 11 12 12 14 13
REMARK SMILES IDX 13 14
REMARK H PARENT
REMARK Flexibility Score: inf
ROOT
ATOM      1  C   UNL     1       6.573   0.395   1.074  1.00  0.00     0.080 C 
ENDROOT
BRANCH   1   2
ATOM      2  C   UNL     1       5.263   1.033   1.382  1.00  0.00     0.130 C 
ATOM      3  C   UNL     1       4.726   2.150   0.559  1.00  0.00     0.087 C 
ATOM      4  O   UNL     1       4.588   0.655   2.326  1.00  0.00    -0.300 OA
ENDBRANCH   1   2
BRANCH   1   5
ATOM      5  C   UNL     1       6.946   0.578  -0.383  1.00  0.00     0.043 C 
BRANCH   5   6
ATOM      6  C   UNL     1       7.510  -0.655  -0.962  1.00  0.00    -0.044 A 
ATOM      7  C   UNL     1       7.751  -0.776  -2.336  1.00  0.00     0.008 A 
ATOM      8  C   UNL     1       7.812  -1.718  -0.141  1.00  0.00     0.054 A 
ATOM      9  C   UNL     1       8.282  -1.957  -2.822  1.00  0.00     0.051 A 
ATOM     10  C   UNL     1       8.350  -2.909  -0.638  1.00  0.00     0.166 A 
ATOM     11  C   UNL     1       8.586  -3.030  -1.989  1.00  0.00     0.165 A 
ATOM     12  O   UNL     1       8.729  -4.091  -0.038  1.00  0.00    -0.454 OA
ATOM     13  O   UNL     1       9.113  -4.296  -2.192  1.00  0.00    -0.454 OA
ATOM     14  C   UNL     1       9.305  -4.969  -0.971  1.00  0.00     0.468 C 
ENDBRANCH   5   6
ENDBRANCH   1   5
TORSDOF 3
ENDMDL
