@<TRIPOS>MOLECULE
/home/cewinharhar/GITHUB/reincatalyze/data/processed/docking_pred/2023-May-25-1902_sub9_nm5_bs15_s42_ex16_mel10_mts10000_k50_ec01_g099_lra3e-4_lrc3e-3/55f9a48c22e019202c812c896c561d7470c53219_ligand_9.pdbqt
 14 15 0 0 0
SMALL
GASTEIGER

@<TRIPOS>ATOM
      1  C          6.3760    1.1570    0.9580 C.3     1  UNL1        0.0800
      2  C          5.6410    0.3390    1.9620 C.2     1  UNL1        0.1300
      3  C          6.2270   -0.9010    2.5400 C.3     1  UNL1        0.0870
      4  O          4.5280    0.6640    2.3420 O.2     1  UNL1       -0.3000
      5  C          5.8650    0.8970   -0.4450 C.3     1  UNL1        0.0430
      6  C          6.8090    0.0790   -1.2280 C.2     1  UNL1       -0.0440
      7  C          7.4730    0.5950   -2.3470 C.2     1  UNL1        0.0080
      8  C          7.0520   -1.2240   -0.8580 C.2     1  UNL1        0.0540
      9  C          8.3480   -0.2190   -3.0420 C.2     1  UNL1        0.0510
     10  C          7.9380   -2.0430   -1.5640 C.2     1  UNL1        0.1660
     11  C          8.5910   -1.5360   -2.6650 C.2     1  UNL1        0.1650
     12  O          8.3440   -3.3500   -1.4000 O.2     1  UNL1       -0.4540
     13  O          9.3930   -2.5530   -3.1590 O.2     1  UNL1       -0.4540
     14  C          9.3360   -3.6920   -2.3340 C.3     1  UNL1        0.4680
@<TRIPOS>BOND
     1    13    11    1
     2    13    14    1
     3     9    11    2
     4     9     7    1
     5    11    10    1
     6     7     6    2
     7    14    12    1
     8    10    12    1
     9    10     8    2
    10     6     8    1
    11     6     5    1
    12     5     1    1
    13     1     2    1
    14     2     4    2
    15     2     3    1
