@<TRIPOS>MOLECULE
/home/cewinharhar/GITHUB/reincatalyze/data/processed/docking_pred/2023-May-25-1902_sub9_nm5_bs15_s42_ex16_mel10_mts10000_k50_ec01_g099_lra3e-4_lrc3e-3/55f9a48c22e019202c812c896c561d7470c53219_ligand_9.pdbqt
 14 15 0 0 0
SMALL
GASTEIGER

@<TRIPOS>ATOM
      1  C          5.3910   -0.0710    2.0200 C.3     1  UNL1        0.0800
      2  C          4.5570    1.1380    1.7720 C.2     1  UNL1        0.1300
      3  C          4.9100    2.1270    0.7180 C.3     1  UNL1        0.0870
      4  O          3.5540    1.3530    2.4320 O.2     1  UNL1       -0.3000
      5  C          6.8360    0.1670    1.6290 C.3     1  UNL1        0.0430
      6  C          7.2710   -0.7470    0.5580 C.2     1  UNL1       -0.0440
      7  C          7.1560   -0.3990   -0.7930 C.2     1  UNL1        0.0080
      8  C          7.8060   -1.9730    0.8820 C.2     1  UNL1        0.0540
      9  C          7.5810   -1.2970   -1.7560 C.2     1  UNL1        0.0510
     10  C          8.2350   -2.8760   -0.0950 C.2     1  UNL1        0.1660
     11  C          8.1210   -2.5360   -1.4250 C.2     1  UNL1        0.1650
     12  O          8.7920   -4.1360   -0.0300 O.2     1  UNL1       -0.4540
     13  O          8.6170   -3.6040   -2.1560 O.2     1  UNL1       -0.4540
     14  C          9.1360   -4.6020   -1.3100 C.3     1  UNL1        0.4680
@<TRIPOS>BOND
     1    13    11    1
     2    13    14    1
     3     9    11    2
     4     9     7    1
     5    11    10    1
     6    14    12    1
     7     7     6    2
     8    10    12    1
     9    10     8    2
    10     6     8    1
    11     6     5    1
    12     3     2    1
    13     5     1    1
    14     2     1    1
    15     2     4    2
