@<TRIPOS>MOLECULE
/home/cewinharhar/GITHUB/reincatalyze/data/processed/docking_pred/2023-May-25-1902_sub9_nm5_bs15_s42_ex16_mel10_mts10000_k50_ec01_g099_lra3e-4_lrc3e-3/55f9a48c22e019202c812c896c561d7470c53219_ligand_9.pdbqt
 14 15 0 0 0
SMALL
GASTEIGER

@<TRIPOS>ATOM
      1  C          6.9390    0.7930    1.2600 C.3     1  UNL1        0.0800
      2  C          5.5040    1.1470    1.4420 C.2     1  UNL1        0.1300
      3  C          4.8290    2.1450    0.5710 C.3     1  UNL1        0.0870
      4  O          4.8360    0.6240    2.3200 O.2     1  UNL1       -0.3000
      5  C          7.3730    0.9780   -0.1810 C.3     1  UNL1        0.0430
      6  C          7.7400   -0.3030   -0.8100 C.2     1  UNL1       -0.0440
      7  C          7.8260   -0.4380   -2.2010 C.2     1  UNL1        0.0080
      8  C          8.0110   -1.3980   -0.0210 C.2     1  UNL1        0.0540
      9  C          8.1760   -1.6650   -2.7350 C.2     1  UNL1        0.0510
     10  C          8.3650   -2.6350   -0.5660 C.2     1  UNL1        0.1660
     11  C          8.4480   -2.7700   -1.9340 C.2     1  UNL1        0.1650
     12  O          8.6760   -3.8550   -0.0040 O.2     1  UNL1       -0.4540
     13  O          8.8130   -4.0830   -2.1860 O.2     1  UNL1       -0.4540
     14  C          9.0570   -4.7820   -0.9890 C.3     1  UNL1        0.4680
@<TRIPOS>BOND
     1     9     7    1
     2     9    11    2
     3     7     6    2
     4    13    11    1
     5    13    14    1
     6    11    10    1
     7    14    12    1
     8     6     5    1
     9     6     8    1
    10    10     8    2
    11    10    12    1
    12     5     1    1
    13     3     2    1
    14     1     2    1
    15     2     4    2
