@<TRIPOS>MOLECULE
/home/cewinharhar/GITHUB/reincatalyze/data/processed/docking_pred/2023-May-25-1902_sub9_nm5_bs15_s42_ex16_mel10_mts10000_k50_ec01_g099_lra3e-4_lrc3e-3/55f9a48c22e019202c812c896c561d7470c53219_ligand_9.pdbqt
 14 15 0 0 0
SMALL
GASTEIGER

@<TRIPOS>ATOM
      1  C          5.7150    1.2600   -0.3140 C.3     1  UNL1        0.0800
      2  C          5.1660    1.2200    1.0700 C.2     1  UNL1        0.1300
      3  C          5.3930    0.0560    1.9680 C.3     1  UNL1        0.0870
      4  O          4.5080    2.1500    1.5100 O.2     1  UNL1       -0.3000
      5  C          7.2190    1.0740   -0.3140 C.3     1  UNL1        0.0430
      6  C          7.6110   -0.2190   -0.9030 C.2     1  UNL1       -0.0440
      7  C          7.7190   -0.3920   -2.2870 C.2     1  UNL1        0.0080
      8  C          7.8800   -1.2890   -0.0800 C.2     1  UNL1        0.0540
      9  C          8.0910   -1.6280   -2.7820 C.2     1  UNL1        0.0510
     10  C          8.2560   -2.5370   -0.5850 C.2     1  UNL1        0.1660
     11  C          8.3630   -2.7080   -1.9470 C.2     1  UNL1        0.1650
     12  O          8.5720   -3.7380    0.0150 O.2     1  UNL1       -0.4540
     13  O          8.7460   -4.0240   -2.1570 O.2     1  UNL1       -0.4540
     14  C          8.9780   -4.6860   -0.9370 C.3     1  UNL1        0.4680
@<TRIPOS>BOND
     1     9     7    1
     2     9    11    2
     3     7     6    2
     4    13    11    1
     5    13    14    1
     6    11    10    1
     7    14    12    1
     8     6     5    1
     9     6     8    1
    10    10     8    2
    11    10    12    1
    12     1     5    1
    13     1     2    1
    14     2     4    2
    15     2     3    1
