MODEL 1
REMARK VINA RESULT:      -7.7      0.000      0.000
REMARK SMILES CC(=O)CCc1ccc2c(c1)OCO2
REMARK SMILES IDX 4 1 2 2 1 3 3 4 5 5 6 6 7 7 11 8 8 9 10 10 9 11 12 12 14 13
REMARK SMILES IDX 13 14
REMARK H PARENT
REMARK Flexibility Score: inf
ROOT
ATOM      1  C   UNL     1       5.541   1.906   1.282  1.00  0.00     0.080 C 
ENDROOT
BRANCH   1   2
ATOM      2  C   UNL     1       5.116   0.682   2.017  1.00  0.00     0.130 C 
ATOM      3  C   UNL     1       6.024  -0.484   2.183  1.00  0.00     0.087 C 
ATOM      4  O   UNL     1       4.001   0.601   2.507  1.00  0.00    -0.300 OA
ENDBRANCH   1   2
BRANCH   1   5
ATOM      5  C   UNL     1       5.410   1.721  -0.217  1.00  0.00     0.043 C 
BRANCH   5   6
ATOM      6  C   UNL     1       6.576   1.019  -0.784  1.00  0.00    -0.044 A 
ATOM      7  C   UNL     1       7.884   1.447  -0.530  1.00  0.00     0.008 A 
ATOM      8  C   UNL     1       6.384  -0.086  -1.582  1.00  0.00     0.054 A 
ATOM      9  C   UNL     1       8.938   0.748  -1.089  1.00  0.00     0.051 A 
ATOM     10  C   UNL     1       7.454  -0.789  -2.144  1.00  0.00     0.166 A 
ATOM     11  C   UNL     1       8.742  -0.368  -1.896  1.00  0.00     0.165 A 
ATOM     12  O   UNL     1       7.525  -1.899  -2.959  1.00  0.00    -0.454 OA
ATOM     13  O   UNL     1       9.585  -1.238  -2.569  1.00  0.00    -0.454 OA
ATOM     14  C   UNL     1       8.859  -2.277  -3.182  1.00  0.00     0.468 C 
ENDBRANCH   5   6
ENDBRANCH   1   5
TORSDOF 3
ENDMDL
MODEL 2
REMARK VINA RESULT:      -7.5      1.939      2.407
REMARK SMILES CC(=O)CCc1ccc2c(c1)OCO2
REMARK SMILES IDX 4 1 2 2 1 3 3 4 5 5 6 6 7 7 11 8 8 9 10 10 9 11 12 12 14 13
REMARK SMILES IDX 13 14
REMARK H PARENT
REMARK Flexibility Score: inf
ROOT
ATOM      1  C   UNL     1       5.715   1.260  -0.314  1.00  0.00     0.080 C 
ENDROOT
BRANCH   1   2
ATOM      2  C   UNL     1       5.166   1.220   1.070  1.00  0.00     0.130 C 
ATOM      3  C   UNL     1       5.393   0.056   1.968  1.00  0.00     0.087 C 
ATOM      4  O   UNL     1       4.508   2.150   1.510  1.00  0.00    -0.300 OA
ENDBRANCH   1   2
BRANCH   1   5
ATOM      5  C   UNL     1       7.219   1.074  -0.314  1.00  0.00     0.043 C 
BRANCH   5   6
ATOM      6  C   UNL     1       7.611  -0.219  -0.903  1.00  0.00    -0.044 A 
ATOM      7  C   UNL     1       7.719  -0.392  -2.287  1.00  0.00     0.008 A 
ATOM      8  C   UNL     1       7.880  -1.289  -0.080  1.00  0.00     0.054 A 
ATOM      9  C   UNL     1       8.091  -1.628  -2.782  1.00  0.00     0.051 A 
ATOM     10  C   UNL     1       8.256  -2.537  -0.585  1.00  0.00     0.166 A 
ATOM     11  C   UNL     1       8.363  -2.708  -1.947  1.00  0.00     0.165 A 
ATOM     12  O   UNL     1       8.572  -3.738   0.015  1.00  0.00    -0.454 OA
ATOM     13  O   UNL     1       8.746  -4.024  -2.157  1.00  0.00    -0.454 OA
ATOM     14  C   UNL     1       8.978  -4.686  -0.937  1.00  0.00     0.468 C 
ENDBRANCH   5   6
ENDBRANCH   1   5
TORSDOF 3
ENDMDL
MODEL 3
REMARK VINA RESULT:      -7.2      2.052      2.629
REMARK SMILES CC(=O)CCc1ccc2c(c1)OCO2
REMARK SMILES IDX 4 1 2 2 1 3 3 4 5 5 6 6 7 7 11 8 8 9 10 10 9 11 12 12 14 13
REMARK SMILES IDX 13 14
REMARK H PARENT
REMARK Flexibility Score: inf
ROOT
ATOM      1  C   UNL     1       5.391  -0.071   2.020  1.00  0.00     0.080 C 
ENDROOT
BRANCH   1   2
ATOM      2  C   UNL     1       4.557   1.138   1.772  1.00  0.00     0.130 C 
ATOM      3  C   UNL     1       4.910   2.127   0.718  1.00  0.00     0.087 C 
ATOM      4  O   UNL     1       3.554   1.353   2.432  1.00  0.00    -0.300 OA
ENDBRANCH   1   2
BRANCH   1   5
ATOM      5  C   UNL     1       6.836   0.167   1.629  1.00  0.00     0.043 C 
BRANCH   5   6
ATOM      6  C   UNL     1       7.271  -0.747   0.558  1.00  0.00    -0.044 A 
ATOM      7  C   UNL     1       7.156  -0.399  -0.793  1.00  0.00     0.008 A 
ATOM      8  C   UNL     1       7.806  -1.973   0.882  1.00  0.00     0.054 A 
ATOM      9  C   UNL     1       7.581  -1.297  -1.756  1.00  0.00     0.051 A 
ATOM     10  C   UNL     1       8.235  -2.876  -0.095  1.00  0.00     0.166 A 
ATOM     11  C   UNL     1       8.121  -2.536  -1.425  1.00  0.00     0.165 A 
ATOM     12  O   UNL     1       8.792  -4.136  -0.030  1.00  0.00    -0.454 OA
ATOM     13  O   UNL     1       8.617  -3.604  -2.156  1.00  0.00    -0.454 OA
ATOM     14  C   UNL     1       9.136  -4.602  -1.310  1.00  0.00     0.468 C 
ENDBRANCH   5   6
ENDBRANCH   1   5
TORSDOF 3
ENDMDL
MODEL 4
REMARK VINA RESULT:      -7.1      1.257      1.474
REMARK SMILES CC(=O)CCc1ccc2c(c1)OCO2
REMARK SMILES IDX 4 1 2 2 1 3 3 4 5 5 6 6 7 7 11 8 8 9 10 10 9 11 12 12 14 13
REMARK SMILES IDX 13 14
REMARK H PARENT
REMARK Flexibility Score: inf
ROOT
ATOM      1  C   UNL     1       6.376   1.157   0.958  1.00  0.00     0.080 C 
ENDROOT
BRANCH   1   2
ATOM      2  C   UNL     1       5.641   0.339   1.962  1.00  0.00     0.130 C 
ATOM      3  C   UNL     1       6.227  -0.901   2.540  1.00  0.00     0.087 C 
ATOM      4  O   UNL     1       4.528   0.664   2.342  1.00  0.00    -0.300 OA
ENDBRANCH   1   2
BRANCH   1   5
ATOM      5  C   UNL     1       5.865   0.897  -0.445  1.00  0.00     0.043 C 
BRANCH   5   6
ATOM      6  C   UNL     1       6.809   0.079  -1.228  1.00  0.00    -0.044 A 
ATOM      7  C   UNL     1       7.473   0.595  -2.347  1.00  0.00     0.008 A 
ATOM      8  C   UNL     1       7.052  -1.224  -0.858  1.00  0.00     0.054 A 
ATOM      9  C   UNL     1       8.348  -0.219  -3.042  1.00  0.00     0.051 A 
ATOM     10  C   UNL     1       7.938  -2.043  -1.564  1.00  0.00     0.166 A 
ATOM     11  C   UNL     1       8.591  -1.536  -2.665  1.00  0.00     0.165 A 
ATOM     12  O   UNL     1       8.344  -3.350  -1.400  1.00  0.00    -0.454 OA
ATOM     13  O   UNL     1       9.393  -2.553  -3.159  1.00  0.00    -0.454 OA
ATOM     14  C   UNL     1       9.336  -3.692  -2.334  1.00  0.00     0.468 C 
ENDBRANCH   5   6
ENDBRANCH   1   5
TORSDOF 3
ENDMDL
MODEL 5
REMARK VINA RESULT:      -7.0      1.990      2.560
REMARK SMILES CC(=O)CCc1ccc2c(c1)OCO2
REMARK SMILES IDX 4 1 2 2 1 3 3 4 5 5 6 6 7 7 11 8 8 9 10 10 9 11 12 12 14 13
REMARK SMILES IDX 13 14
REMARK H PARENT
REMARK Flexibility Score: inf
ROOT
ATOM      1  C   UNL     1       6.939   0.793   1.260  1.00  0.00     0.080 C 
ENDROOT
BRANCH   1   2
ATOM      2  C   UNL     1       5.504   1.147   1.442  1.00  0.00     0.130 C 
ATOM      3  C   UNL     1       4.829   2.145   0.571  1.00  0.00     0.087 C 
ATOM      4  O   UNL     1       4.836   0.624   2.320  1.00  0.00    -0.300 OA
ENDBRANCH   1   2
BRANCH   1   5
ATOM      5  C   UNL     1       7.373   0.978  -0.181  1.00  0.00     0.043 C 
BRANCH   5   6
ATOM      6  C   UNL     1       7.740  -0.303  -0.810  1.00  0.00    -0.044 A 
ATOM      7  C   UNL     1       7.826  -0.438  -2.201  1.00  0.00     0.008 A 
ATOM      8  C   UNL     1       8.011  -1.398  -0.021  1.00  0.00     0.054 A 
ATOM      9  C   UNL     1       8.176  -1.665  -2.735  1.00  0.00     0.051 A 
ATOM     10  C   UNL     1       8.365  -2.635  -0.566  1.00  0.00     0.166 A 
ATOM     11  C   UNL     1       8.448  -2.770  -1.934  1.00  0.00     0.165 A 
ATOM     12  O   UNL     1       8.676  -3.855  -0.004  1.00  0.00    -0.454 OA
ATOM     13  O   UNL     1       8.813  -4.083  -2.186  1.00  0.00    -0.454 OA
ATOM     14  C   UNL     1       9.057  -4.782  -0.989  1.00  0.00     0.468 C 
ENDBRANCH   5   6
ENDBRANCH   1   5
TORSDOF 3
ENDMDL
