@<TRIPOS>MOLECULE
/home/cewinharhar/GITHUB/reincatalyze/data/processed/docking_pred/2023-May-25-1902_sub9_nm5_bs15_s42_ex16_mel10_mts10000_k50_ec01_g099_lra3e-4_lrc3e-3/57f45ec83c8c38489066d898ddae0638f0802b8b_ligand_9.pdbqt
 14 15 0 0 0
SMALL
GASTEIGER

@<TRIPOS>ATOM
      1  C          5.2690   -0.1030    1.9290 C.3     1  UNL1        0.0800
      2  C          4.3900    1.0870    1.7640 C.2     1  UNL1        0.1300
      3  C          4.6430    2.1060    0.7100 C.3     1  UNL1        0.0870
      4  O          3.4290    1.2630    2.4960 O.2     1  UNL1       -0.3000
      5  C          6.7340    0.2860    1.8970 C.3     1  UNL1        0.0430
      6  C          7.3620   -0.0540    0.6080 C.2     1  UNL1       -0.0440
      7  C          7.8830    0.9330   -0.2360 C.2     1  UNL1        0.0080
      8  C          7.4450   -1.3710    0.2160 C.2     1  UNL1        0.0540
      9  C          8.4620    0.5540   -1.4340 C.2     1  UNL1        0.0510
     10  C          8.0310   -1.7490   -0.9950 C.2     1  UNL1        0.1660
     11  C          8.5440   -0.7790   -1.8270 C.2     1  UNL1        0.1650
     12  O          8.2320   -2.9710   -1.6010 O.2     1  UNL1       -0.4540
     13  O          9.0540   -1.4320   -2.9380 O.2     1  UNL1       -0.4540
     14  C          8.9590   -2.8290   -2.7950 C.3     1  UNL1        0.4680
@<TRIPOS>BOND
     1    13    14    1
     2    13    11    1
     3    14    12    1
     4    11     9    2
     5    11    10    1
     6    12    10    1
     7     9     7    1
     8    10     8    2
     9     7     6    2
    10     8     6    1
    11     6     5    1
    12     3     2    1
    13     2     1    1
    14     2     4    2
    15     5     1    1
