@<TRIPOS>MOLECULE
/home/cewinharhar/GITHUB/reincatalyze/data/processed/docking_pred/2023-May-25-1902_sub9_nm5_bs15_s42_ex16_mel10_mts10000_k50_ec01_g099_lra3e-4_lrc3e-3/57f45ec83c8c38489066d898ddae0638f0802b8b_ligand_9.pdbqt
 14 15 0 0 0
SMALL
GASTEIGER

@<TRIPOS>ATOM
      1  C          5.4040   -0.0680    1.9990 C.3     1  UNL1        0.0800
      2  C          4.5360    1.1170    1.7550 C.2     1  UNL1        0.1300
      3  C          4.8450    2.1040    0.6860 C.3     1  UNL1        0.0870
      4  O          3.5400    1.3150    2.4320 O.2     1  UNL1       -0.3000
      5  C          6.8330    0.1970    1.5690 C.3     1  UNL1        0.0430
      6  C          7.2670   -0.7330    0.5110 C.2     1  UNL1       -0.0440
      7  C          7.1470   -0.4080   -0.8450 C.2     1  UNL1        0.0080
      8  C          7.8070   -1.9510    0.8540 C.2     1  UNL1        0.0540
      9  C          7.5720   -1.3200   -1.7930 C.2     1  UNL1        0.0510
     10  C          8.2360   -2.8700   -0.1090 C.2     1  UNL1        0.1660
     11  C          8.1170   -2.5510   -1.4440 C.2     1  UNL1        0.1650
     12  O          8.7970   -4.1260   -0.0250 O.2     1  UNL1       -0.4540
     13  O          8.6130   -3.6300   -2.1590 O.2     1  UNL1       -0.4540
     14  C          9.1380   -4.6120   -1.2980 C.3     1  UNL1        0.4680
@<TRIPOS>BOND
     1    13    11    1
     2    13    14    1
     3     9    11    2
     4     9     7    1
     5    11    10    1
     6    14    12    1
     7     7     6    2
     8    10    12    1
     9    10     8    2
    10     6     8    1
    11     6     5    1
    12     3     2    1
    13     5     1    1
    14     2     1    1
    15     2     4    2
