MODEL 1
REMARK VINA RESULT:      -7.6      0.000      0.000
REMARK SMILES CC(=O)CCc1ccc2c(c1)OCO2
REMARK SMILES IDX 4 1 2 2 1 3 3 4 5 5 6 6 7 7 11 8 8 9 10 10 9 11 12 12 14 13
REMARK SMILES IDX 13 14
REMARK H PARENT
REMARK Flexibility Score: inf
ROOT
ATOM      1  C   UNL     1       5.499   1.925   1.274  1.00  0.00     0.080 C 
ENDROOT
BRANCH   1   2
ATOM      2  C   UNL     1       5.015   0.713   1.992  1.00  0.00     0.130 C 
ATOM      3  C   UNL     1       5.859  -0.504   2.125  1.00  0.00     0.087 C 
ATOM      4  O   UNL     1       3.904   0.684   2.495  1.00  0.00    -0.300 OA
ENDBRANCH   1   2
BRANCH   1   5
ATOM      5  C   UNL     1       5.385   1.757  -0.228  1.00  0.00     0.043 C 
BRANCH   5   6
ATOM      6  C   UNL     1       6.551   1.050  -0.789  1.00  0.00    -0.044 A 
ATOM      7  C   UNL     1       7.859   1.476  -0.532  1.00  0.00     0.008 A 
ATOM      8  C   UNL     1       6.359  -0.057  -1.583  1.00  0.00     0.054 A 
ATOM      9  C   UNL     1       8.914   0.772  -1.085  1.00  0.00     0.051 A 
ATOM     10  C   UNL     1       7.429  -0.765  -2.139  1.00  0.00     0.166 A 
ATOM     11  C   UNL     1       8.717  -0.347  -1.888  1.00  0.00     0.165 A 
ATOM     12  O   UNL     1       7.499  -1.879  -2.949  1.00  0.00    -0.454 OA
ATOM     13  O   UNL     1       9.559  -1.222  -2.555  1.00  0.00    -0.454 OA
ATOM     14  C   UNL     1       8.833  -2.261  -3.166  1.00  0.00     0.468 C 
ENDBRANCH   5   6
ENDBRANCH   1   5
TORSDOF 3
ENDMDL
MODEL 2
REMARK VINA RESULT:      -7.4      1.949      2.408
REMARK SMILES CC(=O)CCc1ccc2c(c1)OCO2
REMARK SMILES IDX 4 1 2 2 1 3 3 4 5 5 6 6 7 7 11 8 8 9 10 10 9 11 12 12 14 13
REMARK SMILES IDX 13 14
REMARK H PARENT
REMARK Flexibility Score: inf
ROOT
ATOM      1  C   UNL     1       5.713   1.301  -0.314  1.00  0.00     0.080 C 
ENDROOT
BRANCH   1   2
ATOM      2  C   UNL     1       5.055   1.242   1.021  1.00  0.00     0.130 C 
ATOM      3  C   UNL     1       5.243   0.082   1.933  1.00  0.00     0.087 C 
ATOM      4  O   UNL     1       4.337   2.150   1.406  1.00  0.00    -0.300 OA
ENDBRANCH   1   2
BRANCH   1   5
ATOM      5  C   UNL     1       7.205   1.055  -0.204  1.00  0.00     0.043 C 
BRANCH   5   6
ATOM      6  C   UNL     1       7.595  -0.224  -0.825  1.00  0.00    -0.044 A 
ATOM      7  C   UNL     1       7.684  -0.367  -2.214  1.00  0.00     0.008 A 
ATOM      8  C   UNL     1       7.884  -1.309  -0.028  1.00  0.00     0.054 A 
ATOM      9  C   UNL     1       8.056  -1.591  -2.740  1.00  0.00     0.051 A 
ATOM     10  C   UNL     1       8.260  -2.544  -0.565  1.00  0.00     0.166 A 
ATOM     11  C   UNL     1       8.347  -2.686  -1.932  1.00  0.00     0.165 A 
ATOM     12  O   UNL     1       8.592  -3.754   0.005  1.00  0.00    -0.454 OA
ATOM     13  O   UNL     1       8.735  -3.994  -2.176  1.00  0.00    -0.454 OA
ATOM     14  C   UNL     1       8.989  -4.681  -0.973  1.00  0.00     0.468 C 
ENDBRANCH   5   6
ENDBRANCH   1   5
TORSDOF 3
ENDMDL
MODEL 3
REMARK VINA RESULT:      -7.3      2.069      2.630
REMARK SMILES CC(=O)CCc1ccc2c(c1)OCO2
REMARK SMILES IDX 4 1 2 2 1 3 3 4 5 5 6 6 7 7 11 8 8 9 10 10 9 11 12 12 14 13
REMARK SMILES IDX 13 14
REMARK H PARENT
REMARK Flexibility Score: inf
ROOT
ATOM      1  C   UNL     1       5.404  -0.068   1.999  1.00  0.00     0.080 C 
ENDROOT
BRANCH   1   2
ATOM      2  C   UNL     1       4.536   1.117   1.755  1.00  0.00     0.130 C 
ATOM      3  C   UNL     1       4.845   2.104   0.686  1.00  0.00     0.087 C 
ATOM      4  O   UNL     1       3.540   1.315   2.432  1.00  0.00    -0.300 OA
ENDBRANCH   1   2
BRANCH   1   5
ATOM      5  C   UNL     1       6.833   0.197   1.569  1.00  0.00     0.043 C 
BRANCH   5   6
ATOM      6  C   UNL     1       7.267  -0.733   0.511  1.00  0.00    -0.044 A 
ATOM      7  C   UNL     1       7.147  -0.408  -0.845  1.00  0.00     0.008 A 
ATOM      8  C   UNL     1       7.807  -1.951   0.854  1.00  0.00     0.054 A 
ATOM      9  C   UNL     1       7.572  -1.320  -1.793  1.00  0.00     0.051 A 
ATOM     10  C   UNL     1       8.236  -2.870  -0.109  1.00  0.00     0.166 A 
ATOM     11  C   UNL     1       8.117  -2.551  -1.444  1.00  0.00     0.165 A 
ATOM     12  O   UNL     1       8.797  -4.126  -0.025  1.00  0.00    -0.454 OA
ATOM     13  O   UNL     1       8.613  -3.630  -2.159  1.00  0.00    -0.454 OA
ATOM     14  C   UNL     1       9.138  -4.612  -1.298  1.00  0.00     0.468 C 
ENDBRANCH   5   6
ENDBRANCH   1   5
TORSDOF 3
ENDMDL
MODEL 4
REMARK VINA RESULT:      -7.0      1.252      1.443
REMARK SMILES CC(=O)CCc1ccc2c(c1)OCO2
REMARK SMILES IDX 4 1 2 2 1 3 3 4 5 5 6 6 7 7 11 8 8 9 10 10 9 11 12 12 14 13
REMARK SMILES IDX 13 14
REMARK H PARENT
REMARK Flexibility Score: inf
ROOT
ATOM      1  C   UNL     1       6.312   1.240   0.908  1.00  0.00     0.080 C 
ENDROOT
BRANCH   1   2
ATOM      2  C   UNL     1       5.651   0.392   1.940  1.00  0.00     0.130 C 
ATOM      3  C   UNL     1       6.317  -0.812   2.504  1.00  0.00     0.087 C 
ATOM      4  O   UNL     1       4.536   0.665   2.354  1.00  0.00    -0.300 OA
ENDBRANCH   1   2
BRANCH   1   5
ATOM      5  C   UNL     1       5.800   0.914  -0.481  1.00  0.00     0.043 C 
BRANCH   5   6
ATOM      6  C   UNL     1       6.773   0.116  -1.248  1.00  0.00    -0.044 A 
ATOM      7  C   UNL     1       7.488   0.663  -2.320  1.00  0.00     0.008 A 
ATOM      8  C   UNL     1       6.993  -1.200  -0.910  1.00  0.00     0.054 A 
ATOM      9  C   UNL     1       8.389  -0.134  -3.003  1.00  0.00     0.051 A 
ATOM     10  C   UNL     1       7.905  -2.002  -1.604  1.00  0.00     0.166 A 
ATOM     11  C   UNL     1       8.608  -1.464  -2.659  1.00  0.00     0.165 A 
ATOM     12  O   UNL     1       8.296  -3.317  -1.464  1.00  0.00    -0.454 OA
ATOM     13  O   UNL     1       9.425  -2.470  -3.150  1.00  0.00    -0.454 OA
ATOM     14  C   UNL     1       9.326  -3.635  -2.365  1.00  0.00     0.468 C 
ENDBRANCH   5   6
ENDBRANCH   1   5
TORSDOF 3
ENDMDL
MODEL 5
REMARK VINA RESULT:      -6.9      1.255      1.744
REMARK SMILES CC(=O)CCc1ccc2c(c1)OCO2
REMARK SMILES IDX 4 1 2 2 1 3 3 4 5 5 6 6 7 7 11 8 8 9 10 10 9 11 12 12 14 13
REMARK SMILES IDX 13 14
REMARK H PARENT
REMARK Flexibility Score: inf
ROOT
ATOM      1  C   UNL     1       5.269  -0.103   1.929  1.00  0.00     0.080 C 
ENDROOT
BRANCH   1   2
ATOM      2  C   UNL     1       4.390   1.087   1.764  1.00  0.00     0.130 C 
ATOM      3  C   UNL     1       4.643   2.106   0.710  1.00  0.00     0.087 C 
ATOM      4  O   UNL     1       3.429   1.263   2.496  1.00  0.00    -0.300 OA
ENDBRANCH   1   2
BRANCH   1   5
ATOM      5  C   UNL     1       6.734   0.286   1.897  1.00  0.00     0.043 C 
BRANCH   5   6
ATOM      6  C   UNL     1       7.362  -0.054   0.608  1.00  0.00    -0.044 A 
ATOM      7  C   UNL     1       7.883   0.933  -0.236  1.00  0.00     0.008 A 
ATOM      8  C   UNL     1       7.445  -1.371   0.216  1.00  0.00     0.054 A 
ATOM      9  C   UNL     1       8.462   0.554  -1.434  1.00  0.00     0.051 A 
ATOM     10  C   UNL     1       8.031  -1.749  -0.995  1.00  0.00     0.166 A 
ATOM     11  C   UNL     1       8.544  -0.779  -1.827  1.00  0.00     0.165 A 
ATOM     12  O   UNL     1       8.232  -2.971  -1.601  1.00  0.00    -0.454 OA
ATOM     13  O   UNL     1       9.054  -1.432  -2.938  1.00  0.00    -0.454 OA
ATOM     14  C   UNL     1       8.959  -2.829  -2.795  1.00  0.00     0.468 C 
ENDBRANCH   5   6
ENDBRANCH   1   5
TORSDOF 3
ENDMDL
