@<TRIPOS>MOLECULE
/home/cewinharhar/GITHUB/reincatalyze/data/processed/docking_pred/2023-May-25-1902_sub9_nm5_bs15_s42_ex16_mel10_mts10000_k50_ec01_g099_lra3e-4_lrc3e-3/57f45ec83c8c38489066d898ddae0638f0802b8b_ligand_9.pdbqt
 14 15 0 0 0
SMALL
GASTEIGER

@<TRIPOS>ATOM
      1  C          5.7130    1.3010   -0.3140 C.3     1  UNL1        0.0800
      2  C          5.0550    1.2420    1.0210 C.2     1  UNL1        0.1300
      3  C          5.2430    0.0820    1.9330 C.3     1  UNL1        0.0870
      4  O          4.3370    2.1500    1.4060 O.2     1  UNL1       -0.3000
      5  C          7.2050    1.0550   -0.2040 C.3     1  UNL1        0.0430
      6  C          7.5950   -0.2240   -0.8250 C.2     1  UNL1       -0.0440
      7  C          7.6840   -0.3670   -2.2140 C.2     1  UNL1        0.0080
      8  C          7.8840   -1.3090   -0.0280 C.2     1  UNL1        0.0540
      9  C          8.0560   -1.5910   -2.7400 C.2     1  UNL1        0.0510
     10  C          8.2600   -2.5440   -0.5650 C.2     1  UNL1        0.1660
     11  C          8.3470   -2.6860   -1.9320 C.2     1  UNL1        0.1650
     12  O          8.5920   -3.7540    0.0050 O.2     1  UNL1       -0.4540
     13  O          8.7350   -3.9940   -2.1760 O.2     1  UNL1       -0.4540
     14  C          8.9890   -4.6810   -0.9730 C.3     1  UNL1        0.4680
@<TRIPOS>BOND
     1     9     7    1
     2     9    11    2
     3     7     6    2
     4    13    11    1
     5    13    14    1
     6    11    10    1
     7    14    12    1
     8     6     5    1
     9     6     8    1
    10    10     8    2
    11    10    12    1
    12     1     5    1
    13     1     2    1
    14     2     4    2
    15     2     3    1
