@<TRIPOS>MOLECULE
/home/cewinharhar/GITHUB/reincatalyze/data/processed/docking_pred/2023-May-25-1902_sub9_nm5_bs15_s42_ex16_mel10_mts10000_k50_ec01_g099_lra3e-4_lrc3e-3/57f45ec83c8c38489066d898ddae0638f0802b8b_ligand_9.pdbqt
 14 15 0 0 0
SMALL
GASTEIGER

@<TRIPOS>ATOM
      1  C          6.3120    1.2400    0.9080 C.3     1  UNL1        0.0800
      2  C          5.6510    0.3920    1.9400 C.2     1  UNL1        0.1300
      3  C          6.3170   -0.8120    2.5040 C.3     1  UNL1        0.0870
      4  O          4.5360    0.6650    2.3540 O.2     1  UNL1       -0.3000
      5  C          5.8000    0.9140   -0.4810 C.3     1  UNL1        0.0430
      6  C          6.7730    0.1160   -1.2480 C.2     1  UNL1       -0.0440
      7  C          7.4880    0.6630   -2.3200 C.2     1  UNL1        0.0080
      8  C          6.9930   -1.2000   -0.9100 C.2     1  UNL1        0.0540
      9  C          8.3890   -0.1340   -3.0030 C.2     1  UNL1        0.0510
     10  C          7.9050   -2.0020   -1.6040 C.2     1  UNL1        0.1660
     11  C          8.6080   -1.4640   -2.6590 C.2     1  UNL1        0.1650
     12  O          8.2960   -3.3170   -1.4640 O.2     1  UNL1       -0.4540
     13  O          9.4250   -2.4700   -3.1500 O.2     1  UNL1       -0.4540
     14  C          9.3260   -3.6350   -2.3650 C.3     1  UNL1        0.4680
@<TRIPOS>BOND
     1    13    11    1
     2    13    14    1
     3     9    11    2
     4     9     7    1
     5    11    10    1
     6    14    12    1
     7     7     6    2
     8    10    12    1
     9    10     8    2
    10     6     8    1
    11     6     5    1
    12     5     1    1
    13     1     2    1
    14     2     4    2
    15     2     3    1
