@<TRIPOS>MOLECULE
/home/cewinharhar/GITHUB/reincatalyze/data/processed/docking_pred/2023-May-25-1902_sub9_nm5_bs15_s42_ex16_mel10_mts10000_k50_ec01_g099_lra3e-4_lrc3e-3/5b75af577ef835ce00aa8d26c7a8e436914f1267_ligand_9.pdbqt
 14 15 0 0 0
SMALL
GASTEIGER

@<TRIPOS>ATOM
      1  C          5.5770    1.8600    1.2920 C.3     1  UNL1        0.0800
      2  C          5.1140    0.6450    2.0190 C.2     1  UNL1        0.1300
      3  C          5.9900   -0.5450    2.1890 C.3     1  UNL1        0.0870
      4  O          3.9930    0.5910    2.4980 O.2     1  UNL1       -0.3000
      5  C          5.4380    1.6900   -0.2080 C.3     1  UNL1        0.0430
      6  C          6.6010    0.9970   -0.7900 C.2     1  UNL1       -0.0440
      7  C          7.9080    1.4450   -0.5670 C.2     1  UNL1        0.0080
      8  C          6.4090   -0.1200   -1.5700 C.2     1  UNL1        0.0540
      9  C          8.9610    0.7540   -1.1380 C.2     1  UNL1        0.0510
     10  C          7.4770   -0.8160   -2.1450 C.2     1  UNL1        0.1660
     11  C          8.7630   -0.3750   -1.9280 C.2     1  UNL1        0.1650
     12  O          7.5460   -1.9350   -2.9470 O.2     1  UNL1       -0.4540
     13  O          9.6040   -1.2430   -2.6070 O.2     1  UNL1       -0.4540
     14  C          8.8810   -2.2990   -3.1920 C.3     1  UNL1        0.4680
@<TRIPOS>BOND
     1    14    12    1
     2    14    13    1
     3    12    10    1
     4    13    11    1
     5    10    11    2
     6    10     8    1
     7    11     9    1
     8     8     6    2
     9     9     7    2
    10     6     7    1
    11     6     5    1
    12     5     1    1
    13     1     2    1
    14     2     3    1
    15     2     4    2
