@<TRIPOS>MOLECULE
/home/cewinharhar/GITHUB/reincatalyze/data/processed/docking_pred/2023-May-25-1902_sub9_nm5_bs15_s42_ex16_mel10_mts10000_k50_ec01_g099_lra3e-4_lrc3e-3/5b75af577ef835ce00aa8d26c7a8e436914f1267_ligand_9.pdbqt
 14 15 0 0 0
SMALL
GASTEIGER

@<TRIPOS>ATOM
      1  C          6.3980    1.1730    0.9520 C.3     1  UNL1        0.0800
      2  C          5.6570    0.3490    1.9480 C.2     1  UNL1        0.1300
      3  C          6.2440   -0.8870    2.5310 C.3     1  UNL1        0.0870
      4  O          4.5380    0.6680    2.3160 O.2     1  UNL1       -0.3000
      5  C          5.8950    0.9190   -0.4550 C.3     1  UNL1        0.0430
      6  C          6.8400    0.0980   -1.2330 C.2     1  UNL1       -0.0440
      7  C          7.5220    0.6160   -2.3400 C.2     1  UNL1        0.0080
      8  C          7.0670   -1.2100   -0.8700 C.2     1  UNL1        0.0540
      9  C          8.3980   -0.2010   -3.0320 C.2     1  UNL1        0.0510
     10  C          7.9540   -2.0320   -1.5730 C.2     1  UNL1        0.1660
     11  C          8.6240   -1.5230   -2.6620 C.2     1  UNL1        0.1650
     12  O          8.3440   -3.3450   -1.4140 O.2     1  UNL1       -0.4540
     13  O          9.4220   -2.5440   -3.1550 O.2     1  UNL1       -0.4540
     14  C          9.3440   -3.6890   -2.3390 C.3     1  UNL1        0.4680
@<TRIPOS>BOND
     1    13    11    1
     2    13    14    1
     3     9    11    2
     4     9     7    1
     5    11    10    1
     6     7     6    2
     7    14    12    1
     8    10    12    1
     9    10     8    2
    10     6     8    1
    11     6     5    1
    12     5     1    1
    13     1     2    1
    14     2     4    2
    15     2     3    1
