MODEL 1
REMARK VINA RESULT:      -7.6      0.000      0.000
REMARK SMILES CC(=O)CCc1ccc2c(c1)OCO2
REMARK SMILES IDX 4 1 2 2 1 3 3 4 5 5 6 6 7 7 11 8 8 9 10 10 9 11 12 12 14 13
REMARK SMILES IDX 13 14
REMARK H PARENT
REMARK Flexibility Score: inf
ROOT
ATOM      1  C   UNL     1       5.577   1.860   1.292  1.00  0.00     0.080 C 
ENDROOT
BRANCH   1   2
ATOM      2  C   UNL     1       5.114   0.645   2.019  1.00  0.00     0.130 C 
ATOM      3  C   UNL     1       5.990  -0.545   2.189  1.00  0.00     0.087 C 
ATOM      4  O   UNL     1       3.993   0.591   2.498  1.00  0.00    -0.300 OA
ENDBRANCH   1   2
BRANCH   1   5
ATOM      5  C   UNL     1       5.438   1.690  -0.208  1.00  0.00     0.043 C 
BRANCH   5   6
ATOM      6  C   UNL     1       6.601   0.997  -0.790  1.00  0.00    -0.044 A 
ATOM      7  C   UNL     1       7.908   1.445  -0.567  1.00  0.00     0.008 A 
ATOM      8  C   UNL     1       6.409  -0.120  -1.570  1.00  0.00     0.054 A 
ATOM      9  C   UNL     1       8.961   0.754  -1.138  1.00  0.00     0.051 A 
ATOM     10  C   UNL     1       7.477  -0.816  -2.145  1.00  0.00     0.166 A 
ATOM     11  C   UNL     1       8.763  -0.375  -1.928  1.00  0.00     0.165 A 
ATOM     12  O   UNL     1       7.546  -1.935  -2.947  1.00  0.00    -0.454 OA
ATOM     13  O   UNL     1       9.604  -1.243  -2.607  1.00  0.00    -0.454 OA
ATOM     14  C   UNL     1       8.881  -2.299  -3.192  1.00  0.00     0.468 C 
ENDBRANCH   5   6
ENDBRANCH   1   5
TORSDOF 3
ENDMDL
MODEL 2
REMARK VINA RESULT:      -7.4      1.898      2.379
REMARK SMILES CC(=O)CCc1ccc2c(c1)OCO2
REMARK SMILES IDX 4 1 2 2 1 3 3 4 5 5 6 6 7 7 11 8 8 9 10 10 9 11 12 12 14 13
REMARK SMILES IDX 13 14
REMARK H PARENT
REMARK Flexibility Score: inf
ROOT
ATOM      1  C   UNL     1       5.797   1.378  -0.287  1.00  0.00     0.080 C 
ENDROOT
BRANCH   1   2
ATOM      2  C   UNL     1       5.179   1.256   1.063  1.00  0.00     0.130 C 
ATOM      3  C   UNL     1       5.384   0.051   1.910  1.00  0.00     0.087 C 
ATOM      4  O   UNL     1       4.482   2.150   1.515  1.00  0.00    -0.300 OA
ENDBRANCH   1   2
BRANCH   1   5
ATOM      5  C   UNL     1       7.286   1.097  -0.239  1.00  0.00     0.043 C 
BRANCH   5   6
ATOM      6  C   UNL     1       7.619  -0.195  -0.866  1.00  0.00    -0.044 A 
ATOM      7  C   UNL     1       7.627  -0.355  -2.256  1.00  0.00     0.008 A 
ATOM      8  C   UNL     1       7.934  -1.276  -0.074  1.00  0.00     0.054 A 
ATOM      9  C   UNL     1       7.948  -1.590  -2.788  1.00  0.00     0.051 A 
ATOM     10  C   UNL     1       8.259  -2.523  -0.617  1.00  0.00     0.166 A 
ATOM     11  C   UNL     1       8.266  -2.681  -1.985  1.00  0.00     0.165 A 
ATOM     12  O   UNL     1       8.603  -3.733  -0.052  1.00  0.00    -0.454 OA
ATOM     13  O   UNL     1       8.618  -3.999  -2.234  1.00  0.00    -0.454 OA
ATOM     14  C   UNL     1       8.929  -4.676  -1.040  1.00  0.00     0.468 C 
ENDBRANCH   5   6
ENDBRANCH   1   5
TORSDOF 3
ENDMDL
MODEL 3
REMARK VINA RESULT:      -7.3      2.044      2.605
REMARK SMILES CC(=O)CCc1ccc2c(c1)OCO2
REMARK SMILES IDX 4 1 2 2 1 3 3 4 5 5 6 6 7 7 11 8 8 9 10 10 9 11 12 12 14 13
REMARK SMILES IDX 13 14
REMARK H PARENT
REMARK Flexibility Score: inf
ROOT
ATOM      1  C   UNL     1       5.437  -0.036   2.013  1.00  0.00     0.080 C 
ENDROOT
BRANCH   1   2
ATOM      2  C   UNL     1       4.573   1.153   1.768  1.00  0.00     0.130 C 
ATOM      3  C   UNL     1       4.890   2.143   0.704  1.00  0.00     0.087 C 
ATOM      4  O   UNL     1       3.573   1.351   2.440  1.00  0.00    -0.300 OA
ENDBRANCH   1   2
BRANCH   1   5
ATOM      5  C   UNL     1       6.865   0.222   1.575  1.00  0.00     0.043 C 
BRANCH   5   6
ATOM      6  C   UNL     1       7.288  -0.710   0.514  1.00  0.00    -0.044 A 
ATOM      7  C   UNL     1       7.160  -0.385  -0.841  1.00  0.00     0.008 A 
ATOM      8  C   UNL     1       7.825  -1.931   0.854  1.00  0.00     0.054 A 
ATOM      9  C   UNL     1       7.575  -1.299  -1.792  1.00  0.00     0.051 A 
ATOM     10  C   UNL     1       8.244  -2.851  -0.112  1.00  0.00     0.166 A 
ATOM     11  C   UNL     1       8.117  -2.533  -1.446  1.00  0.00     0.165 A 
ATOM     12  O   UNL     1       8.800  -4.110  -0.031  1.00  0.00    -0.454 OA
ATOM     13  O   UNL     1       8.604  -3.613  -2.164  1.00  0.00    -0.454 OA
ATOM     14  C   UNL     1       9.131  -4.598  -1.306  1.00  0.00     0.468 C 
ENDBRANCH   5   6
ENDBRANCH   1   5
TORSDOF 3
ENDMDL
MODEL 4
REMARK VINA RESULT:      -7.1      1.240      1.437
REMARK SMILES CC(=O)CCc1ccc2c(c1)OCO2
REMARK SMILES IDX 4 1 2 2 1 3 3 4 5 5 6 6 7 7 11 8 8 9 10 10 9 11 12 12 14 13
REMARK SMILES IDX 13 14
REMARK H PARENT
REMARK Flexibility Score: inf
ROOT
ATOM      1  C   UNL     1       6.398   1.173   0.952  1.00  0.00     0.080 C 
ENDROOT
BRANCH   1   2
ATOM      2  C   UNL     1       5.657   0.349   1.948  1.00  0.00     0.130 C 
ATOM      3  C   UNL     1       6.244  -0.887   2.531  1.00  0.00     0.087 C 
ATOM      4  O   UNL     1       4.538   0.668   2.316  1.00  0.00    -0.300 OA
ENDBRANCH   1   2
BRANCH   1   5
ATOM      5  C   UNL     1       5.895   0.919  -0.455  1.00  0.00     0.043 C 
BRANCH   5   6
ATOM      6  C   UNL     1       6.840   0.098  -1.233  1.00  0.00    -0.044 A 
ATOM      7  C   UNL     1       7.522   0.616  -2.340  1.00  0.00     0.008 A 
ATOM      8  C   UNL     1       7.067  -1.210  -0.870  1.00  0.00     0.054 A 
ATOM      9  C   UNL     1       8.398  -0.201  -3.032  1.00  0.00     0.051 A 
ATOM     10  C   UNL     1       7.954  -2.032  -1.573  1.00  0.00     0.166 A 
ATOM     11  C   UNL     1       8.624  -1.523  -2.662  1.00  0.00     0.165 A 
ATOM     12  O   UNL     1       8.344  -3.345  -1.414  1.00  0.00    -0.454 OA
ATOM     13  O   UNL     1       9.422  -2.544  -3.155  1.00  0.00    -0.454 OA
ATOM     14  C   UNL     1       9.344  -3.689  -2.339  1.00  0.00     0.468 C 
ENDBRANCH   5   6
ENDBRANCH   1   5
TORSDOF 3
ENDMDL
MODEL 5
REMARK VINA RESULT:      -6.9      1.913      2.507
REMARK SMILES CC(=O)CCc1ccc2c(c1)OCO2
REMARK SMILES IDX 4 1 2 2 1 3 3 4 5 5 6 6 7 7 11 8 8 9 10 10 9 11 12 12 14 13
REMARK SMILES IDX 13 14
REMARK H PARENT
REMARK Flexibility Score: inf
ROOT
ATOM      1  C   UNL     1       6.776   1.168   1.282  1.00  0.00     0.080 C 
ENDROOT
BRANCH   1   2
ATOM      2  C   UNL     1       5.347   1.522   1.053  1.00  0.00     0.130 C 
ATOM      3  C   UNL     1       4.892   2.150  -0.217  1.00  0.00     0.087 C 
ATOM      4  O   UNL     1       4.503   1.306   1.907  1.00  0.00    -0.300 OA
ENDBRANCH   1   2
BRANCH   1   5
ATOM      5  C   UNL     1       7.590   1.315   0.011  1.00  0.00     0.043 C 
BRANCH   5   6
ATOM      6  C   UNL     1       7.847   0.012  -0.627  1.00  0.00    -0.044 A 
ATOM      7  C   UNL     1       7.858  -0.133  -2.019  1.00  0.00     0.008 A 
ATOM      8  C   UNL     1       8.085  -1.096   0.155  1.00  0.00     0.054 A 
ATOM      9  C   UNL     1       8.106  -1.381  -2.562  1.00  0.00     0.051 A 
ATOM     10  C   UNL     1       8.336  -2.355  -0.399  1.00  0.00     0.166 A 
ATOM     11  C   UNL     1       8.346  -2.498  -1.769  1.00  0.00     0.165 A 
ATOM     12  O   UNL     1       8.596  -3.590   0.155  1.00  0.00    -0.454 OA
ATOM     13  O   UNL     1       8.617  -3.832  -2.030  1.00  0.00    -0.454 OA
ATOM     14  C   UNL     1       8.872  -4.541  -0.841  1.00  0.00     0.468 C 
ENDBRANCH   5   6
ENDBRANCH   1   5
TORSDOF 3
ENDMDL
