@<TRIPOS>MOLECULE
/home/cewinharhar/GITHUB/reincatalyze/data/processed/docking_pred/2023-May-25-1902_sub9_nm5_bs15_s42_ex16_mel10_mts10000_k50_ec01_g099_lra3e-4_lrc3e-3/5b75af577ef835ce00aa8d26c7a8e436914f1267_ligand_9.pdbqt
 14 15 0 0 0
SMALL
GASTEIGER

@<TRIPOS>ATOM
      1  C          5.7970    1.3780   -0.2870 C.3     1  UNL1        0.0800
      2  C          5.1790    1.2560    1.0630 C.2     1  UNL1        0.1300
      3  C          5.3840    0.0510    1.9100 C.3     1  UNL1        0.0870
      4  O          4.4820    2.1500    1.5150 O.2     1  UNL1       -0.3000
      5  C          7.2860    1.0970   -0.2390 C.3     1  UNL1        0.0430
      6  C          7.6190   -0.1950   -0.8660 C.2     1  UNL1       -0.0440
      7  C          7.6270   -0.3550   -2.2560 C.2     1  UNL1        0.0080
      8  C          7.9340   -1.2760   -0.0740 C.2     1  UNL1        0.0540
      9  C          7.9480   -1.5900   -2.7880 C.2     1  UNL1        0.0510
     10  C          8.2590   -2.5230   -0.6170 C.2     1  UNL1        0.1660
     11  C          8.2660   -2.6810   -1.9850 C.2     1  UNL1        0.1650
     12  O          8.6030   -3.7330   -0.0520 O.2     1  UNL1       -0.4540
     13  O          8.6180   -3.9990   -2.2340 O.2     1  UNL1       -0.4540
     14  C          8.9290   -4.6760   -1.0400 C.3     1  UNL1        0.4680
@<TRIPOS>BOND
     1     9     7    1
     2     9    11    2
     3     7     6    2
     4    13    11    1
     5    13    14    1
     6    11    10    1
     7    14    12    1
     8     6     5    1
     9     6     8    1
    10    10     8    2
    11    10    12    1
    12     1     5    1
    13     1     2    1
    14     2     4    2
    15     2     3    1
