@<TRIPOS>MOLECULE
/home/cewinharhar/GITHUB/reincatalyze/data/processed/docking_pred/2023-May-25-1902_sub9_nm5_bs15_s42_ex16_mel10_mts10000_k50_ec01_g099_lra3e-4_lrc3e-3/5ba5439e64352188cd964ddb86dd28d806e95272_ligand_9.pdbqt
 14 15 0 0 0
SMALL
GASTEIGER

@<TRIPOS>ATOM
      1  C          5.5300    1.9400    1.2520 C.3     1  UNL1        0.0800
      2  C          5.1140    0.7210    2.0000 C.2     1  UNL1        0.1300
      3  C          6.0340   -0.4330    2.1860 C.3     1  UNL1        0.0870
      4  O          3.9970    0.6330    2.4850 O.2     1  UNL1       -0.3000
      5  C          5.4030    1.7380   -0.2450 C.3     1  UNL1        0.0430
      6  C          6.5690    1.0290   -0.8010 C.2     1  UNL1       -0.0440
      7  C          7.8770    1.4510   -0.5380 C.2     1  UNL1        0.0080
      8  C          6.3790   -0.0770   -1.5980 C.2     1  UNL1        0.0540
      9  C          8.9330    0.7460   -1.0870 C.2     1  UNL1        0.0510
     10  C          7.4490   -0.7870   -2.1500 C.2     1  UNL1        0.1660
     11  C          8.7370   -0.3720   -1.8920 C.2     1  UNL1        0.1650
     12  O          7.5210   -1.9000   -2.9610 O.2     1  UNL1       -0.4540
     13  O          9.5810   -1.2480   -2.5570 O.2     1  UNL1       -0.4540
     14  C          8.8550   -2.2850   -3.1720 C.3     1  UNL1        0.4680
@<TRIPOS>BOND
     1    14    12    1
     2    14    13    1
     3    12    10    1
     4    13    11    1
     5    10    11    2
     6    10     8    1
     7    11     9    1
     8     8     6    2
     9     9     7    2
    10     6     7    1
    11     6     5    1
    12     5     1    1
    13     1     2    1
    14     2     3    1
    15     2     4    2
