@<TRIPOS>MOLECULE
/home/cewinharhar/GITHUB/reincatalyze/data/processed/docking_pred/2023-May-25-1902_sub9_nm5_bs15_s42_ex16_mel10_mts10000_k50_ec01_g099_lra3e-4_lrc3e-3/5ba5439e64352188cd964ddb86dd28d806e95272_ligand_9.pdbqt
 14 15 0 0 0
SMALL
GASTEIGER

@<TRIPOS>ATOM
      1  C          6.3760    1.2050    0.9100 C.3     1  UNL1        0.0800
      2  C          5.6810    0.3820    1.9390 C.2     1  UNL1        0.1300
      3  C          6.2940   -0.8540    2.4950 C.3     1  UNL1        0.0870
      4  O          4.5800    0.7010    2.3570 O.2     1  UNL1       -0.3000
      5  C          5.8630    0.8950   -0.4820 C.3     1  UNL1        0.0430
      6  C          6.8240    0.0850   -1.2520 C.2     1  UNL1       -0.0440
      7  C          7.5360    0.6220   -2.3310 C.2     1  UNL1        0.0080
      8  C          7.0370   -1.2310   -0.9090 C.2     1  UNL1        0.0540
      9  C          8.4260   -0.1860   -3.0150 C.2     1  UNL1        0.0510
     10  C          7.9380   -2.0430   -1.6040 C.2     1  UNL1        0.1660
     11  C          8.6380   -1.5160   -2.6660 C.2     1  UNL1        0.1650
     12  O          8.3200   -3.3600   -1.4600 O.2     1  UNL1       -0.4540
     13  O          9.4440   -2.5300   -3.1570 O.2     1  UNL1       -0.4540
     14  C          9.3410   -3.6900   -2.3660 C.3     1  UNL1        0.4680
@<TRIPOS>BOND
     1    13    11    1
     2    13    14    1
     3     9    11    2
     4     9     7    1
     5    11    10    1
     6    14    12    1
     7     7     6    2
     8    10    12    1
     9    10     8    2
    10     6     8    1
    11     6     5    1
    12     5     1    1
    13     1     2    1
    14     2     4    2
    15     2     3    1
