@<TRIPOS>MOLECULE
/home/cewinharhar/GITHUB/reincatalyze/data/processed/docking_pred/2023-May-25-1902_sub9_nm5_bs15_s42_ex16_mel10_mts10000_k50_ec01_g099_lra3e-4_lrc3e-3/5ba5439e64352188cd964ddb86dd28d806e95272_ligand_9.pdbqt
 14 15 0 0 0
SMALL
GASTEIGER

@<TRIPOS>ATOM
      1  C          5.7330    1.2120   -0.2680 C.3     1  UNL1        0.0800
      2  C          5.1870    1.1790    1.1180 C.2     1  UNL1        0.1300
      3  C          5.3100   -0.0290    1.9770 C.3     1  UNL1        0.0870
      4  O          4.6200    2.1500    1.5910 O.2     1  UNL1       -0.3000
      5  C          7.2380    1.0340   -0.2720 C.3     1  UNL1        0.0430
      6  C          7.6340   -0.2530   -0.8700 C.2     1  UNL1       -0.0440
      7  C          7.7350   -0.4170   -2.2570 C.2     1  UNL1        0.0080
      8  C          7.9170   -1.3260   -0.0560 C.2     1  UNL1        0.0540
      9  C          8.1120   -1.6480   -2.7620 C.2     1  UNL1        0.0510
     10  C          8.2990   -2.5690   -0.5720 C.2     1  UNL1        0.1660
     11  C          8.3970   -2.7310   -1.9360 C.2     1  UNL1        0.1650
     12  O          8.6260   -3.7710    0.0190 O.2     1  UNL1       -0.4540
     13  O          8.7880   -4.0420   -2.1560 O.2     1  UNL1       -0.4540
     14  C          9.0320   -4.7110   -0.9420 C.3     1  UNL1        0.4680
@<TRIPOS>BOND
     1     9     7    1
     2     9    11    2
     3     7     6    2
     4    13    11    1
     5    13    14    1
     6    11    10    1
     7    14    12    1
     8     6     5    1
     9     6     8    1
    10    10     8    2
    11    10    12    1
    12     5     1    1
    13     1     2    1
    14     2     4    2
    15     2     3    1
