@<TRIPOS>MOLECULE
/home/cewinharhar/GITHUB/reincatalyze/data/processed/docking_pred/2023-May-25-1902_sub9_nm5_bs15_s42_ex16_mel10_mts10000_k50_ec01_g099_lra3e-4_lrc3e-3/5ba5439e64352188cd964ddb86dd28d806e95272_ligand_9.pdbqt
 14 15 0 0 0
SMALL
GASTEIGER

@<TRIPOS>ATOM
      1  C          5.3380   -0.0530    1.9820 C.3     1  UNL1        0.0800
      2  C          4.4420    1.1200    1.7850 C.2     1  UNL1        0.1300
      3  C          4.7200    2.1500    0.7480 C.3     1  UNL1        0.0870
      4  O          3.4460    1.2710    2.4740 O.2     1  UNL1       -0.3000
      5  C          6.7970    0.3490    1.8960 C.3     1  UNL1        0.0430
      6  C          7.3920   -0.0250    0.6010 C.2     1  UNL1       -0.0440
      7  C          7.8710    0.9400   -0.2920 C.2     1  UNL1        0.0080
      8  C          7.4850   -1.3530    0.2510 C.2     1  UNL1        0.0540
      9  C          8.4190    0.5290   -1.4940 C.2     1  UNL1        0.0510
     10  C          8.0400   -1.7630   -0.9640 C.2     1  UNL1        0.1660
     11  C          8.5110   -0.8140   -1.8440 C.2     1  UNL1        0.1650
     12  O          8.2430   -3.0020   -1.5350 O.2     1  UNL1       -0.4540
     13  O          8.9990   -1.4970   -2.9470 O.2     1  UNL1       -0.4540
     14  C          8.9310   -2.8900   -2.7540 C.3     1  UNL1        0.4680
@<TRIPOS>BOND
     1    13    14    1
     2    13    11    1
     3    14    12    1
     4    11     9    2
     5    11    10    1
     6    12    10    1
     7     9     7    1
     8    10     8    2
     9     7     6    2
    10     8     6    1
    11     6     5    1
    12     3     2    1
    13     2     1    1
    14     2     4    2
    15     5     1    1
