@<TRIPOS>MOLECULE
/home/cewinharhar/GITHUB/reincatalyze/data/processed/docking_pred/2023-May-25-1902_sub9_nm5_bs15_s42_ex16_mel10_mts10000_k50_ec01_g099_lra3e-4_lrc3e-3/5e677739909452415bd62a3bb65a8cc9d063ea2f_ligand_9.pdbqt
 14 15 0 0 0
SMALL
GASTEIGER

@<TRIPOS>ATOM
      1  C          5.4590   -0.0410    2.0060 C.3     1  UNL1        0.0800
      2  C          4.5950    1.1400    1.7280 C.2     1  UNL1        0.1300
      3  C          4.8970    2.0840    0.6180 C.3     1  UNL1        0.0870
      4  O          3.6080    1.3690    2.4080 O.2     1  UNL1       -0.3000
      5  C          6.8890    0.2080    1.5710 C.3     1  UNL1        0.0430
      6  C          7.3090   -0.7260    0.5120 C.2     1  UNL1       -0.0440
      7  C          7.1840   -0.4020   -0.8440 C.2     1  UNL1        0.0080
      8  C          7.8410   -1.9490    0.8520 C.2     1  UNL1        0.0540
      9  C          7.5960   -1.3190   -1.7940 C.2     1  UNL1        0.0510
     10  C          8.2560   -2.8730   -0.1120 C.2     1  UNL1        0.1660
     11  C          8.1320   -2.5540   -1.4460 C.2     1  UNL1        0.1650
     12  O          8.8060   -4.1340   -0.0300 O.2     1  UNL1       -0.4540
     13  O          8.6150   -3.6380   -2.1630 O.2     1  UNL1       -0.4540
     14  C          9.1360   -4.6240   -1.3040 C.3     1  UNL1        0.4680
@<TRIPOS>BOND
     1    13    11    1
     2    13    14    1
     3     9    11    2
     4     9     7    1
     5    11    10    1
     6    14    12    1
     7     7     6    2
     8    10    12    1
     9    10     8    2
    10     6     8    1
    11     6     5    1
    12     3     2    1
    13     5     1    1
    14     2     1    1
    15     2     4    2
