@<TRIPOS>MOLECULE
/home/cewinharhar/GITHUB/reincatalyze/data/processed/docking_pred/2023-May-25-1902_sub9_nm5_bs15_s42_ex16_mel10_mts10000_k50_ec01_g099_lra3e-4_lrc3e-3/5f00cdda1ab61f28c1ea6d7129614616e9231d70_ligand_9.pdbqt
 14 15 0 0 0
SMALL
GASTEIGER

@<TRIPOS>ATOM
      1  C          6.0960   -0.4140    2.2780 C.3     1  UNL1        0.0800
      2  C          5.0830    0.5980    1.8680 C.2     1  UNL1        0.1300
      3  C          5.2620    1.4340    0.6510 C.3     1  UNL1        0.0870
      4  O          4.0680    0.7700    2.5240 O.2     1  UNL1       -0.3000
      5  C          7.4490   -0.1210    1.6590 C.3     1  UNL1        0.0430
      6  C          7.7570   -1.0470    0.5550 C.2     1  UNL1       -0.0440
      7  C          7.6360   -0.6580   -0.7840 C.2     1  UNL1        0.0080
      8  C          8.1770   -2.3270    0.8360 C.2     1  UNL1        0.0540
      9  C          7.9400   -1.5710   -1.7780 C.2     1  UNL1        0.0510
     10  C          8.4840   -3.2460   -0.1720 C.2     1  UNL1        0.1660
     11  C          8.3630   -2.8640   -1.4900 C.2     1  UNL1        0.1650
     12  O          8.9140   -4.5560   -0.1510 O.2     1  UNL1       -0.4540
     13  O          8.7270   -3.9590   -2.2590 O.2     1  UNL1       -0.4540
     14  C          9.1700   -5.0230   -1.4510 C.3     1  UNL1        0.4680
@<TRIPOS>BOND
     1    13    11    1
     2    13    14    1
     3     9    11    2
     4     9     7    1
     5    11    10    1
     6    14    12    1
     7     7     6    2
     8    10    12    1
     9    10     8    2
    10     6     8    1
    11     6     5    1
    12     3     2    1
    13     5     1    1
    14     2     1    1
    15     2     4    2
