MODEL 1
REMARK VINA RESULT:      -7.3      0.000      0.000
REMARK SMILES CC(=O)CCc1ccc2c(c1)OCO2
REMARK SMILES IDX 4 1 2 2 1 3 3 4 5 5 6 6 7 7 11 8 8 9 10 10 9 11 12 12 14 13
REMARK SMILES IDX 13 14
REMARK H PARENT
REMARK Flexibility Score: inf
ROOT
ATOM      1  C   UNL     1       5.892   1.635   1.329  1.00  0.00     0.080 C 
ENDROOT
BRANCH   1   2
ATOM      2  C   UNL     1       5.362   0.450   2.059  1.00  0.00     0.130 C 
ATOM      3  C   UNL     1       6.188  -0.767   2.277  1.00  0.00     0.087 C 
ATOM      4  O   UNL     1       4.225   0.444   2.503  1.00  0.00    -0.300 OA
ENDBRANCH   1   2
BRANCH   1   5
ATOM      5  C   UNL     1       5.684   1.498  -0.166  1.00  0.00     0.043 C 
BRANCH   5   6
ATOM      6  C   UNL     1       6.806   0.793  -0.812  1.00  0.00    -0.044 A 
ATOM      7  C   UNL     1       8.109   1.303  -0.778  1.00  0.00     0.008 A 
ATOM      8  C   UNL     1       6.578  -0.397  -1.465  1.00  0.00     0.054 A 
ATOM      9  C   UNL     1       9.122   0.597  -1.401  1.00  0.00     0.051 A 
ATOM     10  C   UNL     1       7.606  -1.107  -2.093  1.00  0.00     0.166 A 
ATOM     11  C   UNL     1       8.888  -0.606  -2.061  1.00  0.00     0.165 A 
ATOM     12  O   UNL     1       7.635  -2.292  -2.797  1.00  0.00    -0.454 OA
ATOM     13  O   UNL     1       9.686  -1.504  -2.752  1.00  0.00    -0.454 OA
ATOM     14  C   UNL     1       8.949  -2.632  -3.157  1.00  0.00     0.468 C 
ENDBRANCH   5   6
ENDBRANCH   1   5
TORSDOF 3
ENDMDL
MODEL 2
REMARK VINA RESULT:      -7.2      1.131      1.169
REMARK SMILES CC(=O)CCc1ccc2c(c1)OCO2
REMARK SMILES IDX 4 1 2 2 1 3 3 4 5 5 6 6 7 7 11 8 8 9 10 10 9 11 12 12 14 13
REMARK SMILES IDX 13 14
REMARK H PARENT
REMARK Flexibility Score: inf
ROOT
ATOM      1  C   UNL     1       6.337   1.252   0.879  1.00  0.00     0.080 C 
ENDROOT
BRANCH   1   2
ATOM      2  C   UNL     1       5.658   0.425   1.915  1.00  0.00     0.130 C 
ATOM      3  C   UNL     1       6.293  -0.797   2.478  1.00  0.00     0.087 C 
ATOM      4  O   UNL     1       4.553   0.729   2.334  1.00  0.00    -0.300 OA
ENDBRANCH   1   2
BRANCH   1   5
ATOM      5  C   UNL     1       5.824   0.925  -0.509  1.00  0.00     0.043 C 
BRANCH   5   6
ATOM      6  C   UNL     1       6.788   0.112  -1.271  1.00  0.00    -0.044 A 
ATOM      7  C   UNL     1       7.497   0.641  -2.356  1.00  0.00     0.008 A 
ATOM      8  C   UNL     1       7.007  -1.199  -0.915  1.00  0.00     0.054 A 
ATOM      9  C   UNL     1       8.390  -0.170  -3.033  1.00  0.00     0.051 A 
ATOM     10  C   UNL     1       7.911  -2.014  -1.602  1.00  0.00     0.166 A 
ATOM     11  C   UNL     1       8.608  -1.495  -2.671  1.00  0.00     0.165 A 
ATOM     12  O   UNL     1       8.299  -3.328  -1.446  1.00  0.00    -0.454 OA
ATOM     13  O   UNL     1       9.419  -2.511  -3.152  1.00  0.00    -0.454 OA
ATOM     14  C   UNL     1       9.321  -3.663  -2.349  1.00  0.00     0.468 C 
ENDBRANCH   5   6
ENDBRANCH   1   5
TORSDOF 3
ENDMDL
MODEL 3
REMARK VINA RESULT:      -7.0      1.825      2.307
REMARK SMILES CC(=O)CCc1ccc2c(c1)OCO2
REMARK SMILES IDX 4 1 2 2 1 3 3 4 5 5 6 6 7 7 11 8 8 9 10 10 9 11 12 12 14 13
REMARK SMILES IDX 13 14
REMARK H PARENT
REMARK Flexibility Score: inf
ROOT
ATOM      1  C   UNL     1       5.943   1.127  -0.199  1.00  0.00     0.080 C 
ENDROOT
BRANCH   1   2
ATOM      2  C   UNL     1       5.908   1.140   1.290  1.00  0.00     0.130 C 
ATOM      3  C   UNL     1       5.375  -0.010   2.069  1.00  0.00     0.087 C 
ATOM      4  O   UNL     1       6.318   2.103   1.918  1.00  0.00    -0.300 OA
ENDBRANCH   1   2
BRANCH   1   5
ATOM      5  C   UNL     1       7.368   1.110  -0.716  1.00  0.00     0.043 C 
BRANCH   5   6
ATOM      6  C   UNL     1       7.758  -0.227  -1.200  1.00  0.00    -0.044 A 
ATOM      7  C   UNL     1       7.956  -0.484  -2.562  1.00  0.00     0.008 A 
ATOM      8  C   UNL     1       7.937  -1.253  -0.301  1.00  0.00     0.054 A 
ATOM      9  C   UNL     1       8.322  -1.758  -2.958  1.00  0.00     0.051 A 
ATOM     10  C   UNL     1       8.307  -2.539  -0.706  1.00  0.00     0.166 A 
ATOM     11  C   UNL     1       8.501  -2.793  -2.046  1.00  0.00     0.165 A 
ATOM     12  O   UNL     1       8.542  -3.710  -0.018  1.00  0.00    -0.454 OA
ATOM     13  O   UNL     1       8.856  -4.129  -2.153  1.00  0.00    -0.454 OA
ATOM     14  C   UNL     1       8.983  -4.724  -0.884  1.00  0.00     0.468 C 
ENDBRANCH   5   6
ENDBRANCH   1   5
TORSDOF 3
ENDMDL
MODEL 4
REMARK VINA RESULT:      -6.6      2.060      2.610
REMARK SMILES CC(=O)CCc1ccc2c(c1)OCO2
REMARK SMILES IDX 4 1 2 2 1 3 3 4 5 5 6 6 7 7 11 8 8 9 10 10 9 11 12 12 14 13
REMARK SMILES IDX 13 14
REMARK H PARENT
REMARK Flexibility Score: inf
ROOT
ATOM      1  C   UNL     1       6.178  -0.398   2.305  1.00  0.00     0.080 C 
ENDROOT
BRANCH   1   2
ATOM      2  C   UNL     1       5.129   0.560   1.858  1.00  0.00     0.130 C 
ATOM      3  C   UNL     1       5.299   1.390   0.635  1.00  0.00     0.087 C 
ATOM      4  O   UNL     1       4.092   0.693   2.488  1.00  0.00    -0.300 OA
ENDBRANCH   1   2
BRANCH   1   5
ATOM      5  C   UNL     1       7.512  -0.097   1.652  1.00  0.00     0.043 C 
BRANCH   5   6
ATOM      6  C   UNL     1       7.806  -1.033   0.553  1.00  0.00    -0.044 A 
ATOM      7  C   UNL     1       7.698  -0.647  -0.788  1.00  0.00     0.008 A 
ATOM      8  C   UNL     1       8.200  -2.320   0.840  1.00  0.00     0.054 A 
ATOM      9  C   UNL     1       7.988  -1.569  -1.777  1.00  0.00     0.051 A 
ATOM     10  C   UNL     1       8.493  -3.248  -0.164  1.00  0.00     0.166 A 
ATOM     11  C   UNL     1       8.385  -2.870  -1.483  1.00  0.00     0.165 A 
ATOM     12  O   UNL     1       8.897  -4.566  -0.136  1.00  0.00    -0.454 OA
ATOM     13  O   UNL     1       8.730  -3.974  -2.247  1.00  0.00    -0.454 OA
ATOM     14  C   UNL     1       9.149  -5.044  -1.433  1.00  0.00     0.468 C 
ENDBRANCH   5   6
ENDBRANCH   1   5
TORSDOF 3
ENDMDL
MODEL 5
REMARK VINA RESULT:      -6.2      1.293      5.147
REMARK SMILES CC(=O)CCc1ccc2c(c1)OCO2
REMARK SMILES IDX 4 1 2 2 1 3 3 4 5 5 6 6 7 7 11 8 8 9 10 10 9 11 12 12 14 13
REMARK SMILES IDX 13 14
REMARK H PARENT
REMARK Flexibility Score: inf
ROOT
ATOM      1  C   UNL     1       8.635   0.165  -2.932  1.00  0.00     0.080 C 
ENDROOT
BRANCH   1   2
ATOM      2  C   UNL     1       8.503  -1.318  -2.965  1.00  0.00     0.130 C 
ATOM      3  C   UNL     1       7.173  -1.983  -3.006  1.00  0.00     0.087 C 
ATOM      4  O   UNL     1       9.491  -2.035  -2.958  1.00  0.00    -0.300 OA
ENDBRANCH   1   2
BRANCH   1   5
ATOM      5  C   UNL     1       9.194   0.639  -1.605  1.00  0.00     0.043 C 
BRANCH   5   6
ATOM      6  C   UNL     1       8.293   0.313  -0.485  1.00  0.00    -0.044 A 
ATOM      7  C   UNL     1       8.643  -0.631   0.487  1.00  0.00     0.008 A 
ATOM      8  C   UNL     1       7.075   0.947  -0.382  1.00  0.00     0.054 A 
ATOM      9  C   UNL     1       7.758  -0.895   1.516  1.00  0.00     0.051 A 
ATOM     10  C   UNL     1       6.184   0.676   0.661  1.00  0.00     0.166 A 
ATOM     11  C   UNL     1       6.528  -0.253   1.617  1.00  0.00     0.165 A 
ATOM     12  O   UNL     1       4.934   1.165   0.979  1.00  0.00    -0.454 OA
ATOM     13  O   UNL     1       5.472  -0.315   2.513  1.00  0.00    -0.454 OA
ATOM     14  C   UNL     1       4.480   0.632   2.197  1.00  0.00     0.468 C 
ENDBRANCH   5   6
ENDBRANCH   1   5
TORSDOF 3
ENDMDL
