@<TRIPOS>MOLECULE
/home/cewinharhar/GITHUB/reincatalyze/data/processed/docking_pred/2023-May-25-1902_sub9_nm5_bs15_s42_ex16_mel10_mts10000_k50_ec01_g099_lra3e-4_lrc3e-3/5f7ce1df4e505eeb6c5bd28a98530cf3f623dbf2_ligand_9.pdbqt
 14 15 0 0 0
SMALL
GASTEIGER

@<TRIPOS>ATOM
      1  C          6.1780   -0.3980    2.3050 C.3     1  UNL1        0.0800
      2  C          5.1290    0.5600    1.8580 C.2     1  UNL1        0.1300
      3  C          5.2990    1.3900    0.6350 C.3     1  UNL1        0.0870
      4  O          4.0920    0.6930    2.4880 O.2     1  UNL1       -0.3000
      5  C          7.5120   -0.0970    1.6520 C.3     1  UNL1        0.0430
      6  C          7.8060   -1.0330    0.5530 C.2     1  UNL1       -0.0440
      7  C          7.6980   -0.6470   -0.7880 C.2     1  UNL1        0.0080
      8  C          8.2000   -2.3200    0.8400 C.2     1  UNL1        0.0540
      9  C          7.9880   -1.5690   -1.7770 C.2     1  UNL1        0.0510
     10  C          8.4930   -3.2480   -0.1640 C.2     1  UNL1        0.1660
     11  C          8.3850   -2.8700   -1.4830 C.2     1  UNL1        0.1650
     12  O          8.8970   -4.5660   -0.1360 O.2     1  UNL1       -0.4540
     13  O          8.7300   -3.9740   -2.2470 O.2     1  UNL1       -0.4540
     14  C          9.1490   -5.0440   -1.4330 C.3     1  UNL1        0.4680
@<TRIPOS>BOND
     1    13    11    1
     2    13    14    1
     3     9    11    2
     4     9     7    1
     5    11    10    1
     6    14    12    1
     7     7     6    2
     8    10    12    1
     9    10     8    2
    10     6     8    1
    11     6     5    1
    12     3     2    1
    13     5     1    1
    14     2     1    1
    15     2     4    2
