@<TRIPOS>MOLECULE
/home/cewinharhar/GITHUB/reincatalyze/data/processed/docking_pred/2023-May-25-1902_sub9_nm5_bs15_s42_ex16_mel10_mts10000_k50_ec01_g099_lra3e-4_lrc3e-3/5f7ce1df4e505eeb6c5bd28a98530cf3f623dbf2_ligand_9.pdbqt
 14 15 0 0 0
SMALL
GASTEIGER

@<TRIPOS>ATOM
      1  C          5.8920    1.6350    1.3290 C.3     1  UNL1        0.0800
      2  C          5.3620    0.4500    2.0590 C.2     1  UNL1        0.1300
      3  C          6.1880   -0.7670    2.2770 C.3     1  UNL1        0.0870
      4  O          4.2250    0.4440    2.5030 O.2     1  UNL1       -0.3000
      5  C          5.6840    1.4980   -0.1660 C.3     1  UNL1        0.0430
      6  C          6.8060    0.7930   -0.8120 C.2     1  UNL1       -0.0440
      7  C          8.1090    1.3030   -0.7780 C.2     1  UNL1        0.0080
      8  C          6.5780   -0.3970   -1.4650 C.2     1  UNL1        0.0540
      9  C          9.1220    0.5970   -1.4010 C.2     1  UNL1        0.0510
     10  C          7.6060   -1.1070   -2.0930 C.2     1  UNL1        0.1660
     11  C          8.8880   -0.6060   -2.0610 C.2     1  UNL1        0.1650
     12  O          7.6350   -2.2920   -2.7970 O.2     1  UNL1       -0.4540
     13  O          9.6860   -1.5040   -2.7520 O.2     1  UNL1       -0.4540
     14  C          8.9490   -2.6320   -3.1570 C.3     1  UNL1        0.4680
@<TRIPOS>BOND
     1    14    12    1
     2    14    13    1
     3    12    10    1
     4    13    11    1
     5    10    11    2
     6    10     8    1
     7    11     9    1
     8     8     6    2
     9     9     7    2
    10     6     7    1
    11     6     5    1
    12     5     1    1
    13     1     2    1
    14     2     3    1
    15     2     4    2
