@<TRIPOS>MOLECULE
/home/cewinharhar/GITHUB/reincatalyze/data/processed/docking_pred/2023-May-25-1902_sub9_nm5_bs15_s42_ex16_mel10_mts10000_k50_ec01_g099_lra3e-4_lrc3e-3/5f7ce1df4e505eeb6c5bd28a98530cf3f623dbf2_ligand_9.pdbqt
 14 15 0 0 0
SMALL
GASTEIGER

@<TRIPOS>ATOM
      1  C          8.6350    0.1650   -2.9320 C.3     1  UNL1        0.0800
      2  C          8.5030   -1.3180   -2.9650 C.2     1  UNL1        0.1300
      3  C          7.1730   -1.9830   -3.0060 C.3     1  UNL1        0.0870
      4  O          9.4910   -2.0350   -2.9580 O.2     1  UNL1       -0.3000
      5  C          9.1940    0.6390   -1.6050 C.3     1  UNL1        0.0430
      6  C          8.2930    0.3130   -0.4850 C.2     1  UNL1       -0.0440
      7  C          8.6430   -0.6310    0.4870 C.2     1  UNL1        0.0080
      8  C          7.0750    0.9470   -0.3820 C.2     1  UNL1        0.0540
      9  C          7.7580   -0.8950    1.5160 C.2     1  UNL1        0.0510
     10  C          6.1840    0.6760    0.6610 C.2     1  UNL1        0.1660
     11  C          6.5280   -0.2530    1.6170 C.2     1  UNL1        0.1650
     12  O          4.9340    1.1650    0.9790 O.2     1  UNL1       -0.4540
     13  O          5.4720   -0.3150    2.5130 O.2     1  UNL1       -0.4540
     14  C          4.4800    0.6320    2.1970 C.3     1  UNL1        0.4680
@<TRIPOS>BOND
     1     3     2    1
     2     2     4    2
     3     2     1    1
     4     1     5    1
     5     5     6    1
     6     6     8    2
     7     6     7    1
     8     8    10    1
     9     7     9    2
    10    10    12    1
    11    10    11    2
    12    12    14    1
    13     9    11    1
    14    11    13    1
    15    14    13    1
