@<TRIPOS>MOLECULE
/home/cewinharhar/GITHUB/reincatalyze/data/processed/docking_pred/2023-May-25-1902_sub9_nm5_bs15_s42_ex16_mel10_mts10000_k50_ec01_g099_lra3e-4_lrc3e-3/5f7ce1df4e505eeb6c5bd28a98530cf3f623dbf2_ligand_9.pdbqt
 14 15 0 0 0
SMALL
GASTEIGER

@<TRIPOS>ATOM
      1  C          5.9430    1.1270   -0.1990 C.3     1  UNL1        0.0800
      2  C          5.9080    1.1400    1.2900 C.2     1  UNL1        0.1300
      3  C          5.3750   -0.0100    2.0690 C.3     1  UNL1        0.0870
      4  O          6.3180    2.1030    1.9180 O.2     1  UNL1       -0.3000
      5  C          7.3680    1.1100   -0.7160 C.3     1  UNL1        0.0430
      6  C          7.7580   -0.2270   -1.2000 C.2     1  UNL1       -0.0440
      7  C          7.9560   -0.4840   -2.5620 C.2     1  UNL1        0.0080
      8  C          7.9370   -1.2530   -0.3010 C.2     1  UNL1        0.0540
      9  C          8.3220   -1.7580   -2.9580 C.2     1  UNL1        0.0510
     10  C          8.3070   -2.5390   -0.7060 C.2     1  UNL1        0.1660
     11  C          8.5010   -2.7930   -2.0460 C.2     1  UNL1        0.1650
     12  O          8.5420   -3.7100   -0.0180 O.2     1  UNL1       -0.4540
     13  O          8.8560   -4.1290   -2.1530 O.2     1  UNL1       -0.4540
     14  C          8.9830   -4.7240   -0.8840 C.3     1  UNL1        0.4680
@<TRIPOS>BOND
     1     9     7    1
     2     9    11    2
     3     7     6    2
     4    13    11    1
     5    13    14    1
     6    11    10    1
     7     6     5    1
     8     6     8    1
     9    14    12    1
    10     5     1    1
    11    10     8    2
    12    10    12    1
    13     1     2    1
    14     2     4    2
    15     2     3    1
