@<TRIPOS>MOLECULE
/home/cewinharhar/GITHUB/reincatalyze/data/processed/docking_pred/2023-May-25-1902_sub9_nm5_bs15_s42_ex16_mel10_mts10000_k50_ec01_g099_lra3e-4_lrc3e-3/5f7ce1df4e505eeb6c5bd28a98530cf3f623dbf2_ligand_9.pdbqt
 14 15 0 0 0
SMALL
GASTEIGER

@<TRIPOS>ATOM
      1  C          6.3370    1.2520    0.8790 C.3     1  UNL1        0.0800
      2  C          5.6580    0.4250    1.9150 C.2     1  UNL1        0.1300
      3  C          6.2930   -0.7970    2.4780 C.3     1  UNL1        0.0870
      4  O          4.5530    0.7290    2.3340 O.2     1  UNL1       -0.3000
      5  C          5.8240    0.9250   -0.5090 C.3     1  UNL1        0.0430
      6  C          6.7880    0.1120   -1.2710 C.2     1  UNL1       -0.0440
      7  C          7.4970    0.6410   -2.3560 C.2     1  UNL1        0.0080
      8  C          7.0070   -1.1990   -0.9150 C.2     1  UNL1        0.0540
      9  C          8.3900   -0.1700   -3.0330 C.2     1  UNL1        0.0510
     10  C          7.9110   -2.0140   -1.6020 C.2     1  UNL1        0.1660
     11  C          8.6080   -1.4950   -2.6710 C.2     1  UNL1        0.1650
     12  O          8.2990   -3.3280   -1.4460 O.2     1  UNL1       -0.4540
     13  O          9.4190   -2.5110   -3.1520 O.2     1  UNL1       -0.4540
     14  C          9.3210   -3.6630   -2.3490 C.3     1  UNL1        0.4680
@<TRIPOS>BOND
     1    13    11    1
     2    13    14    1
     3     9    11    2
     4     9     7    1
     5    11    10    1
     6     7     6    2
     7    14    12    1
     8    10    12    1
     9    10     8    2
    10     6     8    1
    11     6     5    1
    12     5     1    1
    13     1     2    1
    14     2     4    2
    15     2     3    1
