@<TRIPOS>MOLECULE
/home/cewinharhar/GITHUB/reincatalyze/data/processed/docking_pred/2023-May-25-1902_sub9_nm5_bs15_s42_ex16_mel10_mts10000_k50_ec01_g099_lra3e-4_lrc3e-3/6047b5c71b47d2a809e14c46b0582b8ae3076bc9_ligand_9.pdbqt
 14 15 0 0 0
SMALL
GASTEIGER

@<TRIPOS>ATOM
      1  C          5.5140    1.9010    1.2780 C.3     1  UNL1        0.0800
      2  C          5.0650    0.6820    2.0070 C.2     1  UNL1        0.1300
      3  C          5.9460   -0.5060    2.1580 C.3     1  UNL1        0.0870
      4  O          3.9520    0.6240    2.5050 O.2     1  UNL1       -0.3000
      5  C          5.3890    1.7230   -0.2220 C.3     1  UNL1        0.0430
      6  C          6.5580    1.0260   -0.7880 C.2     1  UNL1       -0.0440
      7  C          7.8630    1.4680   -0.5450 C.2     1  UNL1        0.0080
      8  C          6.3730   -0.0880   -1.5750 C.2     1  UNL1        0.0540
      9  C          8.9220    0.7740   -1.1030 C.2     1  UNL1        0.0510
     10  C          7.4460   -0.7860   -2.1360 C.2     1  UNL1        0.1660
     11  C          8.7310   -0.3510   -1.8980 C.2     1  UNL1        0.1650
     12  O          7.5230   -1.9030   -2.9410 O.2     1  UNL1       -0.4540
     13  O          9.5790   -1.2200   -2.5680 O.2     1  UNL1       -0.4540
     14  C          8.8590   -2.2710   -3.1670 C.3     1  UNL1        0.4680
@<TRIPOS>BOND
     1    14    12    1
     2    14    13    1
     3    12    10    1
     4    13    11    1
     5    10    11    2
     6    10     8    1
     7    11     9    1
     8     8     6    2
     9     9     7    2
    10     6     7    1
    11     6     5    1
    12     5     1    1
    13     1     2    1
    14     2     3    1
    15     2     4    2
