@<TRIPOS>MOLECULE
/home/cewinharhar/GITHUB/reincatalyze/data/processed/docking_pred/2023-May-25-1902_sub9_nm5_bs15_s42_ex16_mel10_mts10000_k50_ec01_g099_lra3e-4_lrc3e-3/6070aa1b8336213875ea865ca7f6d729a9af33a9_ligand_9.pdbqt
 14 15 0 0 0
SMALL
GASTEIGER

@<TRIPOS>ATOM
      1  C          5.5040    1.9190    1.2580 C.3     1  UNL1        0.0800
      2  C          5.0290    0.7130    1.9930 C.2     1  UNL1        0.1300
      3  C          5.8710   -0.5070    2.1180 C.3     1  UNL1        0.0870
      4  O          3.9270    0.6930    2.5170 O.2     1  UNL1       -0.3000
      5  C          5.3860    1.7320   -0.2410 C.3     1  UNL1        0.0430
      6  C          6.5570    1.0310   -0.7980 C.2     1  UNL1       -0.0440
      7  C          7.8620    1.4650   -0.5390 C.2     1  UNL1        0.0080
      8  C          6.3740   -0.0790   -1.5920 C.2     1  UNL1        0.0540
      9  C          8.9230    0.7670   -1.0890 C.2     1  UNL1        0.0510
     10  C          7.4500   -0.7810   -2.1440 C.2     1  UNL1        0.1660
     11  C          8.7340   -0.3540   -1.8910 C.2     1  UNL1        0.1650
     12  O          7.5280   -1.8950   -2.9530 O.2     1  UNL1       -0.4540
     13  O          9.5840   -1.2250   -2.5550 O.2     1  UNL1       -0.4540
     14  C          8.8650   -2.2700   -3.1660 C.3     1  UNL1        0.4680
@<TRIPOS>BOND
     1    14    12    1
     2    14    13    1
     3    12    10    1
     4    13    11    1
     5    10    11    2
     6    10     8    1
     7    11     9    1
     8     8     6    2
     9     9     7    2
    10     6     7    1
    11     6     5    1
    12     5     1    1
    13     1     2    1
    14     2     3    1
    15     2     4    2
