@<TRIPOS>MOLECULE
/home/cewinharhar/GITHUB/reincatalyze/data/processed/docking_pred/2023-May-25-1902_sub9_nm5_bs15_s42_ex16_mel10_mts10000_k50_ec01_g099_lra3e-4_lrc3e-3/6070aa1b8336213875ea865ca7f6d729a9af33a9_ligand_9.pdbqt
 14 15 0 0 0
SMALL
GASTEIGER

@<TRIPOS>ATOM
      1  C          6.3680    1.2030    0.9380 C.3     1  UNL1        0.0800
      2  C          5.6430    0.3780    1.9440 C.2     1  UNL1        0.1300
      3  C          6.2490   -0.8470    2.5320 C.3     1  UNL1        0.0870
      4  O          4.5230    0.6860    2.3170 O.2     1  UNL1       -0.3000
      5  C          5.8570    0.9350   -0.4640 C.3     1  UNL1        0.0430
      6  C          6.8000    0.1100   -1.2400 C.2     1  UNL1       -0.0440
      7  C          7.4700    0.6180   -2.3590 C.2     1  UNL1        0.0080
      8  C          7.0370   -1.1930   -0.8640 C.2     1  UNL1        0.0540
      9  C          8.3440   -0.2030   -3.0480 C.2     1  UNL1        0.0510
     10  C          7.9220   -2.0180   -1.5640 C.2     1  UNL1        0.1660
     11  C          8.5800   -1.5190   -2.6650 C.2     1  UNL1        0.1650
     12  O          8.3210   -3.3270   -1.3920 O.2     1  UNL1       -0.4540
     13  O          9.3790   -2.5420   -3.1520 O.2     1  UNL1       -0.4540
     14  C          9.3140   -3.6770   -2.3220 C.3     1  UNL1        0.4680
@<TRIPOS>BOND
     1    13    11    1
     2    13    14    1
     3     9    11    2
     4     9     7    1
     5    11    10    1
     6     7     6    2
     7    14    12    1
     8    10    12    1
     9    10     8    2
    10     6     8    1
    11     6     5    1
    12     5     1    1
    13     1     2    1
    14     2     4    2
    15     2     3    1
