@<TRIPOS>MOLECULE
/home/cewinharhar/GITHUB/reincatalyze/data/processed/docking_pred/2023-May-25-1902_sub9_nm5_bs15_s42_ex16_mel10_mts10000_k50_ec01_g099_lra3e-4_lrc3e-3/6070aa1b8336213875ea865ca7f6d729a9af33a9_ligand_9.pdbqt
 14 15 0 0 0
SMALL
GASTEIGER

@<TRIPOS>ATOM
      1  C          6.8420    0.8690    1.4620 C.3     1  UNL1        0.0800
      2  C          5.3670    1.0580    1.5520 C.2     1  UNL1        0.1300
      3  C          4.6530    2.0490    0.7030 C.3     1  UNL1        0.0870
      4  O          4.6980    0.3990    2.3320 O.2     1  UNL1       -0.3000
      5  C          7.3400    1.0910    0.0470 C.3     1  UNL1        0.0430
      6  C          7.6600   -0.1800   -0.6250 C.2     1  UNL1       -0.0440
      7  C          7.6540   -0.2940   -2.0200 C.2     1  UNL1        0.0080
      8  C          7.9780   -1.2880    0.1270 C.2     1  UNL1        0.0540
      9  C          7.9640   -1.5120   -2.5960 C.2     1  UNL1        0.0510
     10  C          8.2910   -2.5180   -0.4600 C.2     1  UNL1        0.1660
     11  C          8.2840   -2.6310   -1.8320 C.2     1  UNL1        0.1650
     12  O          8.6340   -3.7480    0.0610 O.2     1  UNL1       -0.4540
     13  O          8.6270   -3.9410   -2.1290 O.2     1  UNL1       -0.4540
     14  C          8.9450   -4.6600   -0.9610 C.3     1  UNL1        0.4680
@<TRIPOS>BOND
     1     9     7    1
     2     9    11    2
     3    13    11    1
     4    13    14    1
     5     7     6    2
     6    11    10    1
     7    14    12    1
     8     6     5    1
     9     6     8    1
    10    10    12    1
    11    10     8    2
    12     5     1    1
    13     3     2    1
    14     1     2    1
    15     2     4    2
