@<TRIPOS>MOLECULE
/home/cewinharhar/GITHUB/reincatalyze/data/processed/docking_pred/2023-May-25-1902_sub9_nm5_bs15_s42_ex16_mel10_mts10000_k50_ec01_g099_lra3e-4_lrc3e-3/6070aa1b8336213875ea865ca7f6d729a9af33a9_ligand_9.pdbqt
 14 15 0 0 0
SMALL
GASTEIGER

@<TRIPOS>ATOM
      1  C          5.4380   -0.0380    2.0020 C.3     1  UNL1        0.0800
      2  C          4.5810    1.1550    1.7590 C.2     1  UNL1        0.1300
      3  C          4.9000    2.1420    0.6930 C.3     1  UNL1        0.0870
      4  O          3.5850    1.3590    2.4340 O.2     1  UNL1       -0.3000
      5  C          6.8690    0.2150    1.5700 C.3     1  UNL1        0.0430
      6  C          7.2930   -0.7150    0.5080 C.2     1  UNL1       -0.0440
      7  C          7.1680   -0.3860   -0.8470 C.2     1  UNL1        0.0080
      8  C          7.8280   -1.9370    0.8450 C.2     1  UNL1        0.0540
      9  C          7.5830   -1.2980   -1.8000 C.2     1  UNL1        0.0510
     10  C          8.2460   -2.8560   -0.1220 C.2     1  UNL1        0.1660
     11  C          8.1230   -2.5340   -1.4550 C.2     1  UNL1        0.1650
     12  O          8.8000   -4.1160   -0.0440 O.2     1  UNL1       -0.4540
     13  O          8.6090   -3.6140   -2.1750 O.2     1  UNL1       -0.4540
     14  C          9.1330   -4.6010   -1.3190 C.3     1  UNL1        0.4680
@<TRIPOS>BOND
     1    13    11    1
     2    13    14    1
     3     9    11    2
     4     9     7    1
     5    11    10    1
     6    14    12    1
     7     7     6    2
     8    10    12    1
     9    10     8    2
    10     6     8    1
    11     6     5    1
    12     3     2    1
    13     5     1    1
    14     2     1    1
    15     2     4    2
