@<TRIPOS>MOLECULE
/home/cewinharhar/GITHUB/reincatalyze/data/processed/docking_pred/2023-May-25-1902_sub9_nm5_bs15_s42_ex16_mel10_mts10000_k50_ec01_g099_lra3e-4_lrc3e-3/6070aa1b8336213875ea865ca7f6d729a9af33a9_ligand_9.pdbqt
 14 15 0 0 0
SMALL
GASTEIGER

@<TRIPOS>ATOM
      1  C          5.7340    1.2720   -0.3620 C.3     1  UNL1        0.0800
      2  C          5.1110    1.2550    0.9910 C.2     1  UNL1        0.1300
      3  C          5.3730    0.1550    1.9570 C.3     1  UNL1        0.0870
      4  O          4.3620    2.1500    1.3480 O.2     1  UNL1       -0.3000
      5  C          7.2300    1.0450   -0.2830 C.3     1  UNL1        0.0430
      6  C          7.6210   -0.2400   -0.8900 C.2     1  UNL1       -0.0440
      7  C          7.7240   -0.3940   -2.2770 C.2     1  UNL1        0.0080
      8  C          7.8950   -1.3210   -0.0830 C.2     1  UNL1        0.0540
      9  C          8.0960   -1.6230   -2.7900 C.2     1  UNL1        0.0510
     10  C          8.2700   -2.5620   -0.6070 C.2     1  UNL1        0.1660
     11  C          8.3710   -2.7140   -1.9720 C.2     1  UNL1        0.1650
     12  O          8.5890   -3.7700   -0.0240 O.2     1  UNL1       -0.4540
     13  O          8.7550   -4.0260   -2.2010 O.2     1  UNL1       -0.4540
     14  C          8.9920   -4.7050   -0.9920 C.3     1  UNL1        0.4680
@<TRIPOS>BOND
     1     9     7    1
     2     9    11    2
     3     7     6    2
     4    13    11    1
     5    13    14    1
     6    11    10    1
     7    14    12    1
     8     6     5    1
     9     6     8    1
    10    10     8    2
    11    10    12    1
    12     1     5    1
    13     1     2    1
    14     2     4    2
    15     2     3    1
