MODEL 1
REMARK VINA RESULT:      -7.7      0.000      0.000
REMARK SMILES CC(=O)CCc1ccc2c(c1)OCO2
REMARK SMILES IDX 4 1 2 2 1 3 3 4 5 5 6 6 7 7 11 8 8 9 10 10 9 11 12 12 14 13
REMARK SMILES IDX 13 14
REMARK H PARENT
REMARK Flexibility Score: inf
ROOT
ATOM      1  C   UNL     1       5.504   1.919   1.258  1.00  0.00     0.080 C 
ENDROOT
BRANCH   1   2
ATOM      2  C   UNL     1       5.029   0.713   1.993  1.00  0.00     0.130 C 
ATOM      3  C   UNL     1       5.871  -0.507   2.118  1.00  0.00     0.087 C 
ATOM      4  O   UNL     1       3.927   0.693   2.517  1.00  0.00    -0.300 OA
ENDBRANCH   1   2
BRANCH   1   5
ATOM      5  C   UNL     1       5.386   1.732  -0.241  1.00  0.00     0.043 C 
BRANCH   5   6
ATOM      6  C   UNL     1       6.557   1.031  -0.798  1.00  0.00    -0.044 A 
ATOM      7  C   UNL     1       7.862   1.465  -0.539  1.00  0.00     0.008 A 
ATOM      8  C   UNL     1       6.374  -0.079  -1.592  1.00  0.00     0.054 A 
ATOM      9  C   UNL     1       8.923   0.767  -1.089  1.00  0.00     0.051 A 
ATOM     10  C   UNL     1       7.450  -0.781  -2.144  1.00  0.00     0.166 A 
ATOM     11  C   UNL     1       8.734  -0.354  -1.891  1.00  0.00     0.165 A 
ATOM     12  O   UNL     1       7.528  -1.895  -2.953  1.00  0.00    -0.454 OA
ATOM     13  O   UNL     1       9.584  -1.225  -2.555  1.00  0.00    -0.454 OA
ATOM     14  C   UNL     1       8.865  -2.270  -3.166  1.00  0.00     0.468 C 
ENDBRANCH   5   6
ENDBRANCH   1   5
TORSDOF 3
ENDMDL
MODEL 2
REMARK VINA RESULT:      -7.5      1.934      2.417
REMARK SMILES CC(=O)CCc1ccc2c(c1)OCO2
REMARK SMILES IDX 4 1 2 2 1 3 3 4 5 5 6 6 7 7 11 8 8 9 10 10 9 11 12 12 14 13
REMARK SMILES IDX 13 14
REMARK H PARENT
REMARK Flexibility Score: inf
ROOT
ATOM      1  C   UNL     1       5.734   1.272  -0.362  1.00  0.00     0.080 C 
ENDROOT
BRANCH   1   2
ATOM      2  C   UNL     1       5.111   1.255   0.991  1.00  0.00     0.130 C 
ATOM      3  C   UNL     1       5.373   0.155   1.957  1.00  0.00     0.087 C 
ATOM      4  O   UNL     1       4.362   2.150   1.348  1.00  0.00    -0.300 OA
ENDBRANCH   1   2
BRANCH   1   5
ATOM      5  C   UNL     1       7.230   1.045  -0.283  1.00  0.00     0.043 C 
BRANCH   5   6
ATOM      6  C   UNL     1       7.621  -0.240  -0.890  1.00  0.00    -0.044 A 
ATOM      7  C   UNL     1       7.724  -0.394  -2.277  1.00  0.00     0.008 A 
ATOM      8  C   UNL     1       7.895  -1.321  -0.083  1.00  0.00     0.054 A 
ATOM      9  C   UNL     1       8.096  -1.623  -2.790  1.00  0.00     0.051 A 
ATOM     10  C   UNL     1       8.270  -2.562  -0.607  1.00  0.00     0.166 A 
ATOM     11  C   UNL     1       8.371  -2.714  -1.972  1.00  0.00     0.165 A 
ATOM     12  O   UNL     1       8.589  -3.770  -0.024  1.00  0.00    -0.454 OA
ATOM     13  O   UNL     1       8.755  -4.026  -2.201  1.00  0.00    -0.454 OA
ATOM     14  C   UNL     1       8.992  -4.705  -0.992  1.00  0.00     0.468 C 
ENDBRANCH   5   6
ENDBRANCH   1   5
TORSDOF 3
ENDMDL
MODEL 3
REMARK VINA RESULT:      -7.3      2.054      2.613
REMARK SMILES CC(=O)CCc1ccc2c(c1)OCO2
REMARK SMILES IDX 4 1 2 2 1 3 3 4 5 5 6 6 7 7 11 8 8 9 10 10 9 11 12 12 14 13
REMARK SMILES IDX 13 14
REMARK H PARENT
REMARK Flexibility Score: inf
ROOT
ATOM      1  C   UNL     1       5.438  -0.038   2.002  1.00  0.00     0.080 C 
ENDROOT
BRANCH   1   2
ATOM      2  C   UNL     1       4.581   1.155   1.759  1.00  0.00     0.130 C 
ATOM      3  C   UNL     1       4.900   2.142   0.693  1.00  0.00     0.087 C 
ATOM      4  O   UNL     1       3.585   1.359   2.434  1.00  0.00    -0.300 OA
ENDBRANCH   1   2
BRANCH   1   5
ATOM      5  C   UNL     1       6.869   0.215   1.570  1.00  0.00     0.043 C 
BRANCH   5   6
ATOM      6  C   UNL     1       7.293  -0.715   0.508  1.00  0.00    -0.044 A 
ATOM      7  C   UNL     1       7.168  -0.386  -0.847  1.00  0.00     0.008 A 
ATOM      8  C   UNL     1       7.828  -1.937   0.845  1.00  0.00     0.054 A 
ATOM      9  C   UNL     1       7.583  -1.298  -1.800  1.00  0.00     0.051 A 
ATOM     10  C   UNL     1       8.246  -2.856  -0.122  1.00  0.00     0.166 A 
ATOM     11  C   UNL     1       8.123  -2.534  -1.455  1.00  0.00     0.165 A 
ATOM     12  O   UNL     1       8.800  -4.116  -0.044  1.00  0.00    -0.454 OA
ATOM     13  O   UNL     1       8.609  -3.614  -2.175  1.00  0.00    -0.454 OA
ATOM     14  C   UNL     1       9.133  -4.601  -1.319  1.00  0.00     0.468 C 
ENDBRANCH   5   6
ENDBRANCH   1   5
TORSDOF 3
ENDMDL
MODEL 4
REMARK VINA RESULT:      -7.1      1.261      1.474
REMARK SMILES CC(=O)CCc1ccc2c(c1)OCO2
REMARK SMILES IDX 4 1 2 2 1 3 3 4 5 5 6 6 7 7 11 8 8 9 10 10 9 11 12 12 14 13
REMARK SMILES IDX 13 14
REMARK H PARENT
REMARK Flexibility Score: inf
ROOT
ATOM      1  C   UNL     1       6.368   1.203   0.938  1.00  0.00     0.080 C 
ENDROOT
BRANCH   1   2
ATOM      2  C   UNL     1       5.643   0.378   1.944  1.00  0.00     0.130 C 
ATOM      3  C   UNL     1       6.249  -0.847   2.532  1.00  0.00     0.087 C 
ATOM      4  O   UNL     1       4.523   0.686   2.317  1.00  0.00    -0.300 OA
ENDBRANCH   1   2
BRANCH   1   5
ATOM      5  C   UNL     1       5.857   0.935  -0.464  1.00  0.00     0.043 C 
BRANCH   5   6
ATOM      6  C   UNL     1       6.800   0.110  -1.240  1.00  0.00    -0.044 A 
ATOM      7  C   UNL     1       7.470   0.618  -2.359  1.00  0.00     0.008 A 
ATOM      8  C   UNL     1       7.037  -1.193  -0.864  1.00  0.00     0.054 A 
ATOM      9  C   UNL     1       8.344  -0.203  -3.048  1.00  0.00     0.051 A 
ATOM     10  C   UNL     1       7.922  -2.018  -1.564  1.00  0.00     0.166 A 
ATOM     11  C   UNL     1       8.580  -1.519  -2.665  1.00  0.00     0.165 A 
ATOM     12  O   UNL     1       8.321  -3.327  -1.392  1.00  0.00    -0.454 OA
ATOM     13  O   UNL     1       9.379  -2.542  -3.152  1.00  0.00    -0.454 OA
ATOM     14  C   UNL     1       9.314  -3.677  -2.322  1.00  0.00     0.468 C 
ENDBRANCH   5   6
ENDBRANCH   1   5
TORSDOF 3
ENDMDL
MODEL 5
REMARK VINA RESULT:      -7.0      1.973      2.487
REMARK SMILES CC(=O)CCc1ccc2c(c1)OCO2
REMARK SMILES IDX 4 1 2 2 1 3 3 4 5 5 6 6 7 7 11 8 8 9 10 10 9 11 12 12 14 13
REMARK SMILES IDX 13 14
REMARK H PARENT
REMARK Flexibility Score: inf
ROOT
ATOM      1  C   UNL     1       6.842   0.869   1.462  1.00  0.00     0.080 C 
ENDROOT
BRANCH   1   2
ATOM      2  C   UNL     1       5.367   1.058   1.552  1.00  0.00     0.130 C 
ATOM      3  C   UNL     1       4.653   2.049   0.703  1.00  0.00     0.087 C 
ATOM      4  O   UNL     1       4.698   0.399   2.332  1.00  0.00    -0.300 OA
ENDBRANCH   1   2
BRANCH   1   5
ATOM      5  C   UNL     1       7.340   1.091   0.047  1.00  0.00     0.043 C 
BRANCH   5   6
ATOM      6  C   UNL     1       7.660  -0.180  -0.625  1.00  0.00    -0.044 A 
ATOM      7  C   UNL     1       7.654  -0.294  -2.020  1.00  0.00     0.008 A 
ATOM      8  C   UNL     1       7.978  -1.288   0.127  1.00  0.00     0.054 A 
ATOM      9  C   UNL     1       7.964  -1.512  -2.596  1.00  0.00     0.051 A 
ATOM     10  C   UNL     1       8.291  -2.518  -0.460  1.00  0.00     0.166 A 
ATOM     11  C   UNL     1       8.284  -2.631  -1.832  1.00  0.00     0.165 A 
ATOM     12  O   UNL     1       8.634  -3.748   0.061  1.00  0.00    -0.454 OA
ATOM     13  O   UNL     1       8.627  -3.941  -2.129  1.00  0.00    -0.454 OA
ATOM     14  C   UNL     1       8.945  -4.660  -0.961  1.00  0.00     0.468 C 
ENDBRANCH   5   6
ENDBRANCH   1   5
TORSDOF 3
ENDMDL
