MODEL 1
REMARK VINA RESULT:      -7.7      0.000      0.000
REMARK SMILES CC(=O)CCc1ccc2c(c1)OCO2
REMARK SMILES IDX 4 1 2 2 1 3 3 4 5 5 6 6 7 7 11 8 8 9 10 10 9 11 12 12 14 13
REMARK SMILES IDX 13 14
REMARK H PARENT
REMARK Flexibility Score: inf
ROOT
ATOM      1  C   UNL     1       5.514   1.922   1.273  1.00  0.00     0.080 C 
ENDROOT
BRANCH   1   2
ATOM      2  C   UNL     1       5.056   0.707   2.003  1.00  0.00     0.130 C 
ATOM      3  C   UNL     1       5.925  -0.491   2.147  1.00  0.00     0.087 C 
ATOM      4  O   UNL     1       3.945   0.659   2.506  1.00  0.00    -0.300 OA
ENDBRANCH   1   2
BRANCH   1   5
ATOM      5  C   UNL     1       5.392   1.743  -0.227  1.00  0.00     0.043 C 
BRANCH   5   6
ATOM      6  C   UNL     1       6.559   1.041  -0.790  1.00  0.00    -0.044 A 
ATOM      7  C   UNL     1       7.866   1.477  -0.541  1.00  0.00     0.008 A 
ATOM      8  C   UNL     1       6.372  -0.071  -1.578  1.00  0.00     0.054 A 
ATOM      9  C   UNL     1       8.923   0.778  -1.096  1.00  0.00     0.051 A 
ATOM     10  C   UNL     1       7.444  -0.774  -2.136  1.00  0.00     0.166 A 
ATOM     11  C   UNL     1       8.730  -0.346  -1.893  1.00  0.00     0.165 A 
ATOM     12  O   UNL     1       7.518  -1.891  -2.942  1.00  0.00    -0.454 OA
ATOM     13  O   UNL     1       9.575  -1.218  -2.561  1.00  0.00    -0.454 OA
ATOM     14  C   UNL     1       8.853  -2.265  -3.163  1.00  0.00     0.468 C 
ENDBRANCH   5   6
ENDBRANCH   1   5
TORSDOF 3
ENDMDL
MODEL 2
REMARK VINA RESULT:      -7.4      1.901      2.413
REMARK SMILES CC(=O)CCc1ccc2c(c1)OCO2
REMARK SMILES IDX 4 1 2 2 1 3 3 4 5 5 6 6 7 7 11 8 8 9 10 10 9 11 12 12 14 13
REMARK SMILES IDX 13 14
REMARK H PARENT
REMARK Flexibility Score: inf
ROOT
ATOM      1  C   UNL     1       5.761   1.324  -0.379  1.00  0.00     0.080 C 
ENDROOT
BRANCH   1   2
ATOM      2  C   UNL     1       5.198   1.274   0.999  1.00  0.00     0.130 C 
ATOM      3  C   UNL     1       5.521   0.163   1.935  1.00  0.00     0.087 C 
ATOM      4  O   UNL     1       4.450   2.150   1.403  1.00  0.00    -0.300 OA
ENDBRANCH   1   2
BRANCH   1   5
ATOM      5  C   UNL     1       7.260   1.096  -0.370  1.00  0.00     0.043 C 
BRANCH   5   6
ATOM      6  C   UNL     1       7.619  -0.204  -0.966  1.00  0.00    -0.044 A 
ATOM      7  C   UNL     1       7.653  -0.390  -2.352  1.00  0.00     0.008 A 
ATOM      8  C   UNL     1       7.932  -1.266  -0.148  1.00  0.00     0.054 A 
ATOM      9  C   UNL     1       7.998  -1.632  -2.854  1.00  0.00     0.051 A 
ATOM     10  C   UNL     1       8.280  -2.519  -0.660  1.00  0.00     0.166 A 
ATOM     11  C   UNL     1       8.313  -2.703  -2.025  1.00  0.00     0.165 A 
ATOM     12  O   UNL     1       8.627  -3.714  -0.066  1.00  0.00    -0.454 OA
ATOM     13  O   UNL     1       8.684  -4.021  -2.242  1.00  0.00    -0.454 OA
ATOM     14  C   UNL     1       8.981  -4.672  -1.030  1.00  0.00     0.468 C 
ENDBRANCH   5   6
ENDBRANCH   1   5
TORSDOF 3
ENDMDL
MODEL 3
REMARK VINA RESULT:      -7.2      2.079      2.615
REMARK SMILES CC(=O)CCc1ccc2c(c1)OCO2
REMARK SMILES IDX 4 1 2 2 1 3 3 4 5 5 6 6 7 7 11 8 8 9 10 10 9 11 12 12 14 13
REMARK SMILES IDX 13 14
REMARK H PARENT
REMARK Flexibility Score: inf
ROOT
ATOM      1  C   UNL     1       5.547   0.018   1.966  1.00  0.00     0.080 C 
ENDROOT
BRANCH   1   2
ATOM      2  C   UNL     1       4.652   1.165   1.649  1.00  0.00     0.130 C 
ATOM      3  C   UNL     1       4.948   2.101   0.532  1.00  0.00     0.087 C 
ATOM      4  O   UNL     1       3.642   1.371   2.303  1.00  0.00    -0.300 OA
ENDBRANCH   1   2
BRANCH   1   5
ATOM      5  C   UNL     1       6.962   0.275   1.485  1.00  0.00     0.043 C 
BRANCH   5   6
ATOM      6  C   UNL     1       7.367  -0.685   0.442  1.00  0.00    -0.044 A 
ATOM      7  C   UNL     1       7.258  -0.377  -0.919  1.00  0.00     0.008 A 
ATOM      8  C   UNL     1       7.868  -1.915   0.804  1.00  0.00     0.054 A 
ATOM      9  C   UNL     1       7.655  -1.317  -1.853  1.00  0.00     0.051 A 
ATOM     10  C   UNL     1       8.268  -2.861  -0.145  1.00  0.00     0.166 A 
ATOM     11  C   UNL     1       8.160  -2.559  -1.484  1.00  0.00     0.165 A 
ATOM     12  O   UNL     1       8.788  -4.133  -0.041  1.00  0.00    -0.454 OA
ATOM     13  O   UNL     1       8.623  -3.664  -2.182  1.00  0.00    -0.454 OA
ATOM     14  C   UNL     1       9.115  -4.649  -1.305  1.00  0.00     0.468 C 
ENDBRANCH   5   6
ENDBRANCH   1   5
TORSDOF 3
ENDMDL
MODEL 4
REMARK VINA RESULT:      -7.1      1.251      1.461
REMARK SMILES CC(=O)CCc1ccc2c(c1)OCO2
REMARK SMILES IDX 4 1 2 2 1 3 3 4 5 5 6 6 7 7 11 8 8 9 10 10 9 11 12 12 14 13
REMARK SMILES IDX 13 14
REMARK H PARENT
REMARK Flexibility Score: inf
ROOT
ATOM      1  C   UNL     1       6.349   1.246   0.867  1.00  0.00     0.080 C 
ENDROOT
BRANCH   1   2
ATOM      2  C   UNL     1       5.661   0.434   1.909  1.00  0.00     0.130 C 
ATOM      3  C   UNL     1       6.279  -0.794   2.476  1.00  0.00     0.087 C 
ATOM      4  O   UNL     1       4.562   0.757   2.330  1.00  0.00    -0.300 OA
ENDBRANCH   1   2
BRANCH   1   5
ATOM      5  C   UNL     1       5.836   0.911  -0.520  1.00  0.00     0.043 C 
BRANCH   5   6
ATOM      6  C   UNL     1       6.803   0.097  -1.278  1.00  0.00    -0.044 A 
ATOM      7  C   UNL     1       7.520   0.628  -2.357  1.00  0.00     0.008 A 
ATOM      8  C   UNL     1       7.016  -1.215  -0.924  1.00  0.00     0.054 A 
ATOM      9  C   UNL     1       8.415  -0.183  -3.031  1.00  0.00     0.051 A 
ATOM     10  C   UNL     1       7.923  -2.031  -1.608  1.00  0.00     0.166 A 
ATOM     11  C   UNL     1       8.627  -1.510  -2.671  1.00  0.00     0.165 A 
ATOM     12  O   UNL     1       8.306  -3.346  -1.453  1.00  0.00    -0.454 OA
ATOM     13  O   UNL     1       9.438  -2.527  -3.151  1.00  0.00    -0.454 OA
ATOM     14  C   UNL     1       9.333  -3.681  -2.351  1.00  0.00     0.468 C 
ENDBRANCH   5   6
ENDBRANCH   1   5
TORSDOF 3
ENDMDL
MODEL 5
REMARK VINA RESULT:      -6.8      1.973      2.749
REMARK SMILES CC(=O)CCc1ccc2c(c1)OCO2
REMARK SMILES IDX 4 1 2 2 1 3 3 4 5 5 6 6 7 7 11 8 8 9 10 10 9 11 12 12 14 13
REMARK SMILES IDX 13 14
REMARK H PARENT
REMARK Flexibility Score: inf
ROOT
ATOM      1  C   UNL     1       6.746   0.827   0.697  1.00  0.00     0.080 C 
ENDROOT
BRANCH   1   2
ATOM      2  C   UNL     1       5.436   1.536   0.676  1.00  0.00     0.130 C 
ATOM      3  C   UNL     1       4.901   2.150  -0.569  1.00  0.00     0.087 C 
ATOM      4  O   UNL     1       4.760   1.635   1.687  1.00  0.00    -0.300 OA
ENDBRANCH   1   2
BRANCH   1   5
ATOM      5  C   UNL     1       7.452   0.934  -0.640  1.00  0.00     0.043 C 
BRANCH   5   6
ATOM      6  C   UNL     1       7.856  -0.387  -1.152  1.00  0.00    -0.044 A 
ATOM      7  C   UNL     1       8.111  -0.599  -2.512  1.00  0.00     0.008 A 
ATOM      8  C   UNL     1       7.993  -1.444  -0.281  1.00  0.00     0.054 A 
ATOM      9  C   UNL     1       8.488  -1.861  -2.935  1.00  0.00     0.051 A 
ATOM     10  C   UNL     1       8.375  -2.717  -0.713  1.00  0.00     0.166 A 
ATOM     11  C   UNL     1       8.624  -2.928  -2.051  1.00  0.00     0.165 A 
ATOM     12  O   UNL     1       8.576  -3.912  -0.055  1.00  0.00    -0.454 OA
ATOM     13  O   UNL     1       8.978  -4.261  -2.188  1.00  0.00    -0.454 OA
ATOM     14  C   UNL     1       9.048  -4.899  -0.936  1.00  0.00     0.468 C 
ENDBRANCH   5   6
ENDBRANCH   1   5
TORSDOF 3
ENDMDL
