@<TRIPOS>MOLECULE
/home/cewinharhar/GITHUB/reincatalyze/data/processed/docking_pred/2023-May-25-1902_sub9_nm5_bs15_s42_ex16_mel10_mts10000_k50_ec01_g099_lra3e-4_lrc3e-3/642d32954cc9cda539a3d3c05c60b26131de659d_ligand_9.pdbqt
 14 15 0 0 0
SMALL
GASTEIGER

@<TRIPOS>ATOM
      1  C          5.8780    1.1050   -0.3790 C.3     1  UNL1        0.0800
      2  C          5.3190    1.0700    1.0010 C.2     1  UNL1        0.1300
      3  C          5.6060   -0.0550    1.9310 C.3     1  UNL1        0.0870
      4  O          4.6040    1.9700    1.4100 O.2     1  UNL1       -0.3000
      5  C          7.3930    1.0530   -0.3610 C.3     1  UNL1        0.0430
      6  C          7.9210    0.1350   -1.3860 C.2     1  UNL1       -0.0440
      7  C          8.5960    0.6090   -2.5170 C.2     1  UNL1        0.0080
      8  C          7.7540   -1.2230   -1.2370 C.2     1  UNL1        0.0540
      9  C          9.0700   -0.3000   -3.4460 C.2     1  UNL1        0.0510
     10  C          8.2360   -2.1380   -2.1780 C.2     1  UNL1        0.1660
     11  C          8.8990   -1.6730   -3.2910 C.2     1  UNL1        0.1650
     12  O          8.1970   -3.5140   -2.2560 O.2     1  UNL1       -0.4540
     13  O          9.2580   -2.7840   -4.0380 O.2     1  UNL1       -0.4540
     14  C          8.9120   -3.9760   -3.3730 C.3     1  UNL1        0.4680
@<TRIPOS>BOND
     1    13    14    1
     2    13    11    1
     3     9    11    2
     4     9     7    1
     5    14    12    1
     6    11    10    1
     7     7     6    2
     8    12    10    1
     9    10     8    2
    10     6     8    1
    11     6     5    1
    12     1     5    1
    13     1     2    1
    14     2     4    2
    15     2     3    1
