@<TRIPOS>MOLECULE
/home/cewinharhar/GITHUB/reincatalyze/data/processed/docking_pred/2023-May-25-1902_sub9_nm5_bs15_s42_ex16_mel10_mts10000_k50_ec01_g099_lra3e-4_lrc3e-3/642d32954cc9cda539a3d3c05c60b26131de659d_ligand_9.pdbqt
 14 15 0 0 0
SMALL
GASTEIGER

@<TRIPOS>ATOM
      1  C          5.8180   -0.4720    1.5900 C.3     1  UNL1        0.0800
      2  C          4.9510    0.7330    1.7070 C.2     1  UNL1        0.1300
      3  C          5.0990    1.8930    0.7880 C.3     1  UNL1        0.0870
      4  O          4.0880    0.8030    2.5670 O.2     1  UNL1       -0.3000
      5  C          7.2770   -0.0880    1.4380 C.3     1  UNL1        0.0430
      6  C          7.7540   -0.2880    0.0580 C.2     1  UNL1       -0.0440
      7  C          8.3780    0.7410   -0.6580 C.2     1  UNL1        0.0080
      8  C          7.5880   -1.5110   -0.5510 C.2     1  UNL1        0.0540
      9  C          8.8050    0.4950   -1.9500 C.2     1  UNL1        0.0510
     10  C          8.0230   -1.7540   -1.8570 C.2     1  UNL1        0.1660
     11  C          8.6360   -0.7430   -2.5630 C.2     1  UNL1        0.1650
     12  O          7.9750   -2.8660   -2.6720 O.2     1  UNL1       -0.4540
     13  O          8.9560   -1.2600   -3.8080 O.2     1  UNL1       -0.4540
     14  C          8.6370   -2.6290   -3.8880 C.3     1  UNL1        0.4680
@<TRIPOS>BOND
     1    14    13    1
     2    14    12    1
     3    13    11    1
     4    12    10    1
     5    11     9    2
     6    11    10    1
     7     9     7    1
     8    10     8    2
     9     7     6    2
    10     8     6    1
    11     6     5    1
    12     3     2    1
    13     5     1    1
    14     1     2    1
    15     2     4    2
