@<TRIPOS>MOLECULE
/home/cewinharhar/GITHUB/reincatalyze/data/processed/docking_pred/2023-May-25-1902_sub9_nm5_bs15_s42_ex16_mel10_mts10000_k50_ec01_g099_lra3e-4_lrc3e-3/642d32954cc9cda539a3d3c05c60b26131de659d_ligand_9.pdbqt
 14 15 0 0 0
SMALL
GASTEIGER

@<TRIPOS>ATOM
      1  C          6.3420   -0.0540    0.3830 C.3     1  UNL1        0.0800
      2  C          5.4520    0.8370    1.1770 C.2     1  UNL1        0.1300
      3  C          4.9870    2.1480    0.6490 C.3     1  UNL1        0.0870
      4  O          5.0760    0.5160    2.2930 O.2     1  UNL1       -0.3000
      5  C          6.9980    0.6970   -0.7580 C.3     1  UNL1        0.0430
      6  C          7.6890   -0.2150   -1.6870 C.2     1  UNL1       -0.0440
      7  C          8.4100    0.2660   -2.7860 C.2     1  UNL1        0.0080
      8  C          7.6340   -1.5740   -1.4770 C.2     1  UNL1        0.0540
      9  C          9.0390   -0.6370   -3.6240 C.2     1  UNL1        0.0510
     10  C          8.2720   -2.4830   -2.3260 C.2     1  UNL1        0.1660
     11  C          8.9800   -2.0100   -3.4080 C.2     1  UNL1        0.1650
     12  O          8.3640   -3.8590   -2.3310 O.2     1  UNL1       -0.4540
     13  O          9.4990   -3.1170   -4.0620 O.2     1  UNL1       -0.4540
     14  C          9.2080   -4.3030   -3.3620 C.3     1  UNL1        0.4680
@<TRIPOS>BOND
     1    13    11    1
     2    13    14    1
     3     9    11    2
     4     9     7    1
     5    11    10    1
     6    14    12    1
     7     7     6    2
     8    12    10    1
     9    10     8    2
    10     6     8    1
    11     6     5    1
    12     5     1    1
    13     1     2    1
    14     3     2    1
    15     2     4    2
