@<TRIPOS>MOLECULE
/home/cewinharhar/GITHUB/reincatalyze/data/processed/docking_pred/2023-May-25-1902_sub9_nm5_bs15_s42_ex16_mel10_mts10000_k50_ec01_g099_lra3e-4_lrc3e-3/642d32954cc9cda539a3d3c05c60b26131de659d_ligand_9.pdbqt
 14 15 0 0 0
SMALL
GASTEIGER

@<TRIPOS>ATOM
      1  C          6.0470    1.3970    1.1920 C.3     1  UNL1        0.0800
      2  C          5.4900    0.2990    2.0300 C.2     1  UNL1        0.1300
      3  C          6.2700   -0.9340    2.3200 C.3     1  UNL1        0.0870
      4  O          4.3690    0.3810    2.5050 O.2     1  UNL1       -0.3000
      5  C          5.6860    1.2130   -0.2690 C.3     1  UNL1        0.0430
      6  C          6.7830    0.5850   -1.0280 C.2     1  UNL1       -0.0440
      7  C          6.6000   -0.6180   -1.7190 C.2     1  UNL1        0.0080
      8  C          8.0190    1.1890   -1.0660 C.2     1  UNL1        0.0540
      9  C          7.6650   -1.1600   -2.4150 C.2     1  UNL1        0.0510
     10  C          9.0920    0.6370   -1.7710 C.2     1  UNL1        0.1660
     11  C          8.9140   -0.5470   -2.4510 C.2     1  UNL1        0.1650
     12  O         10.3980    1.0370   -1.9590 O.2     1  UNL1       -0.4540
     13  O         10.1270   -0.8530   -3.0500 O.2     1  UNL1       -0.4540
     14  C         11.0700    0.1710   -2.8380 C.3     1  UNL1        0.4680
@<TRIPOS>BOND
     1    13    14    1
     2    13    11    1
     3    14    12    1
     4    11     9    2
     5    11    10    1
     6     9     7    1
     7    12    10    1
     8    10     8    2
     9     7     6    2
    10     8     6    1
    11     6     5    1
    12     5     1    1
    13     1     2    1
    14     2     3    1
    15     2     4    2
