@<TRIPOS>MOLECULE
/home/cewinharhar/GITHUB/reincatalyze/data/processed/docking_pred/2023-May-25-1902_sub9_nm5_bs15_s42_ex16_mel10_mts10000_k50_ec01_g099_lra3e-4_lrc3e-3/642d32954cc9cda539a3d3c05c60b26131de659d_ligand_9.pdbqt
 14 15 0 0 0
SMALL
GASTEIGER

@<TRIPOS>ATOM
      1  C          6.1030    1.4840    1.1090 C.3     1  UNL1        0.0800
      2  C          5.5610    0.4100    1.9860 C.2     1  UNL1        0.1300
      3  C          6.3530   -0.8060    2.3120 C.3     1  UNL1        0.0870
      4  O          4.4420    0.4980    2.4660 O.2     1  UNL1       -0.3000
      5  C          5.7730    1.2250   -0.3480 C.3     1  UNL1        0.0430
      6  C          6.8830    0.5570   -1.0490 C.2     1  UNL1       -0.0440
      7  C          8.1900    1.0560   -0.9970 C.2     1  UNL1        0.0080
      8  C          6.6420   -0.5880   -1.7750 C.2     1  UNL1        0.0540
      9  C          9.1920    0.3860   -1.6750 C.2     1  UNL1        0.0510
     10  C          7.6580   -1.2620   -2.4580 C.2     1  UNL1        0.1660
     11  C          8.9440   -0.7710   -2.4080 C.2     1  UNL1        0.1650
     12  O          7.6730   -2.3990   -3.2370 O.2     1  UNL1       -0.4540
     13  O          9.7300   -1.6260   -3.1640 O.2     1  UNL1       -0.4540
     14  C          8.9810   -2.7230   -3.6320 C.3     1  UNL1        0.4680
@<TRIPOS>BOND
     1    14    12    1
     2    14    13    1
     3    12    10    1
     4    13    11    1
     5    10    11    2
     6    10     8    1
     7    11     9    1
     8     8     6    2
     9     9     7    2
    10     6     7    1
    11     6     5    1
    12     5     1    1
    13     1     2    1
    14     2     3    1
    15     2     4    2
