MODEL 1
REMARK VINA RESULT:      -8.0      0.000      0.000
REMARK SMILES CC(=O)CCc1ccc2c(c1)OCO2
REMARK SMILES IDX 4 1 2 2 1 3 3 4 5 5 6 6 7 7 11 8 8 9 10 10 9 11 12 12 14 13
REMARK SMILES IDX 13 14
REMARK H PARENT
REMARK Flexibility Score: inf
ROOT
ATOM      1  C   UNL     1       6.103   1.484   1.109  1.00  0.00     0.080 C 
ENDROOT
BRANCH   1   2
ATOM      2  C   UNL     1       5.561   0.410   1.986  1.00  0.00     0.130 C 
ATOM      3  C   UNL     1       6.353  -0.806   2.312  1.00  0.00     0.087 C 
ATOM      4  O   UNL     1       4.442   0.498   2.466  1.00  0.00    -0.300 OA
ENDBRANCH   1   2
BRANCH   1   5
ATOM      5  C   UNL     1       5.773   1.225  -0.348  1.00  0.00     0.043 C 
BRANCH   5   6
ATOM      6  C   UNL     1       6.883   0.557  -1.049  1.00  0.00    -0.044 A 
ATOM      7  C   UNL     1       8.190   1.056  -0.997  1.00  0.00     0.008 A 
ATOM      8  C   UNL     1       6.642  -0.588  -1.775  1.00  0.00     0.054 A 
ATOM      9  C   UNL     1       9.192   0.386  -1.675  1.00  0.00     0.051 A 
ATOM     10  C   UNL     1       7.658  -1.262  -2.458  1.00  0.00     0.166 A 
ATOM     11  C   UNL     1       8.944  -0.771  -2.408  1.00  0.00     0.165 A 
ATOM     12  O   UNL     1       7.673  -2.399  -3.237  1.00  0.00    -0.454 OA
ATOM     13  O   UNL     1       9.730  -1.626  -3.164  1.00  0.00    -0.454 OA
ATOM     14  C   UNL     1       8.981  -2.723  -3.632  1.00  0.00     0.468 C 
ENDBRANCH   5   6
ENDBRANCH   1   5
TORSDOF 3
ENDMDL
MODEL 2
REMARK VINA RESULT:      -7.5      1.171      1.462
REMARK SMILES CC(=O)CCc1ccc2c(c1)OCO2
REMARK SMILES IDX 4 1 2 2 1 3 3 4 5 5 6 6 7 7 11 8 8 9 10 10 9 11 12 12 14 13
REMARK SMILES IDX 13 14
REMARK H PARENT
REMARK Flexibility Score: inf
ROOT
ATOM      1  C   UNL     1       5.878   1.105  -0.379  1.00  0.00     0.080 C 
ENDROOT
BRANCH   1   2
ATOM      2  C   UNL     1       5.319   1.070   1.001  1.00  0.00     0.130 C 
ATOM      3  C   UNL     1       5.606  -0.055   1.931  1.00  0.00     0.087 C 
ATOM      4  O   UNL     1       4.604   1.970   1.410  1.00  0.00    -0.300 OA
ENDBRANCH   1   2
BRANCH   1   5
ATOM      5  C   UNL     1       7.393   1.053  -0.361  1.00  0.00     0.043 C 
BRANCH   5   6
ATOM      6  C   UNL     1       7.921   0.135  -1.386  1.00  0.00    -0.044 A 
ATOM      7  C   UNL     1       8.596   0.609  -2.517  1.00  0.00     0.008 A 
ATOM      8  C   UNL     1       7.754  -1.223  -1.237  1.00  0.00     0.054 A 
ATOM      9  C   UNL     1       9.070  -0.300  -3.446  1.00  0.00     0.051 A 
ATOM     10  C   UNL     1       8.236  -2.138  -2.178  1.00  0.00     0.166 A 
ATOM     11  C   UNL     1       8.899  -1.673  -3.291  1.00  0.00     0.165 A 
ATOM     12  O   UNL     1       8.197  -3.514  -2.256  1.00  0.00    -0.454 OA
ATOM     13  O   UNL     1       9.258  -2.784  -4.038  1.00  0.00    -0.454 OA
ATOM     14  C   UNL     1       8.912  -3.976  -3.373  1.00  0.00     0.468 C 
ENDBRANCH   5   6
ENDBRANCH   1   5
TORSDOF 3
ENDMDL
MODEL 3
REMARK VINA RESULT:      -7.3      1.277      1.804
REMARK SMILES CC(=O)CCc1ccc2c(c1)OCO2
REMARK SMILES IDX 4 1 2 2 1 3 3 4 5 5 6 6 7 7 11 8 8 9 10 10 9 11 12 12 14 13
REMARK SMILES IDX 13 14
REMARK H PARENT
REMARK Flexibility Score: inf
ROOT
ATOM      1  C   UNL     1       6.342  -0.054   0.383  1.00  0.00     0.080 C 
ENDROOT
BRANCH   1   2
ATOM      2  C   UNL     1       5.452   0.837   1.177  1.00  0.00     0.130 C 
ATOM      3  C   UNL     1       4.987   2.148   0.649  1.00  0.00     0.087 C 
ATOM      4  O   UNL     1       5.076   0.516   2.293  1.00  0.00    -0.300 OA
ENDBRANCH   1   2
BRANCH   1   5
ATOM      5  C   UNL     1       6.998   0.697  -0.758  1.00  0.00     0.043 C 
BRANCH   5   6
ATOM      6  C   UNL     1       7.689  -0.215  -1.687  1.00  0.00    -0.044 A 
ATOM      7  C   UNL     1       8.410   0.266  -2.786  1.00  0.00     0.008 A 
ATOM      8  C   UNL     1       7.634  -1.574  -1.477  1.00  0.00     0.054 A 
ATOM      9  C   UNL     1       9.039  -0.637  -3.624  1.00  0.00     0.051 A 
ATOM     10  C   UNL     1       8.272  -2.483  -2.326  1.00  0.00     0.166 A 
ATOM     11  C   UNL     1       8.980  -2.010  -3.408  1.00  0.00     0.165 A 
ATOM     12  O   UNL     1       8.364  -3.859  -2.331  1.00  0.00    -0.454 OA
ATOM     13  O   UNL     1       9.499  -3.117  -4.062  1.00  0.00    -0.454 OA
ATOM     14  C   UNL     1       9.208  -4.303  -3.362  1.00  0.00     0.468 C 
ENDBRANCH   5   6
ENDBRANCH   1   5
TORSDOF 3
ENDMDL
MODEL 4
REMARK VINA RESULT:      -7.3      1.013      1.524
REMARK SMILES CC(=O)CCc1ccc2c(c1)OCO2
REMARK SMILES IDX 4 1 2 2 1 3 3 4 5 5 6 6 7 7 11 8 8 9 10 10 9 11 12 12 14 13
REMARK SMILES IDX 13 14
REMARK H PARENT
REMARK Flexibility Score: inf
ROOT
ATOM      1  C   UNL     1       5.818  -0.472   1.590  1.00  0.00     0.080 C 
ENDROOT
BRANCH   1   2
ATOM      2  C   UNL     1       4.951   0.733   1.707  1.00  0.00     0.130 C 
ATOM      3  C   UNL     1       5.099   1.893   0.788  1.00  0.00     0.087 C 
ATOM      4  O   UNL     1       4.088   0.803   2.567  1.00  0.00    -0.300 OA
ENDBRANCH   1   2
BRANCH   1   5
ATOM      5  C   UNL     1       7.277  -0.088   1.438  1.00  0.00     0.043 C 
BRANCH   5   6
ATOM      6  C   UNL     1       7.754  -0.288   0.058  1.00  0.00    -0.044 A 
ATOM      7  C   UNL     1       8.378   0.741  -0.658  1.00  0.00     0.008 A 
ATOM      8  C   UNL     1       7.588  -1.511  -0.551  1.00  0.00     0.054 A 
ATOM      9  C   UNL     1       8.805   0.495  -1.950  1.00  0.00     0.051 A 
ATOM     10  C   UNL     1       8.023  -1.754  -1.857  1.00  0.00     0.166 A 
ATOM     11  C   UNL     1       8.636  -0.743  -2.563  1.00  0.00     0.165 A 
ATOM     12  O   UNL     1       7.975  -2.866  -2.672  1.00  0.00    -0.454 OA
ATOM     13  O   UNL     1       8.956  -1.260  -3.808  1.00  0.00    -0.454 OA
ATOM     14  C   UNL     1       8.637  -2.629  -3.888  1.00  0.00     0.468 C 
ENDBRANCH   5   6
ENDBRANCH   1   5
TORSDOF 3
ENDMDL
MODEL 5
REMARK VINA RESULT:      -7.3      1.041      2.035
REMARK SMILES CC(=O)CCc1ccc2c(c1)OCO2
REMARK SMILES IDX 4 1 2 2 1 3 3 4 5 5 6 6 7 7 11 8 8 9 10 10 9 11 12 12 14 13
REMARK SMILES IDX 13 14
REMARK H PARENT
REMARK Flexibility Score: inf
ROOT
ATOM      1  C   UNL     1       6.047   1.397   1.192  1.00  0.00     0.080 C 
ENDROOT
BRANCH   1   2
ATOM      2  C   UNL     1       5.490   0.299   2.030  1.00  0.00     0.130 C 
ATOM      3  C   UNL     1       6.270  -0.934   2.320  1.00  0.00     0.087 C 
ATOM      4  O   UNL     1       4.369   0.381   2.505  1.00  0.00    -0.300 OA
ENDBRANCH   1   2
BRANCH   1   5
ATOM      5  C   UNL     1       5.686   1.213  -0.269  1.00  0.00     0.043 C 
BRANCH   5   6
ATOM      6  C   UNL     1       6.783   0.585  -1.028  1.00  0.00    -0.044 A 
ATOM      7  C   UNL     1       6.600  -0.618  -1.719  1.00  0.00     0.008 A 
ATOM      8  C   UNL     1       8.019   1.189  -1.066  1.00  0.00     0.054 A 
ATOM      9  C   UNL     1       7.665  -1.160  -2.415  1.00  0.00     0.051 A 
ATOM     10  C   UNL     1       9.092   0.637  -1.771  1.00  0.00     0.166 A 
ATOM     11  C   UNL     1       8.914  -0.547  -2.451  1.00  0.00     0.165 A 
ATOM     12  O   UNL     1      10.398   1.037  -1.959  1.00  0.00    -0.454 OA
ATOM     13  O   UNL     1      10.127  -0.853  -3.050  1.00  0.00    -0.454 OA
ATOM     14  C   UNL     1      11.070   0.171  -2.838  1.00  0.00     0.468 C 
ENDBRANCH   5   6
ENDBRANCH   1   5
TORSDOF 3
ENDMDL
