MODEL 1
REMARK VINA RESULT:      -7.7      0.000      0.000
REMARK SMILES CC(=O)CCc1ccc2c(c1)OCO2
REMARK SMILES IDX 4 1 2 2 1 3 3 4 5 5 6 6 7 7 11 8 8 9 10 10 9 11 12 12 14 13
REMARK SMILES IDX 13 14
REMARK H PARENT
REMARK Flexibility Score: inf
ROOT
ATOM      1  C   UNL     1       5.526   1.916   1.265  1.00  0.00     0.080 C 
ENDROOT
BRANCH   1   2
ATOM      2  C   UNL     1       5.081   0.702   2.004  1.00  0.00     0.130 C 
ATOM      3  C   UNL     1       5.971  -0.478   2.175  1.00  0.00     0.087 C 
ATOM      4  O   UNL     1       3.966   0.641   2.495  1.00  0.00    -0.300 OA
ENDBRANCH   1   2
BRANCH   1   5
ATOM      5  C   UNL     1       5.400   1.725  -0.234  1.00  0.00     0.043 C 
BRANCH   5   6
ATOM      6  C   UNL     1       6.568   1.025  -0.796  1.00  0.00    -0.044 A 
ATOM      7  C   UNL     1       7.875   1.458  -0.541  1.00  0.00     0.008 A 
ATOM      8  C   UNL     1       6.382  -0.084  -1.590  1.00  0.00     0.054 A 
ATOM      9  C   UNL     1       8.933   0.761  -1.096  1.00  0.00     0.051 A 
ATOM     10  C   UNL     1       7.455  -0.786  -2.148  1.00  0.00     0.166 A 
ATOM     11  C   UNL     1       8.741  -0.360  -1.899  1.00  0.00     0.165 A 
ATOM     12  O   UNL     1       7.531  -1.899  -2.958  1.00  0.00    -0.454 OA
ATOM     13  O   UNL     1       9.588  -1.230  -2.567  1.00  0.00    -0.454 OA
ATOM     14  C   UNL     1       8.867  -2.273  -3.177  1.00  0.00     0.468 C 
ENDBRANCH   5   6
ENDBRANCH   1   5
TORSDOF 3
ENDMDL
MODEL 2
REMARK VINA RESULT:      -7.5      1.926      2.379
REMARK SMILES CC(=O)CCc1ccc2c(c1)OCO2
REMARK SMILES IDX 4 1 2 2 1 3 3 4 5 5 6 6 7 7 11 8 8 9 10 10 9 11 12 12 14 13
REMARK SMILES IDX 13 14
REMARK H PARENT
REMARK Flexibility Score: inf
ROOT
ATOM      1  C   UNL     1       5.741   1.362  -0.266  1.00  0.00     0.080 C 
ENDROOT
BRANCH   1   2
ATOM      2  C   UNL     1       5.116   1.265   1.083  1.00  0.00     0.130 C 
ATOM      3  C   UNL     1       5.360   0.098   1.974  1.00  0.00     0.087 C 
ATOM      4  O   UNL     1       4.382   2.146   1.499  1.00  0.00    -0.300 OA
ENDBRANCH   1   2
BRANCH   1   5
ATOM      5  C   UNL     1       7.234   1.110  -0.201  1.00  0.00     0.043 C 
BRANCH   5   6
ATOM      6  C   UNL     1       7.598  -0.177  -0.821  1.00  0.00    -0.044 A 
ATOM      7  C   UNL     1       7.636  -0.336  -2.211  1.00  0.00     0.008 A 
ATOM      8  C   UNL     1       7.912  -1.253  -0.023  1.00  0.00     0.054 A 
ATOM      9  C   UNL     1       7.986  -1.566  -2.736  1.00  0.00     0.051 A 
ATOM     10  C   UNL     1       8.266  -2.495  -0.559  1.00  0.00     0.166 A 
ATOM     11  C   UNL     1       8.302  -2.653  -1.927  1.00  0.00     0.165 A 
ATOM     12  O   UNL     1       8.615  -3.701   0.013  1.00  0.00    -0.454 OA
ATOM     13  O   UNL     1       8.678  -3.965  -2.169  1.00  0.00    -0.454 OA
ATOM     14  C   UNL     1       8.974  -4.639  -0.969  1.00  0.00     0.468 C 
ENDBRANCH   5   6
ENDBRANCH   1   5
TORSDOF 3
ENDMDL
MODEL 3
REMARK VINA RESULT:      -7.2      2.055      2.636
REMARK SMILES CC(=O)CCc1ccc2c(c1)OCO2
REMARK SMILES IDX 4 1 2 2 1 3 3 4 5 5 6 6 7 7 11 8 8 9 10 10 9 11 12 12 14 13
REMARK SMILES IDX 13 14
REMARK H PARENT
REMARK Flexibility Score: inf
ROOT
ATOM      1  C   UNL     1       5.387  -0.088   2.010  1.00  0.00     0.080 C 
ENDROOT
BRANCH   1   2
ATOM      2  C   UNL     1       4.571   1.136   1.775  1.00  0.00     0.130 C 
ATOM      3  C   UNL     1       4.932   2.124   0.723  1.00  0.00     0.087 C 
ATOM      4  O   UNL     1       3.577   1.365   2.444  1.00  0.00    -0.300 OA
ENDBRANCH   1   2
BRANCH   1   5
ATOM      5  C   UNL     1       6.839   0.138   1.637  1.00  0.00     0.043 C 
BRANCH   5   6
ATOM      6  C   UNL     1       7.273  -0.769   0.560  1.00  0.00    -0.044 A 
ATOM      7  C   UNL     1       7.152  -0.417  -0.789  1.00  0.00     0.008 A 
ATOM      8  C   UNL     1       7.816  -1.994   0.877  1.00  0.00     0.054 A 
ATOM      9  C   UNL     1       7.578  -1.308  -1.756  1.00  0.00     0.051 A 
ATOM     10  C   UNL     1       8.246  -2.892  -0.105  1.00  0.00     0.166 A 
ATOM     11  C   UNL     1       8.125  -2.546  -1.433  1.00  0.00     0.165 A 
ATOM     12  O   UNL     1       8.808  -4.149  -0.048  1.00  0.00    -0.454 OA
ATOM     13  O   UNL     1       8.623  -3.608  -2.170  1.00  0.00    -0.454 OA
ATOM     14  C   UNL     1       9.150  -4.608  -1.330  1.00  0.00     0.468 C 
ENDBRANCH   5   6
ENDBRANCH   1   5
TORSDOF 3
ENDMDL
MODEL 4
REMARK VINA RESULT:      -7.1      1.255      1.471
REMARK SMILES CC(=O)CCc1ccc2c(c1)OCO2
REMARK SMILES IDX 4 1 2 2 1 3 3 4 5 5 6 6 7 7 11 8 8 9 10 10 9 11 12 12 14 13
REMARK SMILES IDX 13 14
REMARK H PARENT
REMARK Flexibility Score: inf
ROOT
ATOM      1  C   UNL     1       6.376   1.195   0.922  1.00  0.00     0.080 C 
ENDROOT
BRANCH   1   2
ATOM      2  C   UNL     1       5.660   0.378   1.941  1.00  0.00     0.130 C 
ATOM      3  C   UNL     1       6.264  -0.850   2.523  1.00  0.00     0.087 C 
ATOM      4  O   UNL     1       4.547   0.696   2.330  1.00  0.00    -0.300 OA
ENDBRANCH   1   2
BRANCH   1   5
ATOM      5  C   UNL     1       5.862   0.907  -0.475  1.00  0.00     0.043 C 
BRANCH   5   6
ATOM      6  C   UNL     1       6.813   0.088  -1.248  1.00  0.00    -0.044 A 
ATOM      7  C   UNL     1       7.495   0.606  -2.355  1.00  0.00     0.008 A 
ATOM      8  C   UNL     1       7.045  -1.218  -0.881  1.00  0.00     0.054 A 
ATOM      9  C   UNL     1       8.376  -0.209  -3.042  1.00  0.00     0.051 A 
ATOM     10  C   UNL     1       7.937  -2.038  -1.579  1.00  0.00     0.166 A 
ATOM     11  C   UNL     1       8.608  -1.529  -2.668  1.00  0.00     0.165 A 
ATOM     12  O   UNL     1       8.334  -3.348  -1.415  1.00  0.00    -0.454 OA
ATOM     13  O   UNL     1       9.412  -2.547  -3.156  1.00  0.00    -0.454 OA
ATOM     14  C   UNL     1       9.337  -3.690  -2.337  1.00  0.00     0.468 C 
ENDBRANCH   5   6
ENDBRANCH   1   5
TORSDOF 3
ENDMDL
MODEL 5
REMARK VINA RESULT:      -6.8      1.187      5.173
REMARK SMILES CC(=O)CCc1ccc2c(c1)OCO2
REMARK SMILES IDX 4 1 2 2 1 3 3 4 5 5 6 6 7 7 11 8 8 9 10 10 9 11 12 12 14 13
REMARK SMILES IDX 13 14
REMARK H PARENT
REMARK Flexibility Score: inf
ROOT
ATOM      1  C   UNL     1       8.328   0.220  -2.621  1.00  0.00     0.080 C 
ENDROOT
BRANCH   1   2
ATOM      2  C   UNL     1       8.016  -1.234  -2.718  1.00  0.00     0.130 C 
ATOM      3  C   UNL     1       9.071  -2.241  -3.011  1.00  0.00     0.087 C 
ATOM      4  O   UNL     1       6.877  -1.642  -2.560  1.00  0.00    -0.300 OA
ENDBRANCH   1   2
BRANCH   1   5
ATOM      5  C   UNL     1       8.841   0.582  -1.242  1.00  0.00     0.043 C 
BRANCH   5   6
ATOM      6  C   UNL     1       7.794   0.437  -0.214  1.00  0.00    -0.044 A 
ATOM      7  C   UNL     1       7.882  -0.534   0.790  1.00  0.00     0.008 A 
ATOM      8  C   UNL     1       6.700   1.272  -0.232  1.00  0.00     0.054 A 
ATOM      9  C   UNL     1       6.870  -0.623   1.729  1.00  0.00     0.051 A 
ATOM     10  C   UNL     1       5.680   1.179   0.719  1.00  0.00     0.166 A 
ATOM     11  C   UNL     1       5.765   0.223   1.707  1.00  0.00     0.165 A 
ATOM     12  O   UNL     1       4.509   1.880   0.913  1.00  0.00    -0.454 OA
ATOM     13  O   UNL     1       4.634   0.359   2.496  1.00  0.00    -0.454 OA
ATOM     14  C   UNL     1       3.855   1.457   2.082  1.00  0.00     0.468 C 
ENDBRANCH   5   6
ENDBRANCH   1   5
TORSDOF 3
ENDMDL
