@<TRIPOS>MOLECULE
/home/cewinharhar/GITHUB/reincatalyze/data/processed/docking_pred/2023-May-25-1902_sub9_nm5_bs15_s42_ex16_mel10_mts10000_k50_ec01_g099_lra3e-4_lrc3e-3/64ade7361adfbcba1ebdf367c3e16aacabd62181_ligand_9.pdbqt
 14 15 0 0 0
SMALL
GASTEIGER

@<TRIPOS>ATOM
      1  C          5.5260    1.9160    1.2650 C.3     1  UNL1        0.0800
      2  C          5.0810    0.7020    2.0040 C.2     1  UNL1        0.1300
      3  C          5.9710   -0.4780    2.1750 C.3     1  UNL1        0.0870
      4  O          3.9660    0.6410    2.4950 O.2     1  UNL1       -0.3000
      5  C          5.4000    1.7250   -0.2340 C.3     1  UNL1        0.0430
      6  C          6.5680    1.0250   -0.7960 C.2     1  UNL1       -0.0440
      7  C          7.8750    1.4580   -0.5410 C.2     1  UNL1        0.0080
      8  C          6.3820   -0.0840   -1.5900 C.2     1  UNL1        0.0540
      9  C          8.9330    0.7610   -1.0960 C.2     1  UNL1        0.0510
     10  C          7.4550   -0.7860   -2.1480 C.2     1  UNL1        0.1660
     11  C          8.7410   -0.3600   -1.8990 C.2     1  UNL1        0.1650
     12  O          7.5310   -1.8990   -2.9580 O.2     1  UNL1       -0.4540
     13  O          9.5880   -1.2300   -2.5670 O.2     1  UNL1       -0.4540
     14  C          8.8670   -2.2730   -3.1770 C.3     1  UNL1        0.4680
@<TRIPOS>BOND
     1    14    12    1
     2    14    13    1
     3    12    10    1
     4    13    11    1
     5    10    11    2
     6    10     8    1
     7    11     9    1
     8     8     6    2
     9     9     7    2
    10     6     7    1
    11     6     5    1
    12     5     1    1
    13     1     2    1
    14     2     3    1
    15     2     4    2
