@<TRIPOS>MOLECULE
/home/cewinharhar/GITHUB/reincatalyze/data/processed/docking_pred/2023-May-25-1902_sub9_nm5_bs15_s42_ex16_mel10_mts10000_k50_ec01_g099_lra3e-4_lrc3e-3/64ade7361adfbcba1ebdf367c3e16aacabd62181_ligand_9.pdbqt
 14 15 0 0 0
SMALL
GASTEIGER

@<TRIPOS>ATOM
      1  C          8.3280    0.2200   -2.6210 C.3     1  UNL1        0.0800
      2  C          8.0160   -1.2340   -2.7180 C.2     1  UNL1        0.1300
      3  C          9.0710   -2.2410   -3.0110 C.3     1  UNL1        0.0870
      4  O          6.8770   -1.6420   -2.5600 O.2     1  UNL1       -0.3000
      5  C          8.8410    0.5820   -1.2420 C.3     1  UNL1        0.0430
      6  C          7.7940    0.4370   -0.2140 C.2     1  UNL1       -0.0440
      7  C          7.8820   -0.5340    0.7900 C.2     1  UNL1        0.0080
      8  C          6.7000    1.2720   -0.2320 C.2     1  UNL1        0.0540
      9  C          6.8700   -0.6230    1.7290 C.2     1  UNL1        0.0510
     10  C          5.6800    1.1790    0.7190 C.2     1  UNL1        0.1660
     11  C          5.7650    0.2230    1.7070 C.2     1  UNL1        0.1650
     12  O          4.5090    1.8800    0.9130 O.2     1  UNL1       -0.4540
     13  O          4.6340    0.3590    2.4960 O.2     1  UNL1       -0.4540
     14  C          3.8550    1.4570    2.0820 C.3     1  UNL1        0.4680
@<TRIPOS>BOND
     1     3     2    1
     2     2     1    1
     3     2     4    2
     4     1     5    1
     5     5     6    1
     6     8     6    2
     7     8    10    1
     8     6     7    1
     9    10    12    1
    10    10    11    2
    11     7     9    2
    12    12    14    1
    13    11     9    1
    14    11    13    1
    15    14    13    1
