@<TRIPOS>MOLECULE
/home/cewinharhar/GITHUB/reincatalyze/data/processed/docking_pred/2023-May-25-1902_sub9_nm5_bs15_s42_ex16_mel10_mts10000_k50_ec01_g099_lra3e-4_lrc3e-3/650932a4c96e02f0afcc120cab6b741f416c7ae8_ligand_9.pdbqt
 14 15 0 0 0
SMALL
GASTEIGER

@<TRIPOS>ATOM
      1  C          6.3390    1.2390    0.9270 C.3     1  UNL1        0.0800
      2  C          5.6410    0.4020    1.9430 C.2     1  UNL1        0.1300
      3  C          6.2770   -0.8100    2.5260 C.3     1  UNL1        0.0870
      4  O          4.5190    0.6890    2.3270 O.2     1  UNL1       -0.3000
      5  C          5.8300    0.9480   -0.4700 C.3     1  UNL1        0.0430
      6  C          6.7830    0.1300   -1.2400 C.2     1  UNL1       -0.0440
      7  C          7.4700    0.6480   -2.3440 C.2     1  UNL1        0.0080
      8  C          7.0130   -1.1760   -0.8720 C.2     1  UNL1        0.0540
      9  C          8.3540   -0.1670   -3.0280 C.2     1  UNL1        0.0510
     10  C          7.9080   -1.9960   -1.5670 C.2     1  UNL1        0.1660
     11  C          8.5830   -1.4880   -2.6530 C.2     1  UNL1        0.1650
     12  O          8.3030   -3.3070   -1.4020 O.2     1  UNL1       -0.4540
     13  O          9.3890   -2.5060   -3.1380 O.2     1  UNL1       -0.4540
     14  C          9.3100   -3.6490   -2.3190 C.3     1  UNL1        0.4680
@<TRIPOS>BOND
     1    13    11    1
     2    13    14    1
     3     9    11    2
     4     9     7    1
     5    11    10    1
     6     7     6    2
     7    14    12    1
     8    10    12    1
     9    10     8    2
    10     6     8    1
    11     6     5    1
    12     5     1    1
    13     1     2    1
    14     2     4    2
    15     2     3    1
