@<TRIPOS>MOLECULE
/home/cewinharhar/GITHUB/reincatalyze/data/processed/docking_pred/2023-May-25-1902_sub9_nm5_bs15_s42_ex16_mel10_mts10000_k50_ec01_g099_lra3e-4_lrc3e-3/650932a4c96e02f0afcc120cab6b741f416c7ae8_ligand_9.pdbqt
 14 15 0 0 0
SMALL
GASTEIGER

@<TRIPOS>ATOM
      1  C          5.7760    1.3340   -0.2950 C.3     1  UNL1        0.0800
      2  C          5.1460    1.2500    1.0520 C.2     1  UNL1        0.1300
      3  C          5.3560    0.0750    1.9400 C.3     1  UNL1        0.0870
      4  O          4.4350    2.1490    1.4680 O.2     1  UNL1       -0.3000
      5  C          7.2650    1.0570   -0.2250 C.3     1  UNL1        0.0430
      6  C          7.6110   -0.2340   -0.8460 C.2     1  UNL1       -0.0440
      7  C          7.6280   -0.3980   -2.2360 C.2     1  UNL1        0.0080
      8  C          7.9280   -1.3110   -0.0500 C.2     1  UNL1        0.0540
      9  C          7.9610   -1.6330   -2.7620 C.2     1  UNL1        0.0510
     10  C          8.2650   -2.5570   -0.5860 C.2     1  UNL1        0.1660
     11  C          8.2810   -2.7190   -1.9540 C.2     1  UNL1        0.1650
     12  O          8.6130   -3.7630   -0.0160 O.2     1  UNL1       -0.4540
     13  O          8.6440   -4.0350   -2.1970 O.2     1  UNL1       -0.4540
     14  C          8.9520   -4.7070   -0.9990 C.3     1  UNL1        0.4680
@<TRIPOS>BOND
     1     9     7    1
     2     9    11    2
     3     7     6    2
     4    13    11    1
     5    13    14    1
     6    11    10    1
     7    14    12    1
     8     6     5    1
     9     6     8    1
    10    10     8    2
    11    10    12    1
    12     1     5    1
    13     1     2    1
    14     2     4    2
    15     2     3    1
