MODEL 1
REMARK VINA RESULT:      -7.7      0.000      0.000
REMARK SMILES CC(=O)CCc1ccc2c(c1)OCO2
REMARK SMILES IDX 4 1 2 2 1 3 3 4 5 5 6 6 7 7 11 8 8 9 10 10 9 11 12 12 14 13
REMARK SMILES IDX 13 14
REMARK H PARENT
REMARK Flexibility Score: inf
ROOT
ATOM      1  C   UNL     1       5.491   1.904   1.253  1.00  0.00     0.080 C 
ENDROOT
BRANCH   1   2
ATOM      2  C   UNL     1       5.006   0.708   1.996  1.00  0.00     0.130 C 
ATOM      3  C   UNL     1       5.816  -0.536   2.087  1.00  0.00     0.087 C 
ATOM      4  O   UNL     1       3.921   0.714   2.554  1.00  0.00    -0.300 OA
ENDBRANCH   1   2
BRANCH   1   5
ATOM      5  C   UNL     1       5.372   1.707  -0.246  1.00  0.00     0.043 C 
BRANCH   5   6
ATOM      6  C   UNL     1       6.549   1.016  -0.801  1.00  0.00    -0.044 A 
ATOM      7  C   UNL     1       7.851   1.457  -0.535  1.00  0.00     0.008 A 
ATOM      8  C   UNL     1       6.376  -0.091  -1.600  1.00  0.00     0.054 A 
ATOM      9  C   UNL     1       8.917   0.767  -1.084  1.00  0.00     0.051 A 
ATOM     10  C   UNL     1       7.457  -0.785  -2.151  1.00  0.00     0.166 A 
ATOM     11  C   UNL     1       8.739  -0.352  -1.891  1.00  0.00     0.165 A 
ATOM     12  O   UNL     1       7.546  -1.895  -2.964  1.00  0.00    -0.454 OA
ATOM     13  O   UNL     1       9.596  -1.214  -2.556  1.00  0.00    -0.454 OA
ATOM     14  C   UNL     1       8.886  -2.261  -3.173  1.00  0.00     0.468 C 
ENDBRANCH   5   6
ENDBRANCH   1   5
TORSDOF 3
ENDMDL
MODEL 2
REMARK VINA RESULT:      -7.5      1.924      2.383
REMARK SMILES CC(=O)CCc1ccc2c(c1)OCO2
REMARK SMILES IDX 4 1 2 2 1 3 3 4 5 5 6 6 7 7 11 8 8 9 10 10 9 11 12 12 14 13
REMARK SMILES IDX 13 14
REMARK H PARENT
REMARK Flexibility Score: inf
ROOT
ATOM      1  C   UNL     1       5.753   1.399  -0.324  1.00  0.00     0.080 C 
ENDROOT
BRANCH   1   2
ATOM      2  C   UNL     1       5.098   1.309   1.011  1.00  0.00     0.130 C 
ATOM      3  C   UNL     1       5.401   0.202   1.957  1.00  0.00     0.087 C 
ATOM      4  O   UNL     1       4.288   2.149   1.369  1.00  0.00    -0.300 OA
ENDBRANCH   1   2
BRANCH   1   5
ATOM      5  C   UNL     1       7.242   1.133  -0.225  1.00  0.00     0.043 C 
BRANCH   5   6
ATOM      6  C   UNL     1       7.608  -0.157  -0.838  1.00  0.00    -0.044 A 
ATOM      7  C   UNL     1       7.671  -0.317  -2.227  1.00  0.00     0.008 A 
ATOM      8  C   UNL     1       7.901  -1.235  -0.034  1.00  0.00     0.054 A 
ATOM      9  C   UNL     1       8.021  -1.551  -2.744  1.00  0.00     0.051 A 
ATOM     10  C   UNL     1       8.255  -2.480  -0.562  1.00  0.00     0.166 A 
ATOM     11  C   UNL     1       8.316  -2.639  -1.929  1.00  0.00     0.165 A 
ATOM     12  O   UNL     1       8.586  -3.687   0.017  1.00  0.00    -0.454 OA
ATOM     13  O   UNL     1       8.687  -3.954  -2.163  1.00  0.00    -0.454 OA
ATOM     14  C   UNL     1       8.956  -4.628  -0.957  1.00  0.00     0.468 C 
ENDBRANCH   5   6
ENDBRANCH   1   5
TORSDOF 3
ENDMDL
MODEL 3
REMARK VINA RESULT:      -7.2      2.100      2.622
REMARK SMILES CC(=O)CCc1ccc2c(c1)OCO2
REMARK SMILES IDX 4 1 2 2 1 3 3 4 5 5 6 6 7 7 11 8 8 9 10 10 9 11 12 12 14 13
REMARK SMILES IDX 13 14
REMARK H PARENT
REMARK Flexibility Score: inf
ROOT
ATOM      1  C   UNL     1       5.603   0.012   1.952  1.00  0.00     0.080 C 
ENDROOT
BRANCH   1   2
ATOM      2  C   UNL     1       4.699   1.149   1.624  1.00  0.00     0.130 C 
ATOM      3  C   UNL     1       4.997   2.087   0.509  1.00  0.00     0.087 C 
ATOM      4  O   UNL     1       3.680   1.345   2.267  1.00  0.00    -0.300 OA
ENDBRANCH   1   2
BRANCH   1   5
ATOM      5  C   UNL     1       7.012   0.267   1.453  1.00  0.00     0.043 C 
BRANCH   5   6
ATOM      6  C   UNL     1       7.408  -0.701   0.415  1.00  0.00    -0.044 A 
ATOM      7  C   UNL     1       7.304  -0.398  -0.947  1.00  0.00     0.008 A 
ATOM      8  C   UNL     1       7.896  -1.934   0.783  1.00  0.00     0.054 A 
ATOM      9  C   UNL     1       7.692  -1.346  -1.877  1.00  0.00     0.051 A 
ATOM     10  C   UNL     1       8.287  -2.889  -0.161  1.00  0.00     0.166 A 
ATOM     11  C   UNL     1       8.184  -2.592  -1.501  1.00  0.00     0.165 A 
ATOM     12  O   UNL     1       8.794  -4.166  -0.050  1.00  0.00    -0.454 OA
ATOM     13  O   UNL     1       8.635  -3.705  -2.194  1.00  0.00    -0.454 OA
ATOM     14  C   UNL     1       9.117  -4.691  -1.312  1.00  0.00     0.468 C 
ENDBRANCH   5   6
ENDBRANCH   1   5
TORSDOF 3
ENDMDL
MODEL 4
REMARK VINA RESULT:      -7.1      1.253      1.463
REMARK SMILES CC(=O)CCc1ccc2c(c1)OCO2
REMARK SMILES IDX 4 1 2 2 1 3 3 4 5 5 6 6 7 7 11 8 8 9 10 10 9 11 12 12 14 13
REMARK SMILES IDX 13 14
REMARK H PARENT
REMARK Flexibility Score: inf
ROOT
ATOM      1  C   UNL     1       6.349   1.246   0.867  1.00  0.00     0.080 C 
ENDROOT
BRANCH   1   2
ATOM      2  C   UNL     1       5.661   0.434   1.909  1.00  0.00     0.130 C 
ATOM      3  C   UNL     1       6.279  -0.794   2.476  1.00  0.00     0.087 C 
ATOM      4  O   UNL     1       4.562   0.757   2.330  1.00  0.00    -0.300 OA
ENDBRANCH   1   2
BRANCH   1   5
ATOM      5  C   UNL     1       5.836   0.911  -0.520  1.00  0.00     0.043 C 
BRANCH   5   6
ATOM      6  C   UNL     1       6.803   0.097  -1.278  1.00  0.00    -0.044 A 
ATOM      7  C   UNL     1       7.520   0.628  -2.357  1.00  0.00     0.008 A 
ATOM      8  C   UNL     1       7.016  -1.215  -0.924  1.00  0.00     0.054 A 
ATOM      9  C   UNL     1       8.415  -0.183  -3.031  1.00  0.00     0.051 A 
ATOM     10  C   UNL     1       7.923  -2.031  -1.608  1.00  0.00     0.166 A 
ATOM     11  C   UNL     1       8.627  -1.510  -2.671  1.00  0.00     0.165 A 
ATOM     12  O   UNL     1       8.306  -3.346  -1.453  1.00  0.00    -0.454 OA
ATOM     13  O   UNL     1       9.438  -2.527  -3.151  1.00  0.00    -0.454 OA
ATOM     14  C   UNL     1       9.333  -3.681  -2.351  1.00  0.00     0.468 C 
ENDBRANCH   5   6
ENDBRANCH   1   5
TORSDOF 3
ENDMDL
MODEL 5
REMARK VINA RESULT:      -7.0      1.959      2.535
REMARK SMILES CC(=O)CCc1ccc2c(c1)OCO2
REMARK SMILES IDX 4 1 2 2 1 3 3 4 5 5 6 6 7 7 11 8 8 9 10 10 9 11 12 12 14 13
REMARK SMILES IDX 13 14
REMARK H PARENT
REMARK Flexibility Score: inf
ROOT
ATOM      1  C   UNL     1       6.871   0.832   1.095  1.00  0.00     0.080 C 
ENDROOT
BRANCH   1   2
ATOM      2  C   UNL     1       5.443   1.088   1.435  1.00  0.00     0.130 C 
ATOM      3  C   UNL     1       4.657   2.150   0.753  1.00  0.00     0.087 C 
ATOM      4  O   UNL     1       4.875   0.427   2.289  1.00  0.00    -0.300 OA
ENDBRANCH   1   2
BRANCH   1   5
ATOM      5  C   UNL     1       7.110   0.942  -0.398  1.00  0.00     0.043 C 
BRANCH   5   6
ATOM      6  C   UNL     1       7.586  -0.330  -0.970  1.00  0.00    -0.044 A 
ATOM      7  C   UNL     1       7.806  -0.479  -2.344  1.00  0.00     0.008 A 
ATOM      8  C   UNL     1       7.825  -1.404  -0.142  1.00  0.00     0.054 A 
ATOM      9  C   UNL     1       8.254  -1.697  -2.823  1.00  0.00     0.051 A 
ATOM     10  C   UNL     1       8.278  -2.632  -0.631  1.00  0.00     0.166 A 
ATOM     11  C   UNL     1       8.494  -2.780  -1.983  1.00  0.00     0.165 A 
ATOM     12  O   UNL     1       8.584  -3.831  -0.023  1.00  0.00    -0.454 OA
ATOM     13  O   UNL     1       8.933  -4.080  -2.179  1.00  0.00    -0.454 OA
ATOM     14  C   UNL     1       9.091  -4.753  -0.953  1.00  0.00     0.468 C 
ENDBRANCH   5   6
ENDBRANCH   1   5
TORSDOF 3
ENDMDL
