@<TRIPOS>MOLECULE
/home/cewinharhar/GITHUB/reincatalyze/data/processed/docking_pred/2023-May-25-1902_sub9_nm5_bs15_s42_ex16_mel10_mts10000_k50_ec01_g099_lra3e-4_lrc3e-3/65610c622cc3bd86a4d466f03d6f61670904542e_ligand_9.pdbqt
 14 15 0 0 0
SMALL
GASTEIGER

@<TRIPOS>ATOM
      1  C          5.6030    0.0120    1.9520 C.3     1  UNL1        0.0800
      2  C          4.6990    1.1490    1.6240 C.2     1  UNL1        0.1300
      3  C          4.9970    2.0870    0.5090 C.3     1  UNL1        0.0870
      4  O          3.6800    1.3450    2.2670 O.2     1  UNL1       -0.3000
      5  C          7.0120    0.2670    1.4530 C.3     1  UNL1        0.0430
      6  C          7.4080   -0.7010    0.4150 C.2     1  UNL1       -0.0440
      7  C          7.3040   -0.3980   -0.9470 C.2     1  UNL1        0.0080
      8  C          7.8960   -1.9340    0.7830 C.2     1  UNL1        0.0540
      9  C          7.6920   -1.3460   -1.8770 C.2     1  UNL1        0.0510
     10  C          8.2870   -2.8890   -0.1610 C.2     1  UNL1        0.1660
     11  C          8.1840   -2.5920   -1.5010 C.2     1  UNL1        0.1650
     12  O          8.7940   -4.1660   -0.0500 O.2     1  UNL1       -0.4540
     13  O          8.6350   -3.7050   -2.1940 O.2     1  UNL1       -0.4540
     14  C          9.1170   -4.6910   -1.3120 C.3     1  UNL1        0.4680
@<TRIPOS>BOND
     1    13    11    1
     2    13    14    1
     3     9    11    2
     4     9     7    1
     5    11    10    1
     6    14    12    1
     7     7     6    2
     8    10    12    1
     9    10     8    2
    10     6     8    1
    11     6     5    1
    12     3     2    1
    13     5     1    1
    14     2     1    1
    15     2     4    2
