@<TRIPOS>MOLECULE
/home/cewinharhar/GITHUB/reincatalyze/data/processed/docking_pred/2023-May-25-1902_sub9_nm5_bs15_s42_ex16_mel10_mts10000_k50_ec01_g099_lra3e-4_lrc3e-3/65610c622cc3bd86a4d466f03d6f61670904542e_ligand_9.pdbqt
 14 15 0 0 0
SMALL
GASTEIGER

@<TRIPOS>ATOM
      1  C          6.8710    0.8320    1.0950 C.3     1  UNL1        0.0800
      2  C          5.4430    1.0880    1.4350 C.2     1  UNL1        0.1300
      3  C          4.6570    2.1500    0.7530 C.3     1  UNL1        0.0870
      4  O          4.8750    0.4270    2.2890 O.2     1  UNL1       -0.3000
      5  C          7.1100    0.9420   -0.3980 C.3     1  UNL1        0.0430
      6  C          7.5860   -0.3300   -0.9700 C.2     1  UNL1       -0.0440
      7  C          7.8060   -0.4790   -2.3440 C.2     1  UNL1        0.0080
      8  C          7.8250   -1.4040   -0.1420 C.2     1  UNL1        0.0540
      9  C          8.2540   -1.6970   -2.8230 C.2     1  UNL1        0.0510
     10  C          8.2780   -2.6320   -0.6310 C.2     1  UNL1        0.1660
     11  C          8.4940   -2.7800   -1.9830 C.2     1  UNL1        0.1650
     12  O          8.5840   -3.8310   -0.0230 O.2     1  UNL1       -0.4540
     13  O          8.9330   -4.0800   -2.1790 O.2     1  UNL1       -0.4540
     14  C          9.0910   -4.7530   -0.9530 C.3     1  UNL1        0.4680
@<TRIPOS>BOND
     1     9     7    1
     2     9    11    2
     3     7     6    2
     4    13    11    1
     5    13    14    1
     6    11    10    1
     7     6     5    1
     8     6     8    1
     9    14    12    1
    10    10     8    2
    11    10    12    1
    12     5     1    1
    13     3     2    1
    14     1     2    1
    15     2     4    2
