@<TRIPOS>MOLECULE
/home/cewinharhar/GITHUB/reincatalyze/data/processed/docking_pred/2023-May-25-1902_sub9_nm5_bs15_s42_ex16_mel10_mts10000_k50_ec01_g099_lra3e-4_lrc3e-3/661305b30cebe31e235170a50c1781f21e405ac9_ligand_9.pdbqt
 14 15 0 0 0
SMALL
GASTEIGER

@<TRIPOS>ATOM
      1  C          6.8420    0.7970    0.9940 C.3     1  UNL1        0.0800
      2  C          5.4470    1.1110    1.4110 C.2     1  UNL1        0.1300
      3  C          4.6400    2.1490    0.7160 C.3     1  UNL1        0.0870
      4  O          4.9230    0.5200    2.3410 O.2     1  UNL1       -0.3000
      5  C          6.9900    0.8420   -0.5140 C.3     1  UNL1        0.0430
      6  C          7.5040   -0.4300   -1.0500 C.2     1  UNL1       -0.0440
      7  C          7.7450   -0.6050   -2.4180 C.2     1  UNL1        0.0080
      8  C          7.7600   -1.4780   -0.1950 C.2     1  UNL1        0.0540
      9  C          8.2290   -1.8220   -2.8640 C.2     1  UNL1        0.0510
     10  C          8.2500   -2.7050   -0.6510 C.2     1  UNL1        0.1660
     11  C          8.4860   -2.8790   -1.9970 C.2     1  UNL1        0.1650
     12  O          8.5790   -3.8820   -0.0120 O.2     1  UNL1       -0.4540
     13  O          8.9600   -4.1710   -2.1570 O.2     1  UNL1       -0.4540
     14  C          9.1210   -4.8120   -0.9140 C.3     1  UNL1        0.4680
@<TRIPOS>BOND
     1     9     7    1
     2     9    11    2
     3     7     6    2
     4    13    11    1
     5    13    14    1
     6    11    10    1
     7     6     5    1
     8     6     8    1
     9    14    12    1
    10    10     8    2
    11    10    12    1
    12     5     1    1
    13     3     2    1
    14     1     2    1
    15     2     4    2
