@<TRIPOS>MOLECULE
/home/cewinharhar/GITHUB/reincatalyze/data/processed/docking_pred/2023-May-25-1902_sub9_nm5_bs15_s42_ex16_mel10_mts10000_k50_ec01_g099_lra3e-4_lrc3e-3/67714d3181cdcfbe83529be90e704c7fe5693ba3_ligand_9.pdbqt
 14 15 0 0 0
SMALL
GASTEIGER

@<TRIPOS>ATOM
      1  C          6.8000    0.8020    1.2520 C.3     1  UNL1        0.0800
      2  C          5.3690    1.1860    1.4030 C.2     1  UNL1        0.1300
      3  C          4.7170    2.1500    0.4760 C.3     1  UNL1        0.0870
      4  O          4.6850    0.7180    2.2990 O.2     1  UNL1       -0.3000
      5  C          7.2720    0.9880   -0.1760 C.3     1  UNL1        0.0430
      6  C          7.6140   -0.2980   -0.8100 C.2     1  UNL1       -0.0440
      7  C          7.6230   -0.4490   -2.2020 C.2     1  UNL1        0.0080
      8  C          7.9360   -1.3810   -0.0250 C.2     1  UNL1        0.0540
      9  C          7.9530   -1.6790   -2.7410 C.2     1  UNL1        0.0510
     10  C          8.2690   -2.6230   -0.5750 C.2     1  UNL1        0.1660
     11  C          8.2770   -2.7730   -1.9440 C.2     1  UNL1        0.1650
     12  O          8.6190   -3.8340   -0.0170 O.2     1  UNL1       -0.4540
     13  O          8.6370   -4.0870   -2.2010 O.2     1  UNL1       -0.4540
     14  C          8.9510   -4.7700   -1.0110 C.3     1  UNL1        0.4680
@<TRIPOS>BOND
     1     9     7    1
     2     9    11    2
     3     7     6    2
     4    13    11    1
     5    13    14    1
     6    11    10    1
     7    14    12    1
     8     6     5    1
     9     6     8    1
    10    10     8    2
    11    10    12    1
    12     5     1    1
    13     3     2    1
    14     1     2    1
    15     2     4    2
