@<TRIPOS>MOLECULE
/home/cewinharhar/GITHUB/reincatalyze/data/processed/docking_pred/2023-May-25-1902_sub9_nm5_bs15_s42_ex16_mel10_mts10000_k50_ec01_g099_lra3e-4_lrc3e-3/67714d3181cdcfbe83529be90e704c7fe5693ba3_ligand_9.pdbqt
 14 15 0 0 0
SMALL
GASTEIGER

@<TRIPOS>ATOM
      1  C          6.3740    1.2440    0.9000 C.3     1  UNL1        0.0800
      2  C          5.6750    0.4020    1.9100 C.2     1  UNL1        0.1300
      3  C          6.3140   -0.8090    2.4940 C.3     1  UNL1        0.0870
      4  O          4.5500    0.6820    2.2910 O.2     1  UNL1       -0.3000
      5  C          5.8720    0.9530   -0.5010 C.3     1  UNL1        0.0430
      6  C          6.8220    0.1200   -1.2590 C.2     1  UNL1       -0.0440
      7  C          7.5280    0.6260   -2.3570 C.2     1  UNL1        0.0080
      8  C          7.0300   -1.1890   -0.8870 C.2     1  UNL1        0.0540
      9  C          8.4070   -0.2020   -3.0300 C.2     1  UNL1        0.0510
     10  C          7.9200   -2.0220   -1.5700 C.2     1  UNL1        0.1660
     11  C          8.6140   -1.5250   -2.6510 C.2     1  UNL1        0.1650
     12  O          8.2950   -3.3380   -1.3990 O.2     1  UNL1       -0.4540
     13  O          9.4100   -2.5560   -3.1250 O.2     1  UNL1       -0.4540
     14  C          9.3070   -3.6960   -2.3060 C.3     1  UNL1        0.4680
@<TRIPOS>BOND
     1    13    11    1
     2    13    14    1
     3     9    11    2
     4     9     7    1
     5    11    10    1
     6     7     6    2
     7    14    12    1
     8    10    12    1
     9    10     8    2
    10     6     8    1
    11     6     5    1
    12     5     1    1
    13     1     2    1
    14     2     4    2
    15     2     3    1
