MODEL 1
REMARK VINA RESULT:      -7.7      0.000      0.000
REMARK SMILES CC(=O)CCc1ccc2c(c1)OCO2
REMARK SMILES IDX 4 1 2 2 1 3 3 4 5 5 6 6 7 7 11 8 8 9 10 10 9 11 12 12 14 13
REMARK SMILES IDX 13 14
REMARK H PARENT
REMARK Flexibility Score: inf
ROOT
ATOM      1  C   UNL     1       5.509   1.926   1.249  1.00  0.00     0.080 C 
ENDROOT
BRANCH   1   2
ATOM      2  C   UNL     1       5.026   0.727   1.990  1.00  0.00     0.130 C 
ATOM      3  C   UNL     1       5.856  -0.500   2.116  1.00  0.00     0.087 C 
ATOM      4  O   UNL     1       3.925   0.718   2.518  1.00  0.00    -0.300 OA
ENDBRANCH   1   2
BRANCH   1   5
ATOM      5  C   UNL     1       5.390   1.731  -0.249  1.00  0.00     0.043 C 
BRANCH   5   6
ATOM      6  C   UNL     1       6.562   1.030  -0.804  1.00  0.00    -0.044 A 
ATOM      7  C   UNL     1       7.867   1.460  -0.540  1.00  0.00     0.008 A 
ATOM      8  C   UNL     1       6.379  -0.078  -1.600  1.00  0.00     0.054 A 
ATOM      9  C   UNL     1       8.928   0.762  -1.087  1.00  0.00     0.051 A 
ATOM     10  C   UNL     1       7.455  -0.781  -2.151  1.00  0.00     0.166 A 
ATOM     11  C   UNL     1       8.740  -0.358  -1.893  1.00  0.00     0.165 A 
ATOM     12  O   UNL     1       7.534  -1.894  -2.962  1.00  0.00    -0.454 OA
ATOM     13  O   UNL     1       9.590  -1.229  -2.556  1.00  0.00    -0.454 OA
ATOM     14  C   UNL     1       8.871  -2.271  -3.171  1.00  0.00     0.468 C 
ENDBRANCH   5   6
ENDBRANCH   1   5
TORSDOF 3
ENDMDL
MODEL 2
REMARK VINA RESULT:      -7.4      1.834      2.293
REMARK SMILES CC(=O)CCc1ccc2c(c1)OCO2
REMARK SMILES IDX 4 1 2 2 1 3 3 4 5 5 6 6 7 7 11 8 8 9 10 10 9 11 12 12 14 13
REMARK SMILES IDX 13 14
REMARK H PARENT
REMARK Flexibility Score: inf
ROOT
ATOM      1  C   UNL     1       5.641   1.341  -0.308  1.00  0.00     0.080 C 
ENDROOT
BRANCH   1   2
ATOM      2  C   UNL     1       5.119   1.256   1.085  1.00  0.00     0.130 C 
ATOM      3  C   UNL     1       5.487   0.134   1.990  1.00  0.00     0.087 C 
ATOM      4  O   UNL     1       4.370   2.112   1.527  1.00  0.00    -0.300 OA
ENDBRANCH   1   2
BRANCH   1   5
ATOM      5  C   UNL     1       7.148   1.179  -0.342  1.00  0.00     0.043 C 
BRANCH   5   6
ATOM      6  C   UNL     1       7.546  -0.098  -0.960  1.00  0.00    -0.044 A 
ATOM      7  C   UNL     1       7.644  -0.241  -2.349  1.00  0.00     0.008 A 
ATOM      8  C   UNL     1       7.834  -1.182  -0.162  1.00  0.00     0.054 A 
ATOM      9  C   UNL     1       8.023  -1.464  -2.873  1.00  0.00     0.051 A 
ATOM     10  C   UNL     1       8.218  -2.415  -0.696  1.00  0.00     0.166 A 
ATOM     11  C   UNL     1       8.313  -2.558  -2.063  1.00  0.00     0.165 A 
ATOM     12  O   UNL     1       8.551  -3.624  -0.123  1.00  0.00    -0.454 OA
ATOM     13  O   UNL     1       8.708  -3.864  -2.303  1.00  0.00    -0.454 OA
ATOM     14  C   UNL     1       8.958  -4.550  -1.099  1.00  0.00     0.468 C 
ENDBRANCH   5   6
ENDBRANCH   1   5
TORSDOF 3
ENDMDL
MODEL 3
REMARK VINA RESULT:      -7.2      2.072      2.627
REMARK SMILES CC(=O)CCc1ccc2c(c1)OCO2
REMARK SMILES IDX 4 1 2 2 1 3 3 4 5 5 6 6 7 7 11 8 8 9 10 10 9 11 12 12 14 13
REMARK SMILES IDX 13 14
REMARK H PARENT
REMARK Flexibility Score: inf
ROOT
ATOM      1  C   UNL     1       5.459  -0.041   2.006  1.00  0.00     0.080 C 
ENDROOT
BRANCH   1   2
ATOM      2  C   UNL     1       4.595   1.140   1.728  1.00  0.00     0.130 C 
ATOM      3  C   UNL     1       4.897   2.084   0.618  1.00  0.00     0.087 C 
ATOM      4  O   UNL     1       3.608   1.369   2.408  1.00  0.00    -0.300 OA
ENDBRANCH   1   2
BRANCH   1   5
ATOM      5  C   UNL     1       6.889   0.208   1.571  1.00  0.00     0.043 C 
BRANCH   5   6
ATOM      6  C   UNL     1       7.309  -0.726   0.512  1.00  0.00    -0.044 A 
ATOM      7  C   UNL     1       7.184  -0.402  -0.844  1.00  0.00     0.008 A 
ATOM      8  C   UNL     1       7.841  -1.949   0.852  1.00  0.00     0.054 A 
ATOM      9  C   UNL     1       7.596  -1.319  -1.794  1.00  0.00     0.051 A 
ATOM     10  C   UNL     1       8.256  -2.873  -0.112  1.00  0.00     0.166 A 
ATOM     11  C   UNL     1       8.132  -2.554  -1.446  1.00  0.00     0.165 A 
ATOM     12  O   UNL     1       8.806  -4.134  -0.030  1.00  0.00    -0.454 OA
ATOM     13  O   UNL     1       8.615  -3.638  -2.163  1.00  0.00    -0.454 OA
ATOM     14  C   UNL     1       9.136  -4.624  -1.304  1.00  0.00     0.468 C 
ENDBRANCH   5   6
ENDBRANCH   1   5
TORSDOF 3
ENDMDL
MODEL 4
REMARK VINA RESULT:      -7.1      1.973      2.553
REMARK SMILES CC(=O)CCc1ccc2c(c1)OCO2
REMARK SMILES IDX 4 1 2 2 1 3 3 4 5 5 6 6 7 7 11 8 8 9 10 10 9 11 12 12 14 13
REMARK SMILES IDX 13 14
REMARK H PARENT
REMARK Flexibility Score: inf
ROOT
ATOM      1  C   UNL     1       6.800   0.802   1.252  1.00  0.00     0.080 C 
ENDROOT
BRANCH   1   2
ATOM      2  C   UNL     1       5.369   1.186   1.403  1.00  0.00     0.130 C 
ATOM      3  C   UNL     1       4.717   2.150   0.476  1.00  0.00     0.087 C 
ATOM      4  O   UNL     1       4.685   0.718   2.299  1.00  0.00    -0.300 OA
ENDBRANCH   1   2
BRANCH   1   5
ATOM      5  C   UNL     1       7.272   0.988  -0.176  1.00  0.00     0.043 C 
BRANCH   5   6
ATOM      6  C   UNL     1       7.614  -0.298  -0.810  1.00  0.00    -0.044 A 
ATOM      7  C   UNL     1       7.623  -0.449  -2.202  1.00  0.00     0.008 A 
ATOM      8  C   UNL     1       7.936  -1.381  -0.025  1.00  0.00     0.054 A 
ATOM      9  C   UNL     1       7.953  -1.679  -2.741  1.00  0.00     0.051 A 
ATOM     10  C   UNL     1       8.269  -2.623  -0.575  1.00  0.00     0.166 A 
ATOM     11  C   UNL     1       8.277  -2.773  -1.944  1.00  0.00     0.165 A 
ATOM     12  O   UNL     1       8.619  -3.834  -0.017  1.00  0.00    -0.454 OA
ATOM     13  O   UNL     1       8.637  -4.087  -2.201  1.00  0.00    -0.454 OA
ATOM     14  C   UNL     1       8.951  -4.770  -1.011  1.00  0.00     0.468 C 
ENDBRANCH   5   6
ENDBRANCH   1   5
TORSDOF 3
ENDMDL
MODEL 5
REMARK VINA RESULT:      -7.1      1.261      1.470
REMARK SMILES CC(=O)CCc1ccc2c(c1)OCO2
REMARK SMILES IDX 4 1 2 2 1 3 3 4 5 5 6 6 7 7 11 8 8 9 10 10 9 11 12 12 14 13
REMARK SMILES IDX 13 14
REMARK H PARENT
REMARK Flexibility Score: inf
ROOT
ATOM      1  C   UNL     1       6.374   1.244   0.900  1.00  0.00     0.080 C 
ENDROOT
BRANCH   1   2
ATOM      2  C   UNL     1       5.675   0.402   1.910  1.00  0.00     0.130 C 
ATOM      3  C   UNL     1       6.314  -0.809   2.494  1.00  0.00     0.087 C 
ATOM      4  O   UNL     1       4.550   0.682   2.291  1.00  0.00    -0.300 OA
ENDBRANCH   1   2
BRANCH   1   5
ATOM      5  C   UNL     1       5.872   0.953  -0.501  1.00  0.00     0.043 C 
BRANCH   5   6
ATOM      6  C   UNL     1       6.822   0.120  -1.259  1.00  0.00    -0.044 A 
ATOM      7  C   UNL     1       7.528   0.626  -2.357  1.00  0.00     0.008 A 
ATOM      8  C   UNL     1       7.030  -1.189  -0.887  1.00  0.00     0.054 A 
ATOM      9  C   UNL     1       8.407  -0.202  -3.030  1.00  0.00     0.051 A 
ATOM     10  C   UNL     1       7.920  -2.022  -1.570  1.00  0.00     0.166 A 
ATOM     11  C   UNL     1       8.614  -1.525  -2.651  1.00  0.00     0.165 A 
ATOM     12  O   UNL     1       8.295  -3.338  -1.399  1.00  0.00    -0.454 OA
ATOM     13  O   UNL     1       9.410  -2.556  -3.125  1.00  0.00    -0.454 OA
ATOM     14  C   UNL     1       9.307  -3.696  -2.306  1.00  0.00     0.468 C 
ENDBRANCH   5   6
ENDBRANCH   1   5
TORSDOF 3
ENDMDL
