@<TRIPOS>MOLECULE
/home/cewinharhar/GITHUB/reincatalyze/data/processed/docking_pred/2023-May-25-1902_sub9_nm5_bs15_s42_ex16_mel10_mts10000_k50_ec01_g099_lra3e-4_lrc3e-3/67714d3181cdcfbe83529be90e704c7fe5693ba3_ligand_9.pdbqt
 14 15 0 0 0
SMALL
GASTEIGER

@<TRIPOS>ATOM
      1  C          5.6410    1.3410   -0.3080 C.3     1  UNL1        0.0800
      2  C          5.1190    1.2560    1.0850 C.2     1  UNL1        0.1300
      3  C          5.4870    0.1340    1.9900 C.3     1  UNL1        0.0870
      4  O          4.3700    2.1120    1.5270 O.2     1  UNL1       -0.3000
      5  C          7.1480    1.1790   -0.3420 C.3     1  UNL1        0.0430
      6  C          7.5460   -0.0980   -0.9600 C.2     1  UNL1       -0.0440
      7  C          7.6440   -0.2410   -2.3490 C.2     1  UNL1        0.0080
      8  C          7.8340   -1.1820   -0.1620 C.2     1  UNL1        0.0540
      9  C          8.0230   -1.4640   -2.8730 C.2     1  UNL1        0.0510
     10  C          8.2180   -2.4150   -0.6960 C.2     1  UNL1        0.1660
     11  C          8.3130   -2.5580   -2.0630 C.2     1  UNL1        0.1650
     12  O          8.5510   -3.6240   -0.1230 O.2     1  UNL1       -0.4540
     13  O          8.7080   -3.8640   -2.3030 O.2     1  UNL1       -0.4540
     14  C          8.9580   -4.5500   -1.0990 C.3     1  UNL1        0.4680
@<TRIPOS>BOND
     1     9     7    1
     2     9    11    2
     3     7     6    2
     4    13    11    1
     5    13    14    1
     6    11    10    1
     7    14    12    1
     8     6     5    1
     9     6     8    1
    10    10     8    2
    11    10    12    1
    12     5     1    1
    13     1     2    1
    14     2     4    2
    15     2     3    1
