@<TRIPOS>MOLECULE
/home/cewinharhar/GITHUB/reincatalyze/data/processed/docking_pred/2023-May-25-1902_sub9_nm5_bs15_s42_ex16_mel10_mts10000_k50_ec01_g099_lra3e-4_lrc3e-3/677496c5c46bc5e4ac1ff58ba47d0b72a83fedc5_ligand_9.pdbqt
 14 15 0 0 0
SMALL
GASTEIGER

@<TRIPOS>ATOM
      1  C          5.5380    1.9070    1.2800 C.3     1  UNL1        0.0800
      2  C          5.0660    0.6970    2.0090 C.2     1  UNL1        0.1300
      3  C          5.9180   -0.5150    2.1460 C.3     1  UNL1        0.0870
      4  O          3.9570    0.6650    2.5180 O.2     1  UNL1       -0.3000
      5  C          5.4130    1.7290   -0.2200 C.3     1  UNL1        0.0430
      6  C          6.5800    1.0300   -0.7870 C.2     1  UNL1       -0.0440
      7  C          7.8880    1.4570   -0.5280 C.2     1  UNL1        0.0080
      8  C          6.3920   -0.0730   -1.5890 C.2     1  UNL1        0.0540
      9  C          8.9440    0.7610   -1.0860 C.2     1  UNL1        0.0510
     10  C          7.4640   -0.7740   -2.1500 C.2     1  UNL1        0.1660
     11  C          8.7500   -0.3530   -1.8970 C.2     1  UNL1        0.1650
     12  O          7.5370   -1.8810   -2.9680 O.2     1  UNL1       -0.4540
     13  O          9.5950   -1.2200   -2.5710 O.2     1  UNL1       -0.4540
     14  C          8.8720   -2.2580   -3.1890 C.3     1  UNL1        0.4680
@<TRIPOS>BOND
     1    14    12    1
     2    14    13    1
     3    12    10    1
     4    13    11    1
     5    10    11    2
     6    10     8    1
     7    11     9    1
     8     8     6    2
     9     9     7    2
    10     6     7    1
    11     6     5    1
    12     5     1    1
    13     1     2    1
    14     2     3    1
    15     2     4    2
