MODEL 1
REMARK VINA RESULT:      -7.7      0.000      0.000
REMARK SMILES CC(=O)CCc1ccc2c(c1)OCO2
REMARK SMILES IDX 4 1 2 2 1 3 3 4 5 5 6 6 7 7 11 8 8 9 10 10 9 11 12 12 14 13
REMARK SMILES IDX 13 14
REMARK H PARENT
REMARK Flexibility Score: inf
ROOT
ATOM      1  C   UNL     1       5.538   1.907   1.280  1.00  0.00     0.080 C 
ENDROOT
BRANCH   1   2
ATOM      2  C   UNL     1       5.066   0.697   2.009  1.00  0.00     0.130 C 
ATOM      3  C   UNL     1       5.918  -0.515   2.146  1.00  0.00     0.087 C 
ATOM      4  O   UNL     1       3.957   0.665   2.518  1.00  0.00    -0.300 OA
ENDBRANCH   1   2
BRANCH   1   5
ATOM      5  C   UNL     1       5.413   1.729  -0.220  1.00  0.00     0.043 C 
BRANCH   5   6
ATOM      6  C   UNL     1       6.580   1.030  -0.787  1.00  0.00    -0.044 A 
ATOM      7  C   UNL     1       7.888   1.457  -0.528  1.00  0.00     0.008 A 
ATOM      8  C   UNL     1       6.392  -0.073  -1.589  1.00  0.00     0.054 A 
ATOM      9  C   UNL     1       8.944   0.761  -1.086  1.00  0.00     0.051 A 
ATOM     10  C   UNL     1       7.464  -0.774  -2.150  1.00  0.00     0.166 A 
ATOM     11  C   UNL     1       8.750  -0.353  -1.897  1.00  0.00     0.165 A 
ATOM     12  O   UNL     1       7.537  -1.881  -2.968  1.00  0.00    -0.454 OA
ATOM     13  O   UNL     1       9.595  -1.220  -2.571  1.00  0.00    -0.454 OA
ATOM     14  C   UNL     1       8.872  -2.258  -3.189  1.00  0.00     0.468 C 
ENDBRANCH   5   6
ENDBRANCH   1   5
TORSDOF 3
ENDMDL
MODEL 2
REMARK VINA RESULT:      -7.5      1.928      2.375
REMARK SMILES CC(=O)CCc1ccc2c(c1)OCO2
REMARK SMILES IDX 4 1 2 2 1 3 3 4 5 5 6 6 7 7 11 8 8 9 10 10 9 11 12 12 14 13
REMARK SMILES IDX 13 14
REMARK H PARENT
REMARK Flexibility Score: inf
ROOT
ATOM      1  C   UNL     1       5.736   1.379  -0.284  1.00  0.00     0.080 C 
ENDROOT
BRANCH   1   2
ATOM      2  C   UNL     1       5.106   1.275   1.062  1.00  0.00     0.130 C 
ATOM      3  C   UNL     1       5.358   0.112   1.954  1.00  0.00     0.087 C 
ATOM      4  O   UNL     1       4.359   2.148   1.473  1.00  0.00    -0.300 OA
ENDBRANCH   1   2
BRANCH   1   5
ATOM      5  C   UNL     1       7.230   1.132  -0.214  1.00  0.00     0.043 C 
BRANCH   5   6
ATOM      6  C   UNL     1       7.600  -0.155  -0.829  1.00  0.00    -0.044 A 
ATOM      7  C   UNL     1       7.664  -0.312  -2.218  1.00  0.00     0.008 A 
ATOM      8  C   UNL     1       7.895  -1.234  -0.027  1.00  0.00     0.054 A 
ATOM      9  C   UNL     1       8.019  -1.543  -2.738  1.00  0.00     0.051 A 
ATOM     10  C   UNL     1       8.253  -2.477  -0.558  1.00  0.00     0.166 A 
ATOM     11  C   UNL     1       8.315  -2.633  -1.925  1.00  0.00     0.165 A 
ATOM     12  O   UNL     1       8.586  -3.684   0.018  1.00  0.00    -0.454 OA
ATOM     13  O   UNL     1       8.690  -3.946  -2.162  1.00  0.00    -0.454 OA
ATOM     14  C   UNL     1       8.960  -4.623  -0.958  1.00  0.00     0.468 C 
ENDBRANCH   5   6
ENDBRANCH   1   5
TORSDOF 3
ENDMDL
MODEL 3
REMARK VINA RESULT:      -7.2      2.066      2.637
REMARK SMILES CC(=O)CCc1ccc2c(c1)OCO2
REMARK SMILES IDX 4 1 2 2 1 3 3 4 5 5 6 6 7 7 11 8 8 9 10 10 9 11 12 12 14 13
REMARK SMILES IDX 13 14
REMARK H PARENT
REMARK Flexibility Score: inf
ROOT
ATOM      1  C   UNL     1       5.412  -0.057   2.023  1.00  0.00     0.080 C 
ENDROOT
BRANCH   1   2
ATOM      2  C   UNL     1       4.569   1.143   1.761  1.00  0.00     0.130 C 
ATOM      3  C   UNL     1       4.903   2.113   0.684  1.00  0.00     0.087 C 
ATOM      4  O   UNL     1       3.571   1.366   2.429  1.00  0.00    -0.300 OA
ENDBRANCH   1   2
BRANCH   1   5
ATOM      5  C   UNL     1       6.851   0.182   1.611  1.00  0.00     0.043 C 
BRANCH   5   6
ATOM      6  C   UNL     1       7.274  -0.742   0.543  1.00  0.00    -0.044 A 
ATOM      7  C   UNL     1       7.131  -0.412  -0.810  1.00  0.00     0.008 A 
ATOM      8  C   UNL     1       7.825  -1.959   0.872  1.00  0.00     0.054 A 
ATOM      9  C   UNL     1       7.547  -1.318  -1.769  1.00  0.00     0.051 A 
ATOM     10  C   UNL     1       8.245  -2.871  -0.101  1.00  0.00     0.166 A 
ATOM     11  C   UNL     1       8.104  -2.548  -1.433  1.00  0.00     0.165 A 
ATOM     12  O   UNL     1       8.813  -4.125  -0.031  1.00  0.00    -0.454 OA
ATOM     13  O   UNL     1       8.595  -3.621  -2.160  1.00  0.00    -0.454 OA
ATOM     14  C   UNL     1       9.138  -4.604  -1.311  1.00  0.00     0.468 C 
ENDBRANCH   5   6
ENDBRANCH   1   5
TORSDOF 3
ENDMDL
MODEL 4
REMARK VINA RESULT:      -7.1      2.001      2.587
REMARK SMILES CC(=O)CCc1ccc2c(c1)OCO2
REMARK SMILES IDX 4 1 2 2 1 3 3 4 5 5 6 6 7 7 11 8 8 9 10 10 9 11 12 12 14 13
REMARK SMILES IDX 13 14
REMARK H PARENT
REMARK Flexibility Score: inf
ROOT
ATOM      1  C   UNL     1       6.822   0.714   1.185  1.00  0.00     0.080 C 
ENDROOT
BRANCH   1   2
ATOM      2  C   UNL     1       5.410   1.139   1.396  1.00  0.00     0.130 C 
ATOM      3  C   UNL     1       4.760   2.150   0.519  1.00  0.00     0.087 C 
ATOM      4  O   UNL     1       4.741   0.666   2.300  1.00  0.00    -0.300 OA
ENDBRANCH   1   2
BRANCH   1   5
ATOM      5  C   UNL     1       7.241   0.894  -0.260  1.00  0.00     0.043 C 
BRANCH   5   6
ATOM      6  C   UNL     1       7.660  -0.380  -0.871  1.00  0.00    -0.044 A 
ATOM      7  C   UNL     1       7.807  -0.516  -2.256  1.00  0.00     0.008 A 
ATOM      8  C   UNL     1       7.916  -1.469  -0.069  1.00  0.00     0.054 A 
ATOM      9  C   UNL     1       8.203  -1.736  -2.772  1.00  0.00     0.051 A 
ATOM     10  C   UNL     1       8.317  -2.700  -0.596  1.00  0.00     0.166 A 
ATOM     11  C   UNL     1       8.461  -2.835  -1.959  1.00  0.00     0.165 A 
ATOM     12  O   UNL     1       8.626  -3.913  -0.018  1.00  0.00    -0.454 OA
ATOM     13  O   UNL     1       8.862  -4.141  -2.192  1.00  0.00    -0.454 OA
ATOM     14  C   UNL     1       9.066  -4.834  -0.984  1.00  0.00     0.468 C 
ENDBRANCH   5   6
ENDBRANCH   1   5
TORSDOF 3
ENDMDL
MODEL 5
REMARK VINA RESULT:      -7.1      1.250      1.458
REMARK SMILES CC(=O)CCc1ccc2c(c1)OCO2
REMARK SMILES IDX 4 1 2 2 1 3 3 4 5 5 6 6 7 7 11 8 8 9 10 10 9 11 12 12 14 13
REMARK SMILES IDX 13 14
REMARK H PARENT
REMARK Flexibility Score: inf
ROOT
ATOM      1  C   UNL     1       6.347   1.243   0.875  1.00  0.00     0.080 C 
ENDROOT
BRANCH   1   2
ATOM      2  C   UNL     1       5.659   0.425   1.912  1.00  0.00     0.130 C 
ATOM      3  C   UNL     1       6.277  -0.806   2.473  1.00  0.00     0.087 C 
ATOM      4  O   UNL     1       4.559   0.744   2.334  1.00  0.00    -0.300 OA
ENDBRANCH   1   2
BRANCH   1   5
ATOM      5  C   UNL     1       5.835   0.915  -0.514  1.00  0.00     0.043 C 
BRANCH   5   6
ATOM      6  C   UNL     1       6.800   0.102  -1.274  1.00  0.00    -0.044 A 
ATOM      7  C   UNL     1       7.513   0.631  -2.356  1.00  0.00     0.008 A 
ATOM      8  C   UNL     1       7.015  -1.211  -0.920  1.00  0.00     0.054 A 
ATOM      9  C   UNL     1       8.407  -0.180  -3.032  1.00  0.00     0.051 A 
ATOM     10  C   UNL     1       7.920  -2.026  -1.606  1.00  0.00     0.166 A 
ATOM     11  C   UNL     1       8.621  -1.506  -2.671  1.00  0.00     0.165 A 
ATOM     12  O   UNL     1       8.304  -3.341  -1.451  1.00  0.00    -0.454 OA
ATOM     13  O   UNL     1       9.431  -2.523  -3.152  1.00  0.00    -0.454 OA
ATOM     14  C   UNL     1       9.329  -3.676  -2.351  1.00  0.00     0.468 C 
ENDBRANCH   5   6
ENDBRANCH   1   5
TORSDOF 3
ENDMDL
