@<TRIPOS>MOLECULE
/home/cewinharhar/GITHUB/reincatalyze/data/processed/docking_pred/2023-May-25-1902_sub9_nm5_bs15_s42_ex16_mel10_mts10000_k50_ec01_g099_lra3e-4_lrc3e-3/677496c5c46bc5e4ac1ff58ba47d0b72a83fedc5_ligand_9.pdbqt
 14 15 0 0 0
SMALL
GASTEIGER

@<TRIPOS>ATOM
      1  C          6.3470    1.2430    0.8750 C.3     1  UNL1        0.0800
      2  C          5.6590    0.4250    1.9120 C.2     1  UNL1        0.1300
      3  C          6.2770   -0.8060    2.4730 C.3     1  UNL1        0.0870
      4  O          4.5590    0.7440    2.3340 O.2     1  UNL1       -0.3000
      5  C          5.8350    0.9150   -0.5140 C.3     1  UNL1        0.0430
      6  C          6.8000    0.1020   -1.2740 C.2     1  UNL1       -0.0440
      7  C          7.5130    0.6310   -2.3560 C.2     1  UNL1        0.0080
      8  C          7.0150   -1.2110   -0.9200 C.2     1  UNL1        0.0540
      9  C          8.4070   -0.1800   -3.0320 C.2     1  UNL1        0.0510
     10  C          7.9200   -2.0260   -1.6060 C.2     1  UNL1        0.1660
     11  C          8.6210   -1.5060   -2.6710 C.2     1  UNL1        0.1650
     12  O          8.3040   -3.3410   -1.4510 O.2     1  UNL1       -0.4540
     13  O          9.4310   -2.5230   -3.1520 O.2     1  UNL1       -0.4540
     14  C          9.3290   -3.6760   -2.3510 C.3     1  UNL1        0.4680
@<TRIPOS>BOND
     1    13    11    1
     2    13    14    1
     3     9    11    2
     4     9     7    1
     5    11    10    1
     6     7     6    2
     7    14    12    1
     8    10    12    1
     9    10     8    2
    10     6     8    1
    11     6     5    1
    12     5     1    1
    13     1     2    1
    14     2     4    2
    15     2     3    1
