@<TRIPOS>MOLECULE
/home/cewinharhar/GITHUB/reincatalyze/data/processed/docking_pred/2023-May-25-1902_sub9_nm5_bs15_s42_ex16_mel10_mts10000_k50_ec01_g099_lra3e-4_lrc3e-3/67ebe37560d6b2ff0daae954040d2bc7ae74be81_ligand_9.pdbqt
 14 15 0 0 0
SMALL
GASTEIGER

@<TRIPOS>ATOM
      1  C          5.8180    1.6270   -0.1300 C.3     1  UNL1        0.0800
      2  C          5.0980    1.3230    1.1380 C.2     1  UNL1        0.1300
      3  C          5.4820    0.1720    1.9980 C.3     1  UNL1        0.0870
      4  O          4.1650    2.0160    1.5100 O.2     1  UNL1       -0.3000
      5  C          7.2840    1.2550   -0.0330 C.3     1  UNL1        0.0430
      6  C          7.5770   -0.0040   -0.7400 C.2     1  UNL1       -0.0440
      7  C          7.4730   -0.1050   -2.1320 C.2     1  UNL1        0.0080
      8  C          7.9650   -1.1140   -0.0240 C.2     1  UNL1        0.0540
      9  C          7.7610   -1.3130   -2.7410 C.2     1  UNL1        0.0510
     10  C          8.2550   -2.3330   -0.6440 C.2     1  UNL1        0.1660
     11  C          8.1520   -2.4330   -2.0140 C.2     1  UNL1        0.1650
     12  O          8.6540   -3.5610   -0.1620 O.2     1  UNL1       -0.4540
     13  O          8.4950   -3.7340   -2.3480 O.2     1  UNL1       -0.4540
     14  C          8.9070   -4.4580   -1.2130 C.3     1  UNL1        0.4680
@<TRIPOS>BOND
     1     9     7    1
     2     9    11    2
     3    13    11    1
     4    13    14    1
     5     7     6    2
     6    11    10    1
     7    14    12    1
     8     6     5    1
     9     6     8    1
    10    10    12    1
    11    10     8    2
    12     1     5    1
    13     1     2    1
    14     2     4    2
    15     2     3    1
