MODEL 1
REMARK VINA RESULT:      -7.7      0.000      0.000
REMARK SMILES CC(=O)CCc1ccc2c(c1)OCO2
REMARK SMILES IDX 4 1 2 2 1 3 3 4 5 5 6 6 7 7 11 8 8 9 10 10 9 11 12 12 14 13
REMARK SMILES IDX 13 14
REMARK H PARENT
REMARK Flexibility Score: inf
ROOT
ATOM      1  C   UNL     1       5.501   1.943   1.248  1.00  0.00     0.080 C 
ENDROOT
BRANCH   1   2
ATOM      2  C   UNL     1       5.077   0.726   1.996  1.00  0.00     0.130 C 
ATOM      3  C   UNL     1       5.984  -0.440   2.169  1.00  0.00     0.087 C 
ATOM      4  O   UNL     1       3.964   0.652   2.492  1.00  0.00    -0.300 OA
ENDBRANCH   1   2
BRANCH   1   5
ATOM      5  C   UNL     1       5.378   1.739  -0.249  1.00  0.00     0.043 C 
BRANCH   5   6
ATOM      6  C   UNL     1       6.549   1.036  -0.803  1.00  0.00    -0.044 A 
ATOM      7  C   UNL     1       7.854   1.468  -0.542  1.00  0.00     0.008 A 
ATOM      8  C   UNL     1       6.365  -0.074  -1.596  1.00  0.00     0.054 A 
ATOM      9  C   UNL     1       8.914   0.768  -1.089  1.00  0.00     0.051 A 
ATOM     10  C   UNL     1       7.440  -0.779  -2.146  1.00  0.00     0.166 A 
ATOM     11  C   UNL     1       8.725  -0.354  -1.890  1.00  0.00     0.165 A 
ATOM     12  O   UNL     1       7.519  -1.894  -2.953  1.00  0.00    -0.454 OA
ATOM     13  O   UNL     1       9.575  -1.227  -2.552  1.00  0.00    -0.454 OA
ATOM     14  C   UNL     1       8.855  -2.271  -3.164  1.00  0.00     0.468 C 
ENDBRANCH   5   6
ENDBRANCH   1   5
TORSDOF 3
ENDMDL
MODEL 2
REMARK VINA RESULT:      -7.5      1.941      2.422
REMARK SMILES CC(=O)CCc1ccc2c(c1)OCO2
REMARK SMILES IDX 4 1 2 2 1 3 3 4 5 5 6 6 7 7 11 8 8 9 10 10 9 11 12 12 14 13
REMARK SMILES IDX 13 14
REMARK H PARENT
REMARK Flexibility Score: inf
ROOT
ATOM      1  C   UNL     1       5.776   1.334  -0.295  1.00  0.00     0.080 C 
ENDROOT
BRANCH   1   2
ATOM      2  C   UNL     1       5.146   1.250   1.052  1.00  0.00     0.130 C 
ATOM      3  C   UNL     1       5.356   0.075   1.940  1.00  0.00     0.087 C 
ATOM      4  O   UNL     1       4.435   2.149   1.468  1.00  0.00    -0.300 OA
ENDBRANCH   1   2
BRANCH   1   5
ATOM      5  C   UNL     1       7.265   1.057  -0.225  1.00  0.00     0.043 C 
BRANCH   5   6
ATOM      6  C   UNL     1       7.611  -0.234  -0.846  1.00  0.00    -0.044 A 
ATOM      7  C   UNL     1       7.628  -0.398  -2.236  1.00  0.00     0.008 A 
ATOM      8  C   UNL     1       7.928  -1.311  -0.050  1.00  0.00     0.054 A 
ATOM      9  C   UNL     1       7.961  -1.633  -2.762  1.00  0.00     0.051 A 
ATOM     10  C   UNL     1       8.265  -2.557  -0.586  1.00  0.00     0.166 A 
ATOM     11  C   UNL     1       8.281  -2.719  -1.954  1.00  0.00     0.165 A 
ATOM     12  O   UNL     1       8.613  -3.763  -0.016  1.00  0.00    -0.454 OA
ATOM     13  O   UNL     1       8.644  -4.035  -2.197  1.00  0.00    -0.454 OA
ATOM     14  C   UNL     1       8.952  -4.707  -0.999  1.00  0.00     0.468 C 
ENDBRANCH   5   6
ENDBRANCH   1   5
TORSDOF 3
ENDMDL
MODEL 3
REMARK VINA RESULT:      -7.3      2.052      2.625
REMARK SMILES CC(=O)CCc1ccc2c(c1)OCO2
REMARK SMILES IDX 4 1 2 2 1 3 3 4 5 5 6 6 7 7 11 8 8 9 10 10 9 11 12 12 14 13
REMARK SMILES IDX 13 14
REMARK H PARENT
REMARK Flexibility Score: inf
ROOT
ATOM      1  C   UNL     1       5.430  -0.043   2.040  1.00  0.00     0.080 C 
ENDROOT
BRANCH   1   2
ATOM      2  C   UNL     1       4.564   1.139   1.773  1.00  0.00     0.130 C 
ATOM      3  C   UNL     1       4.893   2.126   0.710  1.00  0.00     0.087 C 
ATOM      4  O   UNL     1       3.551   1.333   2.425  1.00  0.00    -0.300 OA
ENDBRANCH   1   2
BRANCH   1   5
ATOM      5  C   UNL     1       6.860   0.215   1.607  1.00  0.00     0.043 C 
BRANCH   5   6
ATOM      6  C   UNL     1       7.285  -0.712   0.543  1.00  0.00    -0.044 A 
ATOM      7  C   UNL     1       7.163  -0.379  -0.811  1.00  0.00     0.008 A 
ATOM      8  C   UNL     1       7.817  -1.937   0.878  1.00  0.00     0.054 A 
ATOM      9  C   UNL     1       7.579  -1.289  -1.765  1.00  0.00     0.051 A 
ATOM     10  C   UNL     1       8.237  -2.853  -0.091  1.00  0.00     0.166 A 
ATOM     11  C   UNL     1       8.116  -2.527  -1.424  1.00  0.00     0.165 A 
ATOM     12  O   UNL     1       8.789  -4.114  -0.016  1.00  0.00    -0.454 OA
ATOM     13  O   UNL     1       8.603  -3.605  -2.146  1.00  0.00    -0.454 OA
ATOM     14  C   UNL     1       9.123  -4.596  -1.292  1.00  0.00     0.468 C 
ENDBRANCH   5   6
ENDBRANCH   1   5
TORSDOF 3
ENDMDL
MODEL 4
REMARK VINA RESULT:      -7.1      1.246      1.447
REMARK SMILES CC(=O)CCc1ccc2c(c1)OCO2
REMARK SMILES IDX 4 1 2 2 1 3 3 4 5 5 6 6 7 7 11 8 8 9 10 10 9 11 12 12 14 13
REMARK SMILES IDX 13 14
REMARK H PARENT
REMARK Flexibility Score: inf
ROOT
ATOM      1  C   UNL     1       6.339   1.239   0.927  1.00  0.00     0.080 C 
ENDROOT
BRANCH   1   2
ATOM      2  C   UNL     1       5.641   0.402   1.943  1.00  0.00     0.130 C 
ATOM      3  C   UNL     1       6.277  -0.810   2.526  1.00  0.00     0.087 C 
ATOM      4  O   UNL     1       4.519   0.689   2.327  1.00  0.00    -0.300 OA
ENDBRANCH   1   2
BRANCH   1   5
ATOM      5  C   UNL     1       5.830   0.948  -0.470  1.00  0.00     0.043 C 
BRANCH   5   6
ATOM      6  C   UNL     1       6.783   0.130  -1.240  1.00  0.00    -0.044 A 
ATOM      7  C   UNL     1       7.470   0.648  -2.344  1.00  0.00     0.008 A 
ATOM      8  C   UNL     1       7.013  -1.176  -0.872  1.00  0.00     0.054 A 
ATOM      9  C   UNL     1       8.354  -0.167  -3.028  1.00  0.00     0.051 A 
ATOM     10  C   UNL     1       7.908  -1.996  -1.567  1.00  0.00     0.166 A 
ATOM     11  C   UNL     1       8.583  -1.488  -2.653  1.00  0.00     0.165 A 
ATOM     12  O   UNL     1       8.303  -3.307  -1.402  1.00  0.00    -0.454 OA
ATOM     13  O   UNL     1       9.389  -2.506  -3.138  1.00  0.00    -0.454 OA
ATOM     14  C   UNL     1       9.310  -3.649  -2.319  1.00  0.00     0.468 C 
ENDBRANCH   5   6
ENDBRANCH   1   5
TORSDOF 3
ENDMDL
MODEL 5
REMARK VINA RESULT:      -6.8      1.263      1.769
REMARK SMILES CC(=O)CCc1ccc2c(c1)OCO2
REMARK SMILES IDX 4 1 2 2 1 3 3 4 5 5 6 6 7 7 11 8 8 9 10 10 9 11 12 12 14 13
REMARK SMILES IDX 13 14
REMARK H PARENT
REMARK Flexibility Score: inf
ROOT
ATOM      1  C   UNL     1       5.334  -0.087   1.975  1.00  0.00     0.080 C 
ENDROOT
BRANCH   1   2
ATOM      2  C   UNL     1       4.487   1.120   1.765  1.00  0.00     0.130 C 
ATOM      3  C   UNL     1       4.791   2.110   0.697  1.00  0.00     0.087 C 
ATOM      4  O   UNL     1       3.514   1.334   2.469  1.00  0.00    -0.300 OA
ENDBRANCH   1   2
BRANCH   1   5
ATOM      5  C   UNL     1       6.809   0.259   1.924  1.00  0.00     0.043 C 
BRANCH   5   6
ATOM      6  C   UNL     1       7.405  -0.082   0.620  1.00  0.00    -0.044 A 
ATOM      7  C   UNL     1       7.885   0.906  -0.247  1.00  0.00     0.008 A 
ATOM      8  C   UNL     1       7.499  -1.400   0.236  1.00  0.00     0.054 A 
ATOM      9  C   UNL     1       8.436   0.527  -1.457  1.00  0.00     0.051 A 
ATOM     10  C   UNL     1       8.057  -1.779  -0.988  1.00  0.00     0.166 A 
ATOM     11  C   UNL     1       8.529  -0.807  -1.842  1.00  0.00     0.165 A 
ATOM     12  O   UNL     1       8.261  -3.002  -1.591  1.00  0.00    -0.454 OA
ATOM     13  O   UNL     1       9.018  -1.460  -2.962  1.00  0.00    -0.454 OA
ATOM     14  C   UNL     1       8.951  -2.858  -2.805  1.00  0.00     0.468 C 
ENDBRANCH   5   6
ENDBRANCH   1   5
TORSDOF 3
ENDMDL
