@<TRIPOS>MOLECULE
/home/cewinharhar/GITHUB/reincatalyze/data/processed/docking_pred/2023-May-25-1902_sub9_nm5_bs15_s42_ex16_mel10_mts10000_k50_ec01_g099_lra3e-4_lrc3e-3/6b66a19e3843729fbb18dde59d8ef2ce5f9236cc_ligand_9.pdbqt
 14 15 0 0 0
SMALL
GASTEIGER

@<TRIPOS>ATOM
      1  C          5.6900    1.0620   -0.2650 C.3     1  UNL1        0.0800
      2  C          5.4880    1.4930    1.1460 C.2     1  UNL1        0.1300
      3  C          4.2530    1.1470    1.8990 C.3     1  UNL1        0.0870
      4  O          6.3370    2.1490    1.7280 O.2     1  UNL1       -0.3000
      5  C          7.1630    0.8940   -0.5840 C.3     1  UNL1        0.0430
      6  C          7.6220   -0.4850   -0.3340 C.2     1  UNL1       -0.0440
      7  C          7.8110   -0.9700    0.9640 C.2     1  UNL1        0.0080
      8  C          7.8710   -1.3230   -1.3970 C.2     1  UNL1        0.0540
      9  C          8.2430   -2.2730    1.1370 C.2     1  UNL1        0.0510
     10  C          8.3060   -2.6400   -1.2170 C.2     1  UNL1        0.1660
     11  C          8.4940   -3.1180    0.0610 C.2     1  UNL1        0.1650
     12  O          8.6190   -3.6550   -2.0960 O.2     1  UNL1       -0.4540
     13  O          8.9210   -4.4310   -0.0610 O.2     1  UNL1       -0.4540
     14  C          8.9270   -4.8400   -1.4080 C.3     1  UNL1        0.4680
@<TRIPOS>BOND
     1    12    14    1
     2    12    10    1
     3    14    13    1
     4     8    10    1
     5     8     6    2
     6    10    11    2
     7     5     6    1
     8     5     1    1
     9     6     7    1
    10     1     2    1
    11    13    11    1
    12    11     9    1
    13     7     9    2
    14     2     4    2
    15     2     3    1
