MODEL 1
REMARK VINA RESULT:      -7.3      0.000      0.000
REMARK SMILES CC(=O)CCc1ccc2c(c1)OCO2
REMARK SMILES IDX 4 1 2 2 1 3 3 4 5 5 6 6 7 7 11 8 8 9 10 10 9 11 12 12 14 13
REMARK SMILES IDX 13 14
REMARK H PARENT
REMARK Flexibility Score: inf
ROOT
ATOM      1  C   UNL     1       5.637   2.129   1.134  1.00  0.00     0.080 C 
ENDROOT
BRANCH   1   2
ATOM      2  C   UNL     1       5.414   0.937   2.000  1.00  0.00     0.130 C 
ATOM      3  C   UNL     1       6.520   0.006   2.348  1.00  0.00     0.087 C 
ATOM      4  O   UNL     1       4.307   0.689   2.450  1.00  0.00    -0.300 OA
ENDBRANCH   1   2
BRANCH   1   5
ATOM      5  C   UNL     1       5.447   1.789  -0.331  1.00  0.00     0.043 C 
BRANCH   5   6
ATOM      6  C   UNL     1       6.604   1.058  -0.877  1.00  0.00    -0.044 A 
ATOM      7  C   UNL     1       7.916   1.496  -0.661  1.00  0.00     0.008 A 
ATOM      8  C   UNL     1       6.402  -0.085  -1.617  1.00  0.00     0.054 A 
ATOM      9  C   UNL     1       8.963   0.769  -1.198  1.00  0.00     0.051 A 
ATOM     10  C   UNL     1       7.464  -0.817  -2.157  1.00  0.00     0.166 A 
ATOM     11  C   UNL     1       8.755  -0.386  -1.946  1.00  0.00     0.165 A 
ATOM     12  O   UNL     1       7.523  -1.966  -2.917  1.00  0.00    -0.454 OA
ATOM     13  O   UNL     1       9.589  -1.289  -2.586  1.00  0.00    -0.454 OA
ATOM     14  C   UNL     1       8.854  -2.356  -3.137  1.00  0.00     0.468 C 
ENDBRANCH   5   6
ENDBRANCH   1   5
TORSDOF 3
ENDMDL
MODEL 2
REMARK VINA RESULT:      -7.3      1.845      2.325
REMARK SMILES CC(=O)CCc1ccc2c(c1)OCO2
REMARK SMILES IDX 4 1 2 2 1 3 3 4 5 5 6 6 7 7 11 8 8 9 10 10 9 11 12 12 14 13
REMARK SMILES IDX 13 14
REMARK H PARENT
REMARK Flexibility Score: inf
ROOT
ATOM      1  C   UNL     1       5.734   1.268  -0.310  1.00  0.00     0.080 C 
ENDROOT
BRANCH   1   2
ATOM      2  C   UNL     1       5.289   1.312   1.111  1.00  0.00     0.130 C 
ATOM      3  C   UNL     1       6.007   0.564   2.177  1.00  0.00     0.087 C 
ATOM      4  O   UNL     1       4.314   1.967   1.442  1.00  0.00    -0.300 OA
ENDBRANCH   1   2
BRANCH   1   5
ATOM      5  C   UNL     1       7.238   1.114  -0.411  1.00  0.00     0.043 C 
BRANCH   5   6
ATOM      6  C   UNL     1       7.617  -0.183  -0.999  1.00  0.00    -0.044 A 
ATOM      7  C   UNL     1       7.736  -0.354  -2.383  1.00  0.00     0.008 A 
ATOM      8  C   UNL     1       7.863  -1.259  -0.176  1.00  0.00     0.054 A 
ATOM      9  C   UNL     1       8.095  -1.595  -2.877  1.00  0.00     0.051 A 
ATOM     10  C   UNL     1       8.227  -2.511  -0.681  1.00  0.00     0.166 A 
ATOM     11  C   UNL     1       8.343  -2.680  -2.042  1.00  0.00     0.165 A 
ATOM     12  O   UNL     1       8.519  -3.717  -0.080  1.00  0.00    -0.454 OA
ATOM     13  O   UNL     1       8.710  -4.001  -2.252  1.00  0.00    -0.454 OA
ATOM     14  C   UNL     1       8.920  -4.670  -1.032  1.00  0.00     0.468 C 
ENDBRANCH   5   6
ENDBRANCH   1   5
TORSDOF 3
ENDMDL
MODEL 3
REMARK VINA RESULT:      -7.2      1.960      2.542
REMARK SMILES CC(=O)CCc1ccc2c(c1)OCO2
REMARK SMILES IDX 4 1 2 2 1 3 3 4 5 5 6 6 7 7 11 8 8 9 10 10 9 11 12 12 14 13
REMARK SMILES IDX 13 14
REMARK H PARENT
REMARK Flexibility Score: inf
ROOT
ATOM      1  C   UNL     1       6.428   0.814   1.389  1.00  0.00     0.080 C 
ENDROOT
BRANCH   1   2
ATOM      2  C   UNL     1       5.183   1.547   1.026  1.00  0.00     0.130 C 
ATOM      3  C   UNL     1       4.998   2.150  -0.321  1.00  0.00     0.087 C 
ATOM      4  O   UNL     1       4.274   1.674   1.829  1.00  0.00    -0.300 OA
ENDBRANCH   1   2
BRANCH   1   5
ATOM      5  C   UNL     1       7.514   1.025   0.353  1.00  0.00     0.043 C 
BRANCH   5   6
ATOM      6  C   UNL     1       7.793  -0.208  -0.405  1.00  0.00    -0.044 A 
ATOM      7  C   UNL     1       7.782  -0.227  -1.804  1.00  0.00     0.008 A 
ATOM      8  C   UNL     1       8.075  -1.374   0.270  1.00  0.00     0.054 A 
ATOM      9  C   UNL     1       8.053  -1.414  -2.461  1.00  0.00     0.051 A 
ATOM     10  C   UNL     1       8.348  -2.571  -0.399  1.00  0.00     0.166 A 
ATOM     11  C   UNL     1       8.336  -2.591  -1.776  1.00  0.00     0.165 A 
ATOM     12  O   UNL     1       8.651  -3.843   0.037  1.00  0.00    -0.454 OA
ATOM     13  O   UNL     1       8.637  -3.888  -2.160  1.00  0.00    -0.454 OA
ATOM     14  C   UNL     1       8.932  -4.694  -1.044  1.00  0.00     0.468 C 
ENDBRANCH   5   6
ENDBRANCH   1   5
TORSDOF 3
ENDMDL
MODEL 4
REMARK VINA RESULT:      -6.9      1.232      1.438
REMARK SMILES CC(=O)CCc1ccc2c(c1)OCO2
REMARK SMILES IDX 4 1 2 2 1 3 3 4 5 5 6 6 7 7 11 8 8 9 10 10 9 11 12 12 14 13
REMARK SMILES IDX 13 14
REMARK H PARENT
REMARK Flexibility Score: inf
ROOT
ATOM      1  C   UNL     1       6.458   1.501   0.675  1.00  0.00     0.080 C 
ENDROOT
BRANCH   1   2
ATOM      2  C   UNL     1       5.943   0.722   1.835  1.00  0.00     0.130 C 
ATOM      3  C   UNL     1       6.785  -0.284   2.536  1.00  0.00     0.087 C 
ATOM      4  O   UNL     1       4.806   0.889   2.247  1.00  0.00    -0.300 OA
ENDBRANCH   1   2
BRANCH   1   5
ATOM      5  C   UNL     1       5.882   0.990  -0.631  1.00  0.00     0.043 C 
BRANCH   5   6
ATOM      6  C   UNL     1       6.837   0.128  -1.349  1.00  0.00    -0.044 A 
ATOM      7  C   UNL     1       7.569   0.599  -2.445  1.00  0.00     0.008 A 
ATOM      8  C   UNL     1       7.024  -1.173  -0.940  1.00  0.00     0.054 A 
ATOM      9  C   UNL     1       8.452  -0.255  -3.080  1.00  0.00     0.051 A 
ATOM     10  C   UNL     1       7.918  -2.032  -1.584  1.00  0.00     0.166 A 
ATOM     11  C   UNL     1       8.638  -1.570  -2.664  1.00  0.00     0.165 A 
ATOM     12  O   UNL     1       8.276  -3.347  -1.373  1.00  0.00    -0.454 OA
ATOM     13  O   UNL     1       9.432  -2.620  -3.096  1.00  0.00    -0.454 OA
ATOM     14  C   UNL     1       9.301  -3.738  -2.250  1.00  0.00     0.468 C 
ENDBRANCH   5   6
ENDBRANCH   1   5
TORSDOF 3
ENDMDL
MODEL 5
REMARK VINA RESULT:      -6.6      2.286      2.671
REMARK SMILES CC(=O)CCc1ccc2c(c1)OCO2
REMARK SMILES IDX 4 1 2 2 1 3 3 4 5 5 6 6 7 7 11 8 8 9 10 10 9 11 12 12 14 13
REMARK SMILES IDX 13 14
REMARK H PARENT
REMARK Flexibility Score: inf
ROOT
ATOM      1  C   UNL     1       5.690   1.062  -0.265  1.00  0.00     0.080 C 
ENDROOT
BRANCH   1   2
ATOM      2  C   UNL     1       5.488   1.493   1.146  1.00  0.00     0.130 C 
ATOM      3  C   UNL     1       4.253   1.147   1.899  1.00  0.00     0.087 C 
ATOM      4  O   UNL     1       6.337   2.149   1.728  1.00  0.00    -0.300 OA
ENDBRANCH   1   2
BRANCH   1   5
ATOM      5  C   UNL     1       7.163   0.894  -0.584  1.00  0.00     0.043 C 
BRANCH   5   6
ATOM      6  C   UNL     1       7.622  -0.485  -0.334  1.00  0.00    -0.044 A 
ATOM      7  C   UNL     1       7.811  -0.970   0.964  1.00  0.00     0.008 A 
ATOM      8  C   UNL     1       7.871  -1.323  -1.397  1.00  0.00     0.054 A 
ATOM      9  C   UNL     1       8.243  -2.273   1.137  1.00  0.00     0.051 A 
ATOM     10  C   UNL     1       8.306  -2.640  -1.217  1.00  0.00     0.166 A 
ATOM     11  C   UNL     1       8.494  -3.118   0.061  1.00  0.00     0.165 A 
ATOM     12  O   UNL     1       8.619  -3.655  -2.096  1.00  0.00    -0.454 OA
ATOM     13  O   UNL     1       8.921  -4.431  -0.061  1.00  0.00    -0.454 OA
ATOM     14  C   UNL     1       8.927  -4.840  -1.408  1.00  0.00     0.468 C 
ENDBRANCH   5   6
ENDBRANCH   1   5
TORSDOF 3
ENDMDL
