@<TRIPOS>MOLECULE
/home/cewinharhar/GITHUB/reincatalyze/data/processed/docking_pred/2023-May-25-1902_sub9_nm5_bs15_s42_ex16_mel10_mts10000_k50_ec01_g099_lra3e-4_lrc3e-3/6ceeb54199aca0c96a32aff90fdf9e1d9b8e1f8c_ligand_9.pdbqt
 14 15 0 0 0
SMALL
GASTEIGER

@<TRIPOS>ATOM
      1  C          5.7770    1.3860   -0.3510 C.3     1  UNL1        0.0800
      2  C          5.1290    1.3050    0.9880 C.2     1  UNL1        0.1300
      3  C          5.4360    0.2020    1.9380 C.3     1  UNL1        0.0870
      4  O          4.3230    2.1480    1.3460 O.2     1  UNL1       -0.3000
      5  C          7.2630    1.1010   -0.2620 C.3     1  UNL1        0.0430
      6  C          7.6100   -0.1890   -0.8850 C.2     1  UNL1       -0.0440
      7  C          7.6240   -0.3520   -2.2750 C.2     1  UNL1        0.0080
      8  C          7.9310   -1.2660   -0.0900 C.2     1  UNL1        0.0540
      9  C          7.9580   -1.5860   -2.8020 C.2     1  UNL1        0.0510
     10  C          8.2690   -2.5110   -0.6280 C.2     1  UNL1        0.1660
     11  C          8.2820   -2.6730   -1.9950 C.2     1  UNL1        0.1650
     12  O          8.6210   -3.7170   -0.0590 O.2     1  UNL1       -0.4540
     13  O          8.6470   -3.9870   -2.2400 O.2     1  UNL1       -0.4540
     14  C          8.9590   -4.6600   -1.0430 C.3     1  UNL1        0.4680
@<TRIPOS>BOND
     1     9     7    1
     2     9    11    2
     3     7     6    2
     4    13    11    1
     5    13    14    1
     6    11    10    1
     7    14    12    1
     8     6     5    1
     9     6     8    1
    10    10     8    2
    11    10    12    1
    12     1     5    1
    13     1     2    1
    14     2     4    2
    15     2     3    1
