@<TRIPOS>MOLECULE
/home/cewinharhar/GITHUB/reincatalyze/data/processed/docking_pred/2023-May-25-1902_sub9_nm5_bs15_s42_ex16_mel10_mts10000_k50_ec01_g099_lra3e-4_lrc3e-3/6ceeb54199aca0c96a32aff90fdf9e1d9b8e1f8c_ligand_9.pdbqt
 14 15 0 0 0
SMALL
GASTEIGER

@<TRIPOS>ATOM
      1  C          5.4110   -0.0700    1.9960 C.3     1  UNL1        0.0800
      2  C          4.5700    1.1350    1.7540 C.2     1  UNL1        0.1300
      3  C          4.8890    2.1060    0.6730 C.3     1  UNL1        0.0870
      4  O          3.5870    1.3610    2.4410 O.2     1  UNL1       -0.3000
      5  C          6.8510    0.1730    1.5900 C.3     1  UNL1        0.0430
      6  C          7.2840   -0.7550    0.5300 C.2     1  UNL1       -0.0440
      7  C          7.1610   -0.4290   -0.8250 C.2     1  UNL1        0.0080
      8  C          7.8260   -1.9740    0.8700 C.2     1  UNL1        0.0540
      9  C          7.5850   -1.3400   -1.7760 C.2     1  UNL1        0.0510
     10  C          8.2540   -2.8910   -0.0940 C.2     1  UNL1        0.1660
     11  C          8.1320   -2.5710   -1.4280 C.2     1  UNL1        0.1650
     12  O          8.8170   -4.1470   -0.0120 O.2     1  UNL1       -0.4540
     13  O          8.6290   -3.6490   -2.1450 O.2     1  UNL1       -0.4540
     14  C          9.1560   -4.6310   -1.2860 C.3     1  UNL1        0.4680
@<TRIPOS>BOND
     1    13    11    1
     2    13    14    1
     3     9    11    2
     4     9     7    1
     5    11    10    1
     6    14    12    1
     7     7     6    2
     8    10    12    1
     9    10     8    2
    10     6     8    1
    11     6     5    1
    12     3     2    1
    13     5     1    1
    14     2     1    1
    15     2     4    2
