@<TRIPOS>MOLECULE
/home/cewinharhar/GITHUB/reincatalyze/data/processed/docking_pred/2023-May-25-1902_sub9_nm5_bs15_s42_ex16_mel10_mts10000_k50_ec01_g099_lra3e-4_lrc3e-3/6d158fe290fd5017d73aec191e5eef2bb245b649_ligand_9.pdbqt
 14 15 0 0 0
SMALL
GASTEIGER

@<TRIPOS>ATOM
      1  C          6.3440    1.2490    0.8990 C.3     1  UNL1        0.0800
      2  C          5.6540    0.4140    1.9220 C.2     1  UNL1        0.1300
      3  C          6.2930   -0.7980    2.5010 C.3     1  UNL1        0.0870
      4  O          4.5350    0.7030    2.3160 O.2     1  UNL1       -0.3000
      5  C          5.8310    0.9470   -0.4950 C.3     1  UNL1        0.0430
      6  C          6.7870    0.1320   -1.2650 C.2     1  UNL1       -0.0440
      7  C          7.4800    0.6560   -2.3620 C.2     1  UNL1        0.0080
      8  C          7.0140   -1.1770   -0.9040 C.2     1  UNL1        0.0540
      9  C          8.3670   -0.1560   -3.0460 C.2     1  UNL1        0.0510
     10  C          7.9120   -1.9930   -1.5990 C.2     1  UNL1        0.1660
     11  C          8.5930   -1.4780   -2.6790 C.2     1  UNL1        0.1650
     12  O          8.3050   -3.3050   -1.4400 O.2     1  UNL1       -0.4540
     13  O          9.4000   -2.4950   -3.1650 O.2     1  UNL1       -0.4540
     14  C          9.3160   -3.6430   -2.3540 C.3     1  UNL1        0.4680
@<TRIPOS>BOND
     1    13    11    1
     2    13    14    1
     3     9    11    2
     4     9     7    1
     5    11    10    1
     6     7     6    2
     7    14    12    1
     8    10    12    1
     9    10     8    2
    10     6     8    1
    11     6     5    1
    12     5     1    1
    13     1     2    1
    14     2     4    2
    15     2     3    1
