MODEL 1
REMARK VINA RESULT:      -7.7      0.000      0.000
REMARK SMILES CC(=O)CCc1ccc2c(c1)OCO2
REMARK SMILES IDX 4 1 2 2 1 3 3 4 5 5 6 6 7 7 11 8 8 9 10 10 9 11 12 12 14 13
REMARK SMILES IDX 13 14
REMARK H PARENT
REMARK Flexibility Score: inf
ROOT
ATOM      1  C   UNL     1       5.520   1.902   1.270  1.00  0.00     0.080 C 
ENDROOT
BRANCH   1   2
ATOM      2  C   UNL     1       5.042   0.694   2.000  1.00  0.00     0.130 C 
ATOM      3  C   UNL     1       5.883  -0.527   2.123  1.00  0.00     0.087 C 
ATOM      4  O   UNL     1       3.939   0.672   2.520  1.00  0.00    -0.300 OA
ENDBRANCH   1   2
BRANCH   1   5
ATOM      5  C   UNL     1       5.397   1.722  -0.231  1.00  0.00     0.043 C 
BRANCH   5   6
ATOM      6  C   UNL     1       6.566   1.025  -0.795  1.00  0.00    -0.044 A 
ATOM      7  C   UNL     1       7.872   1.465  -0.548  1.00  0.00     0.008 A 
ATOM      8  C   UNL     1       6.382  -0.088  -1.583  1.00  0.00     0.054 A 
ATOM      9  C   UNL     1       8.931   0.770  -1.104  1.00  0.00     0.051 A 
ATOM     10  C   UNL     1       7.455  -0.788  -2.142  1.00  0.00     0.166 A 
ATOM     11  C   UNL     1       8.740  -0.355  -1.901  1.00  0.00     0.165 A 
ATOM     12  O   UNL     1       7.532  -1.904  -2.947  1.00  0.00    -0.454 OA
ATOM     13  O   UNL     1       9.588  -1.224  -2.569  1.00  0.00    -0.454 OA
ATOM     14  C   UNL     1       8.869  -2.274  -3.171  1.00  0.00     0.468 C 
ENDBRANCH   5   6
ENDBRANCH   1   5
TORSDOF 3
ENDMDL
MODEL 2
REMARK VINA RESULT:      -7.5      1.912      2.360
REMARK SMILES CC(=O)CCc1ccc2c(c1)OCO2
REMARK SMILES IDX 4 1 2 2 1 3 3 4 5 5 6 6 7 7 11 8 8 9 10 10 9 11 12 12 14 13
REMARK SMILES IDX 13 14
REMARK H PARENT
REMARK Flexibility Score: inf
ROOT
ATOM      1  C   UNL     1       5.765   1.392  -0.301  1.00  0.00     0.080 C 
ENDROOT
BRANCH   1   2
ATOM      2  C   UNL     1       5.098   1.293   1.027  1.00  0.00     0.130 C 
ATOM      3  C   UNL     1       5.359   0.156   1.949  1.00  0.00     0.087 C 
ATOM      4  O   UNL     1       4.311   2.149   1.399  1.00  0.00    -0.300 OA
ENDBRANCH   1   2
BRANCH   1   5
ATOM      5  C   UNL     1       7.253   1.125  -0.191  1.00  0.00     0.043 C 
BRANCH   5   6
ATOM      6  C   UNL     1       7.627  -0.154  -0.820  1.00  0.00    -0.044 A 
ATOM      7  C   UNL     1       7.710  -0.290  -2.211  1.00  0.00     0.008 A 
ATOM      8  C   UNL     1       7.906  -1.246  -0.032  1.00  0.00     0.054 A 
ATOM      9  C   UNL     1       8.066  -1.514  -2.745  1.00  0.00     0.051 A 
ATOM     10  C   UNL     1       8.267  -2.482  -0.577  1.00  0.00     0.166 A 
ATOM     11  C   UNL     1       8.347  -2.617  -1.945  1.00  0.00     0.165 A 
ATOM     12  O   UNL     1       8.587  -3.700  -0.015  1.00  0.00    -0.454 OA
ATOM     13  O   UNL     1       8.720  -3.928  -2.197  1.00  0.00    -0.454 OA
ATOM     14  C   UNL     1       8.971  -4.625  -1.000  1.00  0.00     0.468 C 
ENDBRANCH   5   6
ENDBRANCH   1   5
TORSDOF 3
ENDMDL
MODEL 3
REMARK VINA RESULT:      -7.2      2.095      2.614
REMARK SMILES CC(=O)CCc1ccc2c(c1)OCO2
REMARK SMILES IDX 4 1 2 2 1 3 3 4 5 5 6 6 7 7 11 8 8 9 10 10 9 11 12 12 14 13
REMARK SMILES IDX 13 14
REMARK H PARENT
REMARK Flexibility Score: inf
ROOT
ATOM      1  C   UNL     1       5.634   0.085   1.965  1.00  0.00     0.080 C 
ENDROOT
BRANCH   1   2
ATOM      2  C   UNL     1       4.700   1.189   1.610  1.00  0.00     0.130 C 
ATOM      3  C   UNL     1       4.981   2.116   0.481  1.00  0.00     0.087 C 
ATOM      4  O   UNL     1       3.670   1.366   2.240  1.00  0.00    -0.300 OA
ENDBRANCH   1   2
BRANCH   1   5
ATOM      5  C   UNL     1       7.027   0.347   1.426  1.00  0.00     0.043 C 
BRANCH   5   6
ATOM      6  C   UNL     1       7.412  -0.644   0.405  1.00  0.00    -0.044 A 
ATOM      7  C   UNL     1       7.296  -0.371  -0.963  1.00  0.00     0.008 A 
ATOM      8  C   UNL     1       7.902  -1.870   0.795  1.00  0.00     0.054 A 
ATOM      9  C   UNL     1       7.674  -1.339  -1.875  1.00  0.00     0.051 A 
ATOM     10  C   UNL     1       8.283  -2.845  -0.131  1.00  0.00     0.166 A 
ATOM     11  C   UNL     1       8.168  -2.578  -1.477  1.00  0.00     0.165 A 
ATOM     12  O   UNL     1       8.790  -4.121   0.002  1.00  0.00    -0.454 OA
ATOM     13  O   UNL     1       8.612  -3.706  -2.150  1.00  0.00    -0.454 OA
ATOM     14  C   UNL     1       9.100  -4.673  -1.251  1.00  0.00     0.468 C 
ENDBRANCH   5   6
ENDBRANCH   1   5
TORSDOF 3
ENDMDL
MODEL 4
REMARK VINA RESULT:      -7.1      1.258      1.473
REMARK SMILES CC(=O)CCc1ccc2c(c1)OCO2
REMARK SMILES IDX 4 1 2 2 1 3 3 4 5 5 6 6 7 7 11 8 8 9 10 10 9 11 12 12 14 13
REMARK SMILES IDX 13 14
REMARK H PARENT
REMARK Flexibility Score: inf
ROOT
ATOM      1  C   UNL     1       6.372   1.175   0.916  1.00  0.00     0.080 C 
ENDROOT
BRANCH   1   2
ATOM      2  C   UNL     1       5.653   0.362   1.936  1.00  0.00     0.130 C 
ATOM      3  C   UNL     1       6.254  -0.866   2.522  1.00  0.00     0.087 C 
ATOM      4  O   UNL     1       4.540   0.682   2.322  1.00  0.00    -0.300 OA
ENDBRANCH   1   2
BRANCH   1   5
ATOM      5  C   UNL     1       5.860   0.886  -0.480  1.00  0.00     0.043 C 
BRANCH   5   6
ATOM      6  C   UNL     1       6.814   0.074  -1.255  1.00  0.00    -0.044 A 
ATOM      7  C   UNL     1       7.504   0.602  -2.353  1.00  0.00     0.008 A 
ATOM      8  C   UNL     1       7.043  -1.236  -0.899  1.00  0.00     0.054 A 
ATOM      9  C   UNL     1       8.389  -0.208  -3.042  1.00  0.00     0.051 A 
ATOM     10  C   UNL     1       7.939  -2.050  -1.599  1.00  0.00     0.166 A 
ATOM     11  C   UNL     1       8.617  -1.531  -2.679  1.00  0.00     0.165 A 
ATOM     12  O   UNL     1       8.333  -3.362  -1.445  1.00  0.00    -0.454 OA
ATOM     13  O   UNL     1       9.423  -2.546  -3.171  1.00  0.00    -0.454 OA
ATOM     14  C   UNL     1       9.342  -3.696  -2.363  1.00  0.00     0.468 C 
ENDBRANCH   5   6
ENDBRANCH   1   5
TORSDOF 3
ENDMDL
MODEL 5
REMARK VINA RESULT:      -6.8      1.270      1.750
REMARK SMILES CC(=O)CCc1ccc2c(c1)OCO2
REMARK SMILES IDX 4 1 2 2 1 3 3 4 5 5 6 6 7 7 11 8 8 9 10 10 9 11 12 12 14 13
REMARK SMILES IDX 13 14
REMARK H PARENT
REMARK Flexibility Score: inf
ROOT
ATOM      1  C   UNL     1       5.317  -0.064   1.962  1.00  0.00     0.080 C 
ENDROOT
BRANCH   1   2
ATOM      2  C   UNL     1       4.442   1.128   1.779  1.00  0.00     0.130 C 
ATOM      3  C   UNL     1       4.724   2.150   0.736  1.00  0.00     0.087 C 
ATOM      4  O   UNL     1       3.463   1.301   2.486  1.00  0.00    -0.300 OA
ENDBRANCH   1   2
BRANCH   1   5
ATOM      5  C   UNL     1       6.783   0.314   1.898  1.00  0.00     0.043 C 
BRANCH   5   6
ATOM      6  C   UNL     1       7.385  -0.048   0.603  1.00  0.00    -0.044 A 
ATOM      7  C   UNL     1       7.872   0.925  -0.277  1.00  0.00     0.008 A 
ATOM      8  C   UNL     1       7.478  -1.373   0.240  1.00  0.00     0.054 A 
ATOM      9  C   UNL     1       8.428   0.526  -1.479  1.00  0.00     0.051 A 
ATOM     10  C   UNL     1       8.041  -1.771  -0.976  1.00  0.00     0.166 A 
ATOM     11  C   UNL     1       8.519  -0.814  -1.843  1.00  0.00     0.165 A 
ATOM     12  O   UNL     1       8.245  -3.004  -1.558  1.00  0.00    -0.454 OA
ATOM     13  O   UNL     1       9.013  -1.486  -2.950  1.00  0.00    -0.454 OA
ATOM     14  C   UNL     1       8.941  -2.881  -2.771  1.00  0.00     0.468 C 
ENDBRANCH   5   6
ENDBRANCH   1   5
TORSDOF 3
ENDMDL
