@<TRIPOS>MOLECULE
/home/cewinharhar/GITHUB/reincatalyze/data/processed/docking_pred/2023-May-25-1902_sub9_nm5_bs15_s42_ex16_mel10_mts10000_k50_ec01_g099_lra3e-4_lrc3e-3/6dc168e099aae66a1c19408847f7f9495b2b5216_ligand_9.pdbqt
 14 15 0 0 0
SMALL
GASTEIGER

@<TRIPOS>ATOM
      1  C          5.3170   -0.0640    1.9620 C.3     1  UNL1        0.0800
      2  C          4.4420    1.1280    1.7790 C.2     1  UNL1        0.1300
      3  C          4.7240    2.1500    0.7360 C.3     1  UNL1        0.0870
      4  O          3.4630    1.3010    2.4860 O.2     1  UNL1       -0.3000
      5  C          6.7830    0.3140    1.8980 C.3     1  UNL1        0.0430
      6  C          7.3850   -0.0480    0.6030 C.2     1  UNL1       -0.0440
      7  C          7.8720    0.9250   -0.2770 C.2     1  UNL1        0.0080
      8  C          7.4780   -1.3730    0.2400 C.2     1  UNL1        0.0540
      9  C          8.4280    0.5260   -1.4790 C.2     1  UNL1        0.0510
     10  C          8.0410   -1.7710   -0.9760 C.2     1  UNL1        0.1660
     11  C          8.5190   -0.8140   -1.8430 C.2     1  UNL1        0.1650
     12  O          8.2450   -3.0040   -1.5580 O.2     1  UNL1       -0.4540
     13  O          9.0130   -1.4860   -2.9500 O.2     1  UNL1       -0.4540
     14  C          8.9410   -2.8810   -2.7710 C.3     1  UNL1        0.4680
@<TRIPOS>BOND
     1    13    14    1
     2    13    11    1
     3    14    12    1
     4    11     9    2
     5    11    10    1
     6    12    10    1
     7     9     7    1
     8    10     8    2
     9     7     6    2
    10     8     6    1
    11     6     5    1
    12     3     2    1
    13     2     1    1
    14     2     4    2
    15     5     1    1
