@<TRIPOS>MOLECULE
/home/cewinharhar/GITHUB/reincatalyze/data/processed/docking_pred/2023-May-25-1902_sub9_nm5_bs15_s42_ex16_mel10_mts10000_k50_ec01_g099_lra3e-4_lrc3e-3/6dc168e099aae66a1c19408847f7f9495b2b5216_ligand_9.pdbqt
 14 15 0 0 0
SMALL
GASTEIGER

@<TRIPOS>ATOM
      1  C          6.3720    1.1750    0.9160 C.3     1  UNL1        0.0800
      2  C          5.6530    0.3620    1.9360 C.2     1  UNL1        0.1300
      3  C          6.2540   -0.8660    2.5220 C.3     1  UNL1        0.0870
      4  O          4.5400    0.6820    2.3220 O.2     1  UNL1       -0.3000
      5  C          5.8600    0.8860   -0.4800 C.3     1  UNL1        0.0430
      6  C          6.8140    0.0740   -1.2550 C.2     1  UNL1       -0.0440
      7  C          7.5040    0.6020   -2.3530 C.2     1  UNL1        0.0080
      8  C          7.0430   -1.2360   -0.8990 C.2     1  UNL1        0.0540
      9  C          8.3890   -0.2080   -3.0420 C.2     1  UNL1        0.0510
     10  C          7.9390   -2.0500   -1.5990 C.2     1  UNL1        0.1660
     11  C          8.6170   -1.5310   -2.6790 C.2     1  UNL1        0.1650
     12  O          8.3330   -3.3620   -1.4450 O.2     1  UNL1       -0.4540
     13  O          9.4230   -2.5460   -3.1710 O.2     1  UNL1       -0.4540
     14  C          9.3420   -3.6960   -2.3630 C.3     1  UNL1        0.4680
@<TRIPOS>BOND
     1    13    11    1
     2    13    14    1
     3     9    11    2
     4     9     7    1
     5    11    10    1
     6    14    12    1
     7     7     6    2
     8    10    12    1
     9    10     8    2
    10     6     8    1
    11     6     5    1
    12     5     1    1
    13     1     2    1
    14     2     4    2
    15     2     3    1
