@<TRIPOS>MOLECULE
/home/cewinharhar/GITHUB/reincatalyze/data/processed/docking_pred/2023-May-25-1902_sub9_nm5_bs15_s42_ex16_mel10_mts10000_k50_ec01_g099_lra3e-4_lrc3e-3/6dc168e099aae66a1c19408847f7f9495b2b5216_ligand_9.pdbqt
 14 15 0 0 0
SMALL
GASTEIGER

@<TRIPOS>ATOM
      1  C          5.5200    1.9020    1.2700 C.3     1  UNL1        0.0800
      2  C          5.0420    0.6940    2.0000 C.2     1  UNL1        0.1300
      3  C          5.8830   -0.5270    2.1230 C.3     1  UNL1        0.0870
      4  O          3.9390    0.6720    2.5200 O.2     1  UNL1       -0.3000
      5  C          5.3970    1.7220   -0.2310 C.3     1  UNL1        0.0430
      6  C          6.5660    1.0250   -0.7950 C.2     1  UNL1       -0.0440
      7  C          7.8720    1.4650   -0.5480 C.2     1  UNL1        0.0080
      8  C          6.3820   -0.0880   -1.5830 C.2     1  UNL1        0.0540
      9  C          8.9310    0.7700   -1.1040 C.2     1  UNL1        0.0510
     10  C          7.4550   -0.7880   -2.1420 C.2     1  UNL1        0.1660
     11  C          8.7400   -0.3550   -1.9010 C.2     1  UNL1        0.1650
     12  O          7.5320   -1.9040   -2.9470 O.2     1  UNL1       -0.4540
     13  O          9.5880   -1.2240   -2.5690 O.2     1  UNL1       -0.4540
     14  C          8.8690   -2.2740   -3.1710 C.3     1  UNL1        0.4680
@<TRIPOS>BOND
     1    14    12    1
     2    14    13    1
     3    12    10    1
     4    13    11    1
     5    10    11    2
     6    10     8    1
     7    11     9    1
     8     8     6    2
     9     9     7    2
    10     6     7    1
    11     6     5    1
    12     5     1    1
    13     1     2    1
    14     2     3    1
    15     2     4    2
