@<TRIPOS>MOLECULE
/home/cewinharhar/GITHUB/reincatalyze/data/processed/docking_pred/2023-May-25-1902_sub9_nm5_bs15_s42_ex16_mel10_mts10000_k50_ec01_g099_lra3e-4_lrc3e-3/6dc168e099aae66a1c19408847f7f9495b2b5216_ligand_9.pdbqt
 14 15 0 0 0
SMALL
GASTEIGER

@<TRIPOS>ATOM
      1  C          5.7650    1.3920   -0.3010 C.3     1  UNL1        0.0800
      2  C          5.0980    1.2930    1.0270 C.2     1  UNL1        0.1300
      3  C          5.3590    0.1560    1.9490 C.3     1  UNL1        0.0870
      4  O          4.3110    2.1490    1.3990 O.2     1  UNL1       -0.3000
      5  C          7.2530    1.1250   -0.1910 C.3     1  UNL1        0.0430
      6  C          7.6270   -0.1540   -0.8200 C.2     1  UNL1       -0.0440
      7  C          7.7100   -0.2900   -2.2110 C.2     1  UNL1        0.0080
      8  C          7.9060   -1.2460   -0.0320 C.2     1  UNL1        0.0540
      9  C          8.0660   -1.5140   -2.7450 C.2     1  UNL1        0.0510
     10  C          8.2670   -2.4820   -0.5770 C.2     1  UNL1        0.1660
     11  C          8.3470   -2.6170   -1.9450 C.2     1  UNL1        0.1650
     12  O          8.5870   -3.7000   -0.0150 O.2     1  UNL1       -0.4540
     13  O          8.7200   -3.9280   -2.1970 O.2     1  UNL1       -0.4540
     14  C          8.9710   -4.6250   -1.0000 C.3     1  UNL1        0.4680
@<TRIPOS>BOND
     1     9     7    1
     2     9    11    2
     3     7     6    2
     4    13    11    1
     5    13    14    1
     6    11    10    1
     7    14    12    1
     8     6     5    1
     9     6     8    1
    10    10     8    2
    11    10    12    1
    12     1     5    1
    13     1     2    1
    14     2     4    2
    15     2     3    1
