@<TRIPOS>MOLECULE
/home/cewinharhar/GITHUB/reincatalyze/data/processed/docking_pred/2023-May-25-1902_sub9_nm5_bs15_s42_ex16_mel10_mts10000_k50_ec01_g099_lra3e-4_lrc3e-3/6e01533e6265e20f53eb8495178921d7241890ed_ligand_9.pdbqt
 14 15 0 0 0
SMALL
GASTEIGER

@<TRIPOS>ATOM
      1  C          5.6810    1.4230   -0.2160 C.3     1  UNL1        0.0800
      2  C          5.0250    1.2630    1.1110 C.2     1  UNL1        0.1300
      3  C          5.3890    0.1550    2.0340 C.3     1  UNL1        0.0870
      4  O          4.1630    2.0440    1.4820 O.2     1  UNL1       -0.3000
      5  C          7.1700    1.1540   -0.1300 C.3     1  UNL1        0.0430
      6  C          7.5310   -0.1300   -0.7580 C.2     1  UNL1       -0.0440
      7  C          7.5240   -0.2940   -2.1470 C.2     1  UNL1        0.0080
      8  C          7.8880   -1.1990    0.0330 C.2     1  UNL1        0.0540
      9  C          7.8730   -1.5220   -2.6800 C.2     1  UNL1        0.0510
     10  C          8.2400   -2.4380   -0.5100 C.2     1  UNL1        0.1660
     11  C          8.2320   -2.6010   -1.8780 C.2     1  UNL1        0.1650
     12  O          8.6250   -3.6360    0.0540 O.2     1  UNL1       -0.4540
     13  O          8.6180   -3.9090   -2.1280 O.2     1  UNL1       -0.4540
     14  C          8.9640   -4.5730   -0.9360 C.3     1  UNL1        0.4680
@<TRIPOS>BOND
     1     9     7    1
     2     9    11    2
     3     7     6    2
     4    13    11    1
     5    13    14    1
     6    11    10    1
     7    14    12    1
     8     6     5    1
     9     6     8    1
    10    10     8    2
    11    10    12    1
    12     1     5    1
    13     1     2    1
    14     2     4    2
    15     2     3    1
