MODEL 1
REMARK VINA RESULT:      -7.6      0.000      0.000
REMARK SMILES CC(=O)CCc1ccc2c(c1)OCO2
REMARK SMILES IDX 4 1 2 2 1 3 3 4 5 5 6 6 7 7 11 8 8 9 10 10 9 11 12 12 14 13
REMARK SMILES IDX 13 14
REMARK H PARENT
REMARK Flexibility Score: inf
ROOT
ATOM      1  C   UNL     1       5.550   1.879   1.299  1.00  0.00     0.080 C 
ENDROOT
BRANCH   1   2
ATOM      2  C   UNL     1       5.103   0.656   2.023  1.00  0.00     0.130 C 
ATOM      3  C   UNL     1       5.990  -0.528   2.177  1.00  0.00     0.087 C 
ATOM      4  O   UNL     1       3.988   0.591   2.513  1.00  0.00    -0.300 OA
ENDBRANCH   1   2
BRANCH   1   5
ATOM      5  C   UNL     1       5.414   1.711  -0.202  1.00  0.00     0.043 C 
BRANCH   5   6
ATOM      6  C   UNL     1       6.579   1.018  -0.782  1.00  0.00    -0.044 A 
ATOM      7  C   UNL     1       7.886   1.463  -0.552  1.00  0.00     0.008 A 
ATOM      8  C   UNL     1       6.388  -0.095  -1.568  1.00  0.00     0.054 A 
ATOM      9  C   UNL     1       8.939   0.772  -1.122  1.00  0.00     0.051 A 
ATOM     10  C   UNL     1       7.457  -0.791  -2.141  1.00  0.00     0.166 A 
ATOM     11  C   UNL     1       8.743  -0.353  -1.916  1.00  0.00     0.165 A 
ATOM     12  O   UNL     1       7.527  -1.907  -2.948  1.00  0.00    -0.454 OA
ATOM     13  O   UNL     1       9.585  -1.219  -2.596  1.00  0.00    -0.454 OA
ATOM     14  C   UNL     1       8.862  -2.271  -3.189  1.00  0.00     0.468 C 
ENDBRANCH   5   6
ENDBRANCH   1   5
TORSDOF 3
ENDMDL
MODEL 2
REMARK VINA RESULT:      -7.4      1.911      2.350
REMARK SMILES CC(=O)CCc1ccc2c(c1)OCO2
REMARK SMILES IDX 4 1 2 2 1 3 3 4 5 5 6 6 7 7 11 8 8 9 10 10 9 11 12 12 14 13
REMARK SMILES IDX 13 14
REMARK H PARENT
REMARK Flexibility Score: inf
ROOT
ATOM      1  C   UNL     1       5.681   1.423  -0.216  1.00  0.00     0.080 C 
ENDROOT
BRANCH   1   2
ATOM      2  C   UNL     1       5.025   1.263   1.111  1.00  0.00     0.130 C 
ATOM      3  C   UNL     1       5.389   0.155   2.034  1.00  0.00     0.087 C 
ATOM      4  O   UNL     1       4.163   2.044   1.482  1.00  0.00    -0.300 OA
ENDBRANCH   1   2
BRANCH   1   5
ATOM      5  C   UNL     1       7.170   1.154  -0.130  1.00  0.00     0.043 C 
BRANCH   5   6
ATOM      6  C   UNL     1       7.531  -0.130  -0.758  1.00  0.00    -0.044 A 
ATOM      7  C   UNL     1       7.524  -0.294  -2.147  1.00  0.00     0.008 A 
ATOM      8  C   UNL     1       7.888  -1.199   0.033  1.00  0.00     0.054 A 
ATOM      9  C   UNL     1       7.873  -1.522  -2.680  1.00  0.00     0.051 A 
ATOM     10  C   UNL     1       8.240  -2.438  -0.510  1.00  0.00     0.166 A 
ATOM     11  C   UNL     1       8.232  -2.601  -1.878  1.00  0.00     0.165 A 
ATOM     12  O   UNL     1       8.625  -3.636   0.054  1.00  0.00    -0.454 OA
ATOM     13  O   UNL     1       8.618  -3.909  -2.128  1.00  0.00    -0.454 OA
ATOM     14  C   UNL     1       8.964  -4.573  -0.936  1.00  0.00     0.468 C 
ENDBRANCH   5   6
ENDBRANCH   1   5
TORSDOF 3
ENDMDL
MODEL 3
REMARK VINA RESULT:      -7.2      2.050      2.613
REMARK SMILES CC(=O)CCc1ccc2c(c1)OCO2
REMARK SMILES IDX 4 1 2 2 1 3 3 4 5 5 6 6 7 7 11 8 8 9 10 10 9 11 12 12 14 13
REMARK SMILES IDX 13 14
REMARK H PARENT
REMARK Flexibility Score: inf
ROOT
ATOM      1  C   UNL     1       5.440  -0.035   2.000  1.00  0.00     0.080 C 
ENDROOT
BRANCH   1   2
ATOM      2  C   UNL     1       4.577   1.152   1.747  1.00  0.00     0.130 C 
ATOM      3  C   UNL     1       4.890   2.130   0.671  1.00  0.00     0.087 C 
ATOM      4  O   UNL     1       3.580   1.357   2.421  1.00  0.00    -0.300 OA
ENDBRANCH   1   2
BRANCH   1   5
ATOM      5  C   UNL     1       6.869   0.221   1.563  1.00  0.00     0.043 C 
BRANCH   5   6
ATOM      6  C   UNL     1       7.290  -0.711   0.501  1.00  0.00    -0.044 A 
ATOM      7  C   UNL     1       7.159  -0.387  -0.854  1.00  0.00     0.008 A 
ATOM      8  C   UNL     1       7.830  -1.931   0.840  1.00  0.00     0.054 A 
ATOM      9  C   UNL     1       7.572  -1.301  -1.806  1.00  0.00     0.051 A 
ATOM     10  C   UNL     1       8.247  -2.851  -0.127  1.00  0.00     0.166 A 
ATOM     11  C   UNL     1       8.117  -2.534  -1.460  1.00  0.00     0.165 A 
ATOM     12  O   UNL     1       8.805  -4.110  -0.047  1.00  0.00    -0.454 OA
ATOM     13  O   UNL     1       8.604  -3.614  -2.179  1.00  0.00    -0.454 OA
ATOM     14  C   UNL     1       9.133  -4.598  -1.323  1.00  0.00     0.468 C 
ENDBRANCH   5   6
ENDBRANCH   1   5
TORSDOF 3
ENDMDL
MODEL 4
REMARK VINA RESULT:      -7.1      1.254      1.468
REMARK SMILES CC(=O)CCc1ccc2c(c1)OCO2
REMARK SMILES IDX 4 1 2 2 1 3 3 4 5 5 6 6 7 7 11 8 8 9 10 10 9 11 12 12 14 13
REMARK SMILES IDX 13 14
REMARK H PARENT
REMARK Flexibility Score: inf
ROOT
ATOM      1  C   UNL     1       6.412   1.209   0.925  1.00  0.00     0.080 C 
ENDROOT
BRANCH   1   2
ATOM      2  C   UNL     1       5.694   0.372   1.927  1.00  0.00     0.130 C 
ATOM      3  C   UNL     1       6.316  -0.842   2.521  1.00  0.00     0.087 C 
ATOM      4  O   UNL     1       4.565   0.661   2.292  1.00  0.00    -0.300 OA
ENDBRANCH   1   2
BRANCH   1   5
ATOM      5  C   UNL     1       5.905   0.943  -0.478  1.00  0.00     0.043 C 
BRANCH   5   6
ATOM      6  C   UNL     1       6.843   0.106  -1.248  1.00  0.00    -0.044 A 
ATOM      7  C   UNL     1       7.533   0.609  -2.357  1.00  0.00     0.008 A 
ATOM      8  C   UNL     1       7.054  -1.202  -0.875  1.00  0.00     0.054 A 
ATOM      9  C   UNL     1       8.401  -0.223  -3.041  1.00  0.00     0.051 A 
ATOM     10  C   UNL     1       7.934  -2.038  -1.570  1.00  0.00     0.166 A 
ATOM     11  C   UNL     1       8.612  -1.544  -2.662  1.00  0.00     0.165 A 
ATOM     12  O   UNL     1       8.310  -3.354  -1.400  1.00  0.00    -0.454 OA
ATOM     13  O   UNL     1       9.400  -2.578  -3.145  1.00  0.00    -0.454 OA
ATOM     14  C   UNL     1       9.308  -3.715  -2.321  1.00  0.00     0.468 C 
ENDBRANCH   5   6
ENDBRANCH   1   5
TORSDOF 3
ENDMDL
MODEL 5
REMARK VINA RESULT:      -6.8      1.984      2.641
REMARK SMILES CC(=O)CCc1ccc2c(c1)OCO2
REMARK SMILES IDX 4 1 2 2 1 3 3 4 5 5 6 6 7 7 11 8 8 9 10 10 9 11 12 12 14 13
REMARK SMILES IDX 13 14
REMARK H PARENT
REMARK Flexibility Score: inf
ROOT
ATOM      1  C   UNL     1       7.053   0.728   0.962  1.00  0.00     0.080 C 
ENDROOT
BRANCH   1   2
ATOM      2  C   UNL     1       5.676   1.189   1.293  1.00  0.00     0.130 C 
ATOM      3  C   UNL     1       4.944   2.150   0.425  1.00  0.00     0.087 C 
ATOM      4  O   UNL     1       5.105   0.788   2.295  1.00  0.00    -0.300 OA
ENDBRANCH   1   2
BRANCH   1   5
ATOM      5  C   UNL     1       7.323   0.826  -0.527  1.00  0.00     0.043 C 
BRANCH   5   6
ATOM      6  C   UNL     1       7.797  -0.454  -1.082  1.00  0.00    -0.044 A 
ATOM      7  C   UNL     1       8.151  -0.582  -2.430  1.00  0.00     0.008 A 
ATOM      8  C   UNL     1       7.900  -1.556  -0.264  1.00  0.00     0.054 A 
ATOM      9  C   UNL     1       8.590  -1.808  -2.895  1.00  0.00     0.051 A 
ATOM     10  C   UNL     1       8.345  -2.794  -0.739  1.00  0.00     0.166 A 
ATOM     11  C   UNL     1       8.692  -2.921  -2.065  1.00  0.00     0.165 A 
ATOM     12  O   UNL     1       8.531  -4.020  -0.136  1.00  0.00    -0.454 OA
ATOM     13  O   UNL     1       9.090  -4.236  -2.251  1.00  0.00    -0.454 OA
ATOM     14  C   UNL     1       9.090  -4.944  -1.034  1.00  0.00     0.468 C 
ENDBRANCH   5   6
ENDBRANCH   1   5
TORSDOF 3
ENDMDL
