@<TRIPOS>MOLECULE
/home/cewinharhar/GITHUB/reincatalyze/data/processed/docking_pred/2023-May-25-1902_sub9_nm5_bs15_s42_ex16_mel10_mts10000_k50_ec01_g099_lra3e-4_lrc3e-3/6e01533e6265e20f53eb8495178921d7241890ed_ligand_9.pdbqt
 14 15 0 0 0
SMALL
GASTEIGER

@<TRIPOS>ATOM
      1  C          6.4120    1.2090    0.9250 C.3     1  UNL1        0.0800
      2  C          5.6940    0.3720    1.9270 C.2     1  UNL1        0.1300
      3  C          6.3160   -0.8420    2.5210 C.3     1  UNL1        0.0870
      4  O          4.5650    0.6610    2.2920 O.2     1  UNL1       -0.3000
      5  C          5.9050    0.9430   -0.4780 C.3     1  UNL1        0.0430
      6  C          6.8430    0.1060   -1.2480 C.2     1  UNL1       -0.0440
      7  C          7.5330    0.6090   -2.3570 C.2     1  UNL1        0.0080
      8  C          7.0540   -1.2020   -0.8750 C.2     1  UNL1        0.0540
      9  C          8.4010   -0.2230   -3.0410 C.2     1  UNL1        0.0510
     10  C          7.9340   -2.0380   -1.5700 C.2     1  UNL1        0.1660
     11  C          8.6120   -1.5440   -2.6620 C.2     1  UNL1        0.1650
     12  O          8.3100   -3.3540   -1.4000 O.2     1  UNL1       -0.4540
     13  O          9.4000   -2.5780   -3.1450 O.2     1  UNL1       -0.4540
     14  C          9.3080   -3.7150   -2.3210 C.3     1  UNL1        0.4680
@<TRIPOS>BOND
     1    13    11    1
     2    13    14    1
     3     9    11    2
     4     9     7    1
     5    11    10    1
     6     7     6    2
     7    14    12    1
     8    10    12    1
     9    10     8    2
    10     6     8    1
    11     6     5    1
    12     5     1    1
    13     1     2    1
    14     2     4    2
    15     2     3    1
