MODEL 1
REMARK VINA RESULT:      -8.0      0.000      0.000
REMARK SMILES CC(=O)CCc1ccc2c(c1)OCO2
REMARK SMILES IDX 4 1 2 2 1 3 3 4 5 5 6 6 7 7 11 8 8 9 10 10 9 11 12 12 14 13
REMARK SMILES IDX 13 14
REMARK H PARENT
REMARK Flexibility Score: inf
ROOT
ATOM      1  C   UNL     1       6.248   1.336   1.130  1.00  0.00     0.080 C 
ENDROOT
BRANCH   1   2
ATOM      2  C   UNL     1       5.634   0.264   1.963  1.00  0.00     0.130 C 
ATOM      3  C   UNL     1       6.337  -1.020   2.225  1.00  0.00     0.087 C 
ATOM      4  O   UNL     1       4.528   0.411   2.457  1.00  0.00    -0.300 OA
ENDBRANCH   1   2
BRANCH   1   5
ATOM      5  C   UNL     1       5.894   1.166  -0.334  1.00  0.00     0.043 C 
BRANCH   5   6
ATOM      6  C   UNL     1       6.965   0.480  -1.079  1.00  0.00    -0.044 A 
ATOM      7  C   UNL     1       8.274   0.973  -1.101  1.00  0.00     0.008 A 
ATOM      8  C   UNL     1       6.682  -0.676  -1.771  1.00  0.00     0.054 A 
ATOM      9  C   UNL     1       9.238   0.287  -1.817  1.00  0.00     0.051 A 
ATOM     10  C   UNL     1       7.660  -1.367  -2.493  1.00  0.00     0.166 A 
ATOM     11  C   UNL     1       8.949  -0.881  -2.516  1.00  0.00     0.165 A 
ATOM     12  O   UNL     1       7.631  -2.518  -3.251  1.00  0.00    -0.454 OA
ATOM     13  O   UNL     1       9.692  -1.754  -3.296  1.00  0.00    -0.454 OA
ATOM     14  C   UNL     1       8.916  -2.855  -3.707  1.00  0.00     0.468 C 
ENDBRANCH   5   6
ENDBRANCH   1   5
TORSDOF 3
ENDMDL
MODEL 2
REMARK VINA RESULT:      -7.5      1.224      1.510
REMARK SMILES CC(=O)CCc1ccc2c(c1)OCO2
REMARK SMILES IDX 4 1 2 2 1 3 3 4 5 5 6 6 7 7 11 8 8 9 10 10 9 11 12 12 14 13
REMARK SMILES IDX 13 14
REMARK H PARENT
REMARK Flexibility Score: inf
ROOT
ATOM      1  C   UNL     1       5.927   1.148  -0.464  1.00  0.00     0.080 C 
ENDROOT
BRANCH   1   2
ATOM      2  C   UNL     1       5.344   1.171   0.907  1.00  0.00     0.130 C 
ATOM      3  C   UNL     1       5.594   0.074   1.880  1.00  0.00     0.087 C 
ATOM      4  O   UNL     1       4.639   2.098   1.273  1.00  0.00    -0.300 OA
ENDBRANCH   1   2
BRANCH   1   5
ATOM      5  C   UNL     1       7.434   0.997  -0.419  1.00  0.00     0.043 C 
BRANCH   5   6
ATOM      6  C   UNL     1       7.921   0.060  -1.446  1.00  0.00    -0.044 A 
ATOM      7  C   UNL     1       8.501   0.513  -2.637  1.00  0.00     0.008 A 
ATOM      8  C   UNL     1       7.809  -1.297  -1.240  1.00  0.00     0.054 A 
ATOM      9  C   UNL     1       8.940  -0.413  -3.565  1.00  0.00     0.051 A 
ATOM     10  C   UNL     1       8.256  -2.229  -2.181  1.00  0.00     0.166 A 
ATOM     11  C   UNL     1       8.825  -1.784  -3.353  1.00  0.00     0.165 A 
ATOM     12  O   UNL     1       8.257  -3.608  -2.211  1.00  0.00    -0.454 OA
ATOM     13  O   UNL     1       9.169  -2.910  -4.085  1.00  0.00    -0.454 OA
ATOM     14  C   UNL     1       8.909  -4.087  -3.359  1.00  0.00     0.468 C 
ENDBRANCH   5   6
ENDBRANCH   1   5
TORSDOF 3
ENDMDL
MODEL 3
REMARK VINA RESULT:      -7.4      1.004      1.506
REMARK SMILES CC(=O)CCc1ccc2c(c1)OCO2
REMARK SMILES IDX 4 1 2 2 1 3 3 4 5 5 6 6 7 7 11 8 8 9 10 10 9 11 12 12 14 13
REMARK SMILES IDX 13 14
REMARK H PARENT
REMARK Flexibility Score: inf
ROOT
ATOM      1  C   UNL     1       5.879  -0.538   1.577  1.00  0.00     0.080 C 
ENDROOT
BRANCH   1   2
ATOM      2  C   UNL     1       5.026   0.679   1.689  1.00  0.00     0.130 C 
ATOM      3  C   UNL     1       5.176   1.826   0.754  1.00  0.00     0.087 C 
ATOM      4  O   UNL     1       4.174   0.769   2.557  1.00  0.00    -0.300 OA
ENDBRANCH   1   2
BRANCH   1   5
ATOM      5  C   UNL     1       7.342  -0.172   1.419  1.00  0.00     0.043 C 
BRANCH   5   6
ATOM      6  C   UNL     1       7.794  -0.317   0.024  1.00  0.00    -0.044 A 
ATOM      7  C   UNL     1       8.463   0.717  -0.641  1.00  0.00     0.008 A 
ATOM      8  C   UNL     1       7.559  -1.494  -0.650  1.00  0.00     0.054 A 
ATOM      9  C   UNL     1       8.864   0.523  -1.951  1.00  0.00     0.051 A 
ATOM     10  C   UNL     1       7.968  -1.685  -1.973  1.00  0.00     0.166 A 
ATOM     11  C   UNL     1       8.625  -0.668  -2.629  1.00  0.00     0.165 A 
ATOM     12  O   UNL     1       7.855  -2.745  -2.848  1.00  0.00    -0.454 OA
ATOM     13  O   UNL     1       8.906  -1.130  -3.905  1.00  0.00    -0.454 OA
ATOM     14  C   UNL     1       8.516  -2.474  -4.057  1.00  0.00     0.468 C 
ENDBRANCH   5   6
ENDBRANCH   1   5
TORSDOF 3
ENDMDL
MODEL 4
REMARK VINA RESULT:      -7.3      1.253      1.715
REMARK SMILES CC(=O)CCc1ccc2c(c1)OCO2
REMARK SMILES IDX 4 1 2 2 1 3 3 4 5 5 6 6 7 7 11 8 8 9 10 10 9 11 12 12 14 13
REMARK SMILES IDX 13 14
REMARK H PARENT
REMARK Flexibility Score: inf
ROOT
ATOM      1  C   UNL     1       6.513  -0.030   0.532  1.00  0.00     0.080 C 
ENDROOT
BRANCH   1   2
ATOM      2  C   UNL     1       5.493   0.767   1.270  1.00  0.00     0.130 C 
ATOM      3  C   UNL     1       4.940   2.032   0.716  1.00  0.00     0.087 C 
ATOM      4  O   UNL     1       5.079   0.402   2.358  1.00  0.00    -0.300 OA
ENDBRANCH   1   2
BRANCH   1   5
ATOM      5  C   UNL     1       6.984   0.696  -0.712  1.00  0.00     0.043 C 
BRANCH   5   6
ATOM      6  C   UNL     1       7.650  -0.217  -1.658  1.00  0.00    -0.044 A 
ATOM      7  C   UNL     1       8.305   0.260  -2.800  1.00  0.00     0.008 A 
ATOM      8  C   UNL     1       7.637  -1.573  -1.421  1.00  0.00     0.054 A 
ATOM      9  C   UNL     1       8.913  -0.644  -3.651  1.00  0.00     0.051 A 
ATOM     10  C   UNL     1       8.255  -2.482  -2.285  1.00  0.00     0.166 A 
ATOM     11  C   UNL     1       8.897  -2.014  -3.409  1.00  0.00     0.165 A 
ATOM     12  O   UNL     1       8.379  -3.856  -2.271  1.00  0.00    -0.454 OA
ATOM     13  O   UNL     1       9.409  -3.121  -4.069  1.00  0.00    -0.454 OA
ATOM     14  C   UNL     1       9.181  -4.300  -3.334  1.00  0.00     0.468 C 
ENDBRANCH   5   6
ENDBRANCH   1   5
TORSDOF 3
ENDMDL
MODEL 5
REMARK VINA RESULT:      -7.3      1.089      2.090
REMARK SMILES CC(=O)CCc1ccc2c(c1)OCO2
REMARK SMILES IDX 4 1 2 2 1 3 3 4 5 5 6 6 7 7 11 8 8 9 10 10 9 11 12 12 14 13
REMARK SMILES IDX 13 14
REMARK H PARENT
REMARK Flexibility Score: inf
ROOT
ATOM      1  C   UNL     1       6.058   1.372   1.089  1.00  0.00     0.080 C 
ENDROOT
BRANCH   1   2
ATOM      2  C   UNL     1       5.522   0.321   1.999  1.00  0.00     0.130 C 
ATOM      3  C   UNL     1       6.299  -0.908   2.316  1.00  0.00     0.087 C 
ATOM      4  O   UNL     1       4.421   0.438   2.513  1.00  0.00    -0.300 OA
ENDBRANCH   1   2
BRANCH   1   5
ATOM      5  C   UNL     1       5.681   1.096  -0.353  1.00  0.00     0.043 C 
BRANCH   5   6
ATOM      6  C   UNL     1       6.800   0.500  -1.105  1.00  0.00    -0.044 A 
ATOM      7  C   UNL     1       6.648  -0.691  -1.823  1.00  0.00     0.008 A 
ATOM      8  C   UNL     1       8.027   1.124  -1.110  1.00  0.00     0.054 A 
ATOM      9  C   UNL     1       7.733  -1.203  -2.512  1.00  0.00     0.051 A 
ATOM     10  C   UNL     1       9.121   0.603  -1.808  1.00  0.00     0.166 A 
ATOM     11  C   UNL     1       8.973  -0.570  -2.514  1.00  0.00     0.165 A 
ATOM     12  O   UNL     1      10.423   1.027  -1.966  1.00  0.00    -0.454 OA
ATOM     13  O   UNL     1      10.200  -0.844  -3.098  1.00  0.00    -0.454 OA
ATOM     14  C   UNL     1      11.122   0.190  -2.851  1.00  0.00     0.468 C 
ENDBRANCH   5   6
ENDBRANCH   1   5
TORSDOF 3
ENDMDL
