@<TRIPOS>MOLECULE
/home/cewinharhar/GITHUB/reincatalyze/data/processed/docking_pred/2023-May-25-1902_sub9_nm5_bs15_s42_ex16_mel10_mts10000_k50_ec01_g099_lra3e-4_lrc3e-3/6e6a373552f8835a6ba7a6c6fa001d8bbefa4498_ligand_9.pdbqt
 14 15 0 0 0
SMALL
GASTEIGER

@<TRIPOS>ATOM
      1  C          5.8790   -0.5380    1.5770 C.3     1  UNL1        0.0800
      2  C          5.0260    0.6790    1.6890 C.2     1  UNL1        0.1300
      3  C          5.1760    1.8260    0.7540 C.3     1  UNL1        0.0870
      4  O          4.1740    0.7690    2.5570 O.2     1  UNL1       -0.3000
      5  C          7.3420   -0.1720    1.4190 C.3     1  UNL1        0.0430
      6  C          7.7940   -0.3170    0.0240 C.2     1  UNL1       -0.0440
      7  C          8.4630    0.7170   -0.6410 C.2     1  UNL1        0.0080
      8  C          7.5590   -1.4940   -0.6500 C.2     1  UNL1        0.0540
      9  C          8.8640    0.5230   -1.9510 C.2     1  UNL1        0.0510
     10  C          7.9680   -1.6850   -1.9730 C.2     1  UNL1        0.1660
     11  C          8.6250   -0.6680   -2.6290 C.2     1  UNL1        0.1650
     12  O          7.8550   -2.7450   -2.8480 O.2     1  UNL1       -0.4540
     13  O          8.9060   -1.1300   -3.9050 O.2     1  UNL1       -0.4540
     14  C          8.5160   -2.4740   -4.0570 C.3     1  UNL1        0.4680
@<TRIPOS>BOND
     1    14    13    1
     2    14    12    1
     3    13    11    1
     4    12    10    1
     5    11    10    2
     6    11     9    1
     7    10     8    1
     8     9     7    2
     9     8     6    2
    10     7     6    1
    11     6     5    1
    12     3     2    1
    13     5     1    1
    14     1     2    1
    15     2     4    2
