@<TRIPOS>MOLECULE
/home/cewinharhar/GITHUB/reincatalyze/data/processed/docking_pred/2023-May-25-1902_sub9_nm5_bs15_s42_ex16_mel10_mts10000_k50_ec01_g099_lra3e-4_lrc3e-3/6e6a373552f8835a6ba7a6c6fa001d8bbefa4498_ligand_9.pdbqt
 14 15 0 0 0
SMALL
GASTEIGER

@<TRIPOS>ATOM
      1  C          5.9270    1.1480   -0.4640 C.3     1  UNL1        0.0800
      2  C          5.3440    1.1710    0.9070 C.2     1  UNL1        0.1300
      3  C          5.5940    0.0740    1.8800 C.3     1  UNL1        0.0870
      4  O          4.6390    2.0980    1.2730 O.2     1  UNL1       -0.3000
      5  C          7.4340    0.9970   -0.4190 C.3     1  UNL1        0.0430
      6  C          7.9210    0.0600   -1.4460 C.2     1  UNL1       -0.0440
      7  C          8.5010    0.5130   -2.6370 C.2     1  UNL1        0.0080
      8  C          7.8090   -1.2970   -1.2400 C.2     1  UNL1        0.0540
      9  C          8.9400   -0.4130   -3.5650 C.2     1  UNL1        0.0510
     10  C          8.2560   -2.2290   -2.1810 C.2     1  UNL1        0.1660
     11  C          8.8250   -1.7840   -3.3530 C.2     1  UNL1        0.1650
     12  O          8.2570   -3.6080   -2.2110 O.2     1  UNL1       -0.4540
     13  O          9.1690   -2.9100   -4.0850 O.2     1  UNL1       -0.4540
     14  C          8.9090   -4.0870   -3.3590 C.3     1  UNL1        0.4680
@<TRIPOS>BOND
     1    13    14    1
     2    13    11    1
     3     9    11    2
     4     9     7    1
     5    14    12    1
     6    11    10    1
     7     7     6    2
     8    12    10    1
     9    10     8    2
    10     6     8    1
    11     6     5    1
    12     1     5    1
    13     1     2    1
    14     2     4    2
    15     2     3    1
