@<TRIPOS>MOLECULE
/home/cewinharhar/GITHUB/reincatalyze/data/processed/docking_pred/2023-May-25-1902_sub9_nm5_bs15_s42_ex16_mel10_mts10000_k50_ec01_g099_lra3e-4_lrc3e-3/6eca206a948153dc2868ed9d680cd756ab453321_ligand_9.pdbqt
 14 15 0 0 0
SMALL
GASTEIGER

@<TRIPOS>ATOM
      1  C          6.4640    2.1190    1.4890 C.3     1  UNL1        0.0800
      2  C          5.0860    1.9990    0.9360 C.2     1  UNL1        0.1300
      3  C          4.8130    2.1500   -0.5190 C.3     1  UNL1        0.0870
      4  O          4.1350    1.7720    1.6660 O.2     1  UNL1       -0.3000
      5  C          6.6850    1.1470    2.6310 C.3     1  UNL1        0.0430
      6  C          7.0050   -0.2060    2.1430 C.2     1  UNL1       -0.0440
      7  C          6.0030   -1.1520    1.8940 C.2     1  UNL1        0.0080
      8  C          8.3170   -0.5590    1.9200 C.2     1  UNL1        0.0540
      9  C          6.3640   -2.4060    1.4360 C.2     1  UNL1        0.0510
     10  C          8.6760   -1.8280    1.4560 C.2     1  UNL1        0.1660
     11  C          7.6910   -2.7590    1.2130 C.2     1  UNL1        0.1650
     12  O          9.8890   -2.4120    1.1630 O.2     1  UNL1       -0.4540
     13  O          8.3270   -3.9080    0.7690 O.2     1  UNL1       -0.4540
     14  C          9.7130   -3.7020    0.6350 C.3     1  UNL1        0.4680
@<TRIPOS>BOND
     1     3     2    1
     2    14    13    1
     3    14    12    1
     4    13    11    1
     5     2     1    1
     6     2     4    2
     7    12    10    1
     8    11     9    2
     9    11    10    1
    10     9     7    1
    11    10     8    2
    12     1     5    1
    13     7     6    2
    14     8     6    1
    15     6     5    1
