MODEL 1
REMARK VINA RESULT:       1.3      0.000      0.000
REMARK SMILES CC(=O)CCc1ccc2c(c1)OCO2
REMARK SMILES IDX 4 1 2 2 1 3 3 4 5 5 6 6 7 7 11 8 8 9 10 10 9 11 12 12 14 13
REMARK SMILES IDX 13 14
REMARK H PARENT
REMARK Flexibility Score: inf
ROOT
ATOM      1  C   UNL     1       8.764  -4.766  -0.411  1.00  0.00     0.080 C 
ENDROOT
BRANCH   1   2
ATOM      2  C   UNL     1       9.529  -4.702  -1.687  1.00  0.00     0.130 C 
ATOM      3  C   UNL     1      10.341  -5.851  -2.170  1.00  0.00     0.087 C 
ATOM      4  O   UNL     1       9.512  -3.696  -2.378  1.00  0.00    -0.300 OA
ENDBRANCH   1   2
BRANCH   1   5
ATOM      5  C   UNL     1       9.508  -4.072   0.713  1.00  0.00     0.043 C 
BRANCH   5   6
ATOM      6  C   UNL     1       8.857  -2.808   1.100  1.00  0.00    -0.044 A 
ATOM      7  C   UNL     1       9.589  -1.625   1.258  1.00  0.00     0.008 A 
ATOM      8  C   UNL     1       7.497  -2.778   1.312  1.00  0.00     0.054 A 
ATOM      9  C   UNL     1       8.924  -0.469   1.622  1.00  0.00     0.051 A 
ATOM     10  C   UNL     1       6.830  -1.605   1.679  1.00  0.00     0.166 A 
ATOM     11  C   UNL     1       7.549  -0.442   1.836  1.00  0.00     0.165 A 
ATOM     12  O   UNL     1       5.507  -1.321   1.944  1.00  0.00    -0.454 OA
ATOM     13  O   UNL     1       6.643   0.544   2.196  1.00  0.00    -0.454 OA
ATOM     14  C   UNL     1       5.325   0.050   2.188  1.00  0.00     0.468 C 
ENDBRANCH   5   6
ENDBRANCH   1   5
TORSDOF 3
ENDMDL
MODEL 2
REMARK VINA RESULT:       1.3      2.145      5.800
REMARK SMILES CC(=O)CCc1ccc2c(c1)OCO2
REMARK SMILES IDX 4 1 2 2 1 3 3 4 5 5 6 6 7 7 11 8 8 9 10 10 9 11 12 12 14 13
REMARK SMILES IDX 13 14
REMARK H PARENT
REMARK Flexibility Score: inf
ROOT
ATOM      1  C   UNL     1       6.464   2.119   1.489  1.00  0.00     0.080 C 
ENDROOT
BRANCH   1   2
ATOM      2  C   UNL     1       5.086   1.999   0.936  1.00  0.00     0.130 C 
ATOM      3  C   UNL     1       4.813   2.150  -0.519  1.00  0.00     0.087 C 
ATOM      4  O   UNL     1       4.135   1.772   1.666  1.00  0.00    -0.300 OA
ENDBRANCH   1   2
BRANCH   1   5
ATOM      5  C   UNL     1       6.685   1.147   2.631  1.00  0.00     0.043 C 
BRANCH   5   6
ATOM      6  C   UNL     1       7.005  -0.206   2.143  1.00  0.00    -0.044 A 
ATOM      7  C   UNL     1       6.003  -1.152   1.894  1.00  0.00     0.008 A 
ATOM      8  C   UNL     1       8.317  -0.559   1.920  1.00  0.00     0.054 A 
ATOM      9  C   UNL     1       6.364  -2.406   1.436  1.00  0.00     0.051 A 
ATOM     10  C   UNL     1       8.676  -1.828   1.456  1.00  0.00     0.166 A 
ATOM     11  C   UNL     1       7.691  -2.759   1.213  1.00  0.00     0.165 A 
ATOM     12  O   UNL     1       9.889  -2.412   1.163  1.00  0.00    -0.454 OA
ATOM     13  O   UNL     1       8.327  -3.908   0.769  1.00  0.00    -0.454 OA
ATOM     14  C   UNL     1       9.713  -3.702   0.635  1.00  0.00     0.468 C 
ENDBRANCH   5   6
ENDBRANCH   1   5
TORSDOF 3
ENDMDL
MODEL 3
REMARK VINA RESULT:       1.4      3.060      7.181
REMARK SMILES CC(=O)CCc1ccc2c(c1)OCO2
REMARK SMILES IDX 4 1 2 2 1 3 3 4 5 5 6 6 7 7 11 8 8 9 10 10 9 11 12 12 14 13
REMARK SMILES IDX 13 14
REMARK H PARENT
REMARK Flexibility Score: inf
ROOT
ATOM      1  C   UNL     1       1.955  -0.068   3.084  1.00  0.00     0.080 C 
ENDROOT
BRANCH   1   2
ATOM      2  C   UNL     1       0.478   0.123   3.102  1.00  0.00     0.130 C 
ATOM      3  C   UNL     1      -0.172   1.254   2.387  1.00  0.00     0.087 C 
ATOM      4  O   UNL     1      -0.246  -0.649   3.709  1.00  0.00    -0.300 OA
ENDBRANCH   1   2
BRANCH   1   5
ATOM      5  C   UNL     1       2.649   1.076   2.372  1.00  0.00     0.043 C 
BRANCH   5   6
ATOM      6  C   UNL     1       4.076   0.789   2.139  1.00  0.00    -0.044 A 
ATOM      7  C   UNL     1       4.989   1.807   1.840  1.00  0.00     0.008 A 
ATOM      8  C   UNL     1       4.533  -0.507   2.216  1.00  0.00     0.054 A 
ATOM      9  C   UNL     1       6.316   1.478   1.632  1.00  0.00     0.051 A 
ATOM     10  C   UNL     1       5.876  -0.834   2.006  1.00  0.00     0.166 A 
ATOM     11  C   UNL     1       6.775   0.166   1.711  1.00  0.00     0.165 A 
ATOM     12  O   UNL     1       6.566  -2.028   2.025  1.00  0.00    -0.454 OA
ATOM     13  O   UNL     1       8.012  -0.439   1.555  1.00  0.00    -0.454 OA
ATOM     14  C   UNL     1       7.942  -1.817   1.835  1.00  0.00     0.468 C 
ENDBRANCH   5   6
ENDBRANCH   1   5
TORSDOF 3
ENDMDL
MODEL 4
REMARK VINA RESULT:       1.7      1.689      2.568
REMARK SMILES CC(=O)CCc1ccc2c(c1)OCO2
REMARK SMILES IDX 4 1 2 2 1 3 3 4 5 5 6 6 7 7 11 8 8 9 10 10 9 11 12 12 14 13
REMARK SMILES IDX 13 14
REMARK H PARENT
REMARK Flexibility Score: inf
ROOT
ATOM      1  C   UNL     1       8.995  -2.569   0.866  1.00  0.00     0.080 C 
ENDROOT
BRANCH   1   2
ATOM      2  C   UNL     1       9.426  -3.971   0.608  1.00  0.00     0.130 C 
ATOM      3  C   UNL     1       8.947  -4.729  -0.579  1.00  0.00     0.087 C 
ATOM      4  O   UNL     1      10.189  -4.542   1.370  1.00  0.00    -0.300 OA
ENDBRANCH   1   2
BRANCH   1   5
ATOM      5  C   UNL     1       7.932  -2.509   1.946  1.00  0.00     0.043 C 
BRANCH   5   6
ATOM      6  C   UNL     1       7.198  -1.232   1.920  1.00  0.00    -0.044 A 
ATOM      7  C   UNL     1       7.849  -0.017   1.679  1.00  0.00     0.008 A 
ATOM      8  C   UNL     1       5.838  -1.222   2.134  1.00  0.00     0.054 A 
ATOM      9  C   UNL     1       7.107   1.151   1.666  1.00  0.00     0.051 A 
ATOM     10  C   UNL     1       5.093  -0.039   2.119  1.00  0.00     0.166 A 
ATOM     11  C   UNL     1       5.733   1.157   1.883  1.00  0.00     0.165 A 
ATOM     12  O   UNL     1       3.753   0.229   2.302  1.00  0.00    -0.454 OA
ATOM     13  O   UNL     1       4.762   2.146   1.925  1.00  0.00    -0.454 OA
ATOM     14  C   UNL     1       3.480   1.592   2.098  1.00  0.00     0.468 C 
ENDBRANCH   5   6
ENDBRANCH   1   5
TORSDOF 3
ENDMDL
MODEL 5
REMARK VINA RESULT:       1.8      9.694     11.099
REMARK SMILES CC(=O)CCc1ccc2c(c1)OCO2
REMARK SMILES IDX 4 1 2 2 1 3 3 4 5 5 6 6 7 7 11 8 8 9 10 10 9 11 12 12 14 13
REMARK SMILES IDX 13 14
REMARK H PARENT
REMARK Flexibility Score: inf
ROOT
ATOM      1  C   UNL     1       1.985  -7.653  -0.546  1.00  0.00     0.080 C 
ENDROOT
BRANCH   1   2
ATOM      2  C   UNL     1       2.277  -6.215  -0.289  1.00  0.00     0.130 C 
ATOM      3  C   UNL     1       2.111  -5.183  -1.346  1.00  0.00     0.087 C 
ATOM      4  O   UNL     1       2.666  -5.841   0.806  1.00  0.00    -0.300 OA
ENDBRANCH   1   2
BRANCH   1   5
ATOM      5  C   UNL     1       2.670  -8.545   0.470  1.00  0.00     0.043 C 
BRANCH   5   6
ATOM      6  C   UNL     1       1.829  -9.697   0.840  1.00  0.00    -0.044 A 
ATOM      7  C   UNL     1       2.386 -10.883   1.333  1.00  0.00     0.008 A 
ATOM      8  C   UNL     1       0.462  -9.615   0.706  1.00  0.00     0.054 A 
ATOM      9  C   UNL     1       1.548 -11.931   1.665  1.00  0.00     0.051 A 
ATOM     10  C   UNL     1      -0.382 -10.678   1.044  1.00  0.00     0.166 A 
ATOM     11  C   UNL     1       0.166 -11.845   1.527  1.00  0.00     0.165 A 
ATOM     12  O   UNL     1      -1.750 -10.841   1.001  1.00  0.00    -0.454 OA
ATOM     13  O   UNL     1      -0.889 -12.710   1.775  1.00  0.00    -0.454 OA
ATOM     14  C   UNL     1      -2.127 -12.082   1.541  1.00  0.00     0.468 C 
ENDBRANCH   5   6
ENDBRANCH   1   5
TORSDOF 3
ENDMDL
