@<TRIPOS>MOLECULE
/home/cewinharhar/GITHUB/reincatalyze/data/processed/docking_pred/2023-May-25-1902_sub9_nm5_bs15_s42_ex16_mel10_mts10000_k50_ec01_g099_lra3e-4_lrc3e-3/6eca206a948153dc2868ed9d680cd756ab453321_ligand_9.pdbqt
 14 15 0 0 0
SMALL
GASTEIGER

@<TRIPOS>ATOM
      1  C          8.7640   -4.7660   -0.4110 C.3     1  UNL1        0.0800
      2  C          9.5290   -4.7020   -1.6870 C.2     1  UNL1        0.1300
      3  C         10.3410   -5.8510   -2.1700 C.3     1  UNL1        0.0870
      4  O          9.5120   -3.6960   -2.3780 O.2     1  UNL1       -0.3000
      5  C          9.5080   -4.0720    0.7130 C.3     1  UNL1        0.0430
      6  C          8.8570   -2.8080    1.1000 C.2     1  UNL1       -0.0440
      7  C          9.5890   -1.6250    1.2580 C.2     1  UNL1        0.0080
      8  C          7.4970   -2.7780    1.3120 C.2     1  UNL1        0.0540
      9  C          8.9240   -0.4690    1.6220 C.2     1  UNL1        0.0510
     10  C          6.8300   -1.6050    1.6790 C.2     1  UNL1        0.1660
     11  C          7.5490   -0.4420    1.8360 C.2     1  UNL1        0.1650
     12  O          5.5070   -1.3210    1.9440 O.2     1  UNL1       -0.4540
     13  O          6.6430    0.5440    2.1960 O.2     1  UNL1       -0.4540
     14  C          5.3250    0.0500    2.1880 C.3     1  UNL1        0.4680
@<TRIPOS>BOND
     1     4     2    2
     2     3     2    1
     3     2     1    1
     4     1     5    1
     5     5     6    1
     6     6     7    2
     7     6     8    1
     8     7     9    1
     9     8    10    2
    10     9    11    2
    11    10    11    1
    12    10    12    1
    13    11    13    1
    14    12    14    1
    15    14    13    1
