MODEL 1
REMARK VINA RESULT:      -7.6      0.000      0.000
REMARK SMILES CC(=O)CCc1ccc2c(c1)OCO2
REMARK SMILES IDX 4 1 2 2 1 3 3 4 5 5 6 6 7 7 11 8 8 9 10 10 9 11 12 12 14 13
REMARK SMILES IDX 13 14
REMARK H PARENT
REMARK Flexibility Score: inf
ROOT
ATOM      1  C   UNL     1       5.540   1.920   1.279  1.00  0.00     0.080 C 
ENDROOT
BRANCH   1   2
ATOM      2  C   UNL     1       5.122   0.695   2.016  1.00  0.00     0.130 C 
ATOM      3  C   UNL     1       6.039  -0.463   2.190  1.00  0.00     0.087 C 
ATOM      4  O   UNL     1       4.005   0.606   2.501  1.00  0.00    -0.300 OA
ENDBRANCH   1   2
BRANCH   1   5
ATOM      5  C   UNL     1       5.410   1.732  -0.220  1.00  0.00     0.043 C 
BRANCH   5   6
ATOM      6  C   UNL     1       6.575   1.027  -0.785  1.00  0.00    -0.044 A 
ATOM      7  C   UNL     1       7.883   1.451  -0.529  1.00  0.00     0.008 A 
ATOM      8  C   UNL     1       6.382  -0.078  -1.582  1.00  0.00     0.054 A 
ATOM      9  C   UNL     1       8.937   0.750  -1.085  1.00  0.00     0.051 A 
ATOM     10  C   UNL     1       7.451  -0.785  -2.142  1.00  0.00     0.166 A 
ATOM     11  C   UNL     1       8.739  -0.367  -1.892  1.00  0.00     0.165 A 
ATOM     12  O   UNL     1       7.520  -1.895  -2.956  1.00  0.00    -0.454 OA
ATOM     13  O   UNL     1       9.581  -1.240  -2.563  1.00  0.00    -0.454 OA
ATOM     14  C   UNL     1       8.854  -2.277  -3.176  1.00  0.00     0.468 C 
ENDBRANCH   5   6
ENDBRANCH   1   5
TORSDOF 3
ENDMDL
MODEL 2
REMARK VINA RESULT:      -7.4      1.828      2.287
REMARK SMILES CC(=O)CCc1ccc2c(c1)OCO2
REMARK SMILES IDX 4 1 2 2 1 3 3 4 5 5 6 6 7 7 11 8 8 9 10 10 9 11 12 12 14 13
REMARK SMILES IDX 13 14
REMARK H PARENT
REMARK Flexibility Score: inf
ROOT
ATOM      1  C   UNL     1       5.784   1.524  -0.204  1.00  0.00     0.080 C 
ENDROOT
BRANCH   1   2
ATOM      2  C   UNL     1       5.118   1.321   1.113  1.00  0.00     0.130 C 
ATOM      3  C   UNL     1       5.513   0.215   2.026  1.00  0.00     0.087 C 
ATOM      4  O   UNL     1       4.222   2.063   1.482  1.00  0.00    -0.300 OA
ENDBRANCH   1   2
BRANCH   1   5
ATOM      5  C   UNL     1       7.263   1.202  -0.128  1.00  0.00     0.043 C 
BRANCH   5   6
ATOM      6  C   UNL     1       7.582  -0.068  -0.804  1.00  0.00    -0.044 A 
ATOM      7  C   UNL     1       7.541  -0.187  -2.198  1.00  0.00     0.008 A 
ATOM      8  C   UNL     1       7.933  -1.169  -0.056  1.00  0.00     0.054 A 
ATOM      9  C   UNL     1       7.851  -1.404  -2.776  1.00  0.00     0.051 A 
ATOM     10  C   UNL     1       8.246  -2.397  -0.646  1.00  0.00     0.166 A 
ATOM     11  C   UNL     1       8.204  -2.516  -2.018  1.00  0.00     0.165 A 
ATOM     12  O   UNL     1       8.618  -3.621  -0.130  1.00  0.00    -0.454 OA
ATOM     13  O   UNL     1       8.556  -3.823  -2.318  1.00  0.00    -0.454 OA
ATOM     14  C   UNL     1       8.914  -4.532  -1.156  1.00  0.00     0.468 C 
ENDBRANCH   5   6
ENDBRANCH   1   5
TORSDOF 3
ENDMDL
MODEL 3
REMARK VINA RESULT:      -7.2      2.051      2.629
REMARK SMILES CC(=O)CCc1ccc2c(c1)OCO2
REMARK SMILES IDX 4 1 2 2 1 3 3 4 5 5 6 6 7 7 11 8 8 9 10 10 9 11 12 12 14 13
REMARK SMILES IDX 13 14
REMARK H PARENT
REMARK Flexibility Score: inf
ROOT
ATOM      1  C   UNL     1       5.398  -0.064   2.012  1.00  0.00     0.080 C 
ENDROOT
BRANCH   1   2
ATOM      2  C   UNL     1       4.565   1.146   1.770  1.00  0.00     0.130 C 
ATOM      3  C   UNL     1       4.912   2.134   0.714  1.00  0.00     0.087 C 
ATOM      4  O   UNL     1       3.567   1.364   2.437  1.00  0.00    -0.300 OA
ENDBRANCH   1   2
BRANCH   1   5
ATOM      5  C   UNL     1       6.842   0.173   1.616  1.00  0.00     0.043 C 
BRANCH   5   6
ATOM      6  C   UNL     1       7.273  -0.744   0.545  1.00  0.00    -0.044 A 
ATOM      7  C   UNL     1       7.148  -0.402  -0.806  1.00  0.00     0.008 A 
ATOM      8  C   UNL     1       7.814  -1.966   0.871  1.00  0.00     0.054 A 
ATOM      9  C   UNL     1       7.571  -1.302  -1.768  1.00  0.00     0.051 A 
ATOM     10  C   UNL     1       8.241  -2.873  -0.105  1.00  0.00     0.166 A 
ATOM     11  C   UNL     1       8.117  -2.538  -1.435  1.00  0.00     0.165 A 
ATOM     12  O   UNL     1       8.802  -4.130  -0.038  1.00  0.00    -0.454 OA
ATOM     13  O   UNL     1       8.612  -3.607  -2.165  1.00  0.00    -0.454 OA
ATOM     14  C   UNL     1       9.139  -4.600  -1.318  1.00  0.00     0.468 C 
ENDBRANCH   5   6
ENDBRANCH   1   5
TORSDOF 3
ENDMDL
MODEL 4
REMARK VINA RESULT:      -7.1      1.251      1.469
REMARK SMILES CC(=O)CCc1ccc2c(c1)OCO2
REMARK SMILES IDX 4 1 2 2 1 3 3 4 5 5 6 6 7 7 11 8 8 9 10 10 9 11 12 12 14 13
REMARK SMILES IDX 13 14
REMARK H PARENT
REMARK Flexibility Score: inf
ROOT
ATOM      1  C   UNL     1       6.393   1.176   0.936  1.00  0.00     0.080 C 
ENDROOT
BRANCH   1   2
ATOM      2  C   UNL     1       5.661   0.354   1.939  1.00  0.00     0.130 C 
ATOM      3  C   UNL     1       6.254  -0.881   2.519  1.00  0.00     0.087 C 
ATOM      4  O   UNL     1       4.546   0.673   2.318  1.00  0.00    -0.300 OA
ENDBRANCH   1   2
BRANCH   1   5
ATOM      5  C   UNL     1       5.882   0.914  -0.467  1.00  0.00     0.043 C 
BRANCH   5   6
ATOM      6  C   UNL     1       6.826   0.094  -1.248  1.00  0.00    -0.044 A 
ATOM      7  C   UNL     1       7.508   0.614  -2.354  1.00  0.00     0.008 A 
ATOM      8  C   UNL     1       7.051  -1.215  -0.888  1.00  0.00     0.054 A 
ATOM      9  C   UNL     1       8.382  -0.202  -3.048  1.00  0.00     0.051 A 
ATOM     10  C   UNL     1       7.937  -2.036  -1.593  1.00  0.00     0.166 A 
ATOM     11  C   UNL     1       8.607  -1.526  -2.682  1.00  0.00     0.165 A 
ATOM     12  O   UNL     1       8.326  -3.350  -1.438  1.00  0.00    -0.454 OA
ATOM     13  O   UNL     1       9.404  -2.546  -3.177  1.00  0.00    -0.454 OA
ATOM     14  C   UNL     1       9.324  -3.693  -2.364  1.00  0.00     0.468 C 
ENDBRANCH   5   6
ENDBRANCH   1   5
TORSDOF 3
ENDMDL
MODEL 5
REMARK VINA RESULT:      -6.8      1.185      5.159
REMARK SMILES CC(=O)CCc1ccc2c(c1)OCO2
REMARK SMILES IDX 4 1 2 2 1 3 3 4 5 5 6 6 7 7 11 8 8 9 10 10 9 11 12 12 14 13
REMARK SMILES IDX 13 14
REMARK H PARENT
REMARK Flexibility Score: inf
ROOT
ATOM      1  C   UNL     1       8.348   0.189  -2.676  1.00  0.00     0.080 C 
ENDROOT
BRANCH   1   2
ATOM      2  C   UNL     1       8.058  -1.270  -2.766  1.00  0.00     0.130 C 
ATOM      3  C   UNL     1       9.131  -2.264  -3.032  1.00  0.00     0.087 C 
ATOM      4  O   UNL     1       6.922  -1.693  -2.622  1.00  0.00    -0.300 OA
ENDBRANCH   1   2
BRANCH   1   5
ATOM      5  C   UNL     1       8.876   0.561  -1.305  1.00  0.00     0.043 C 
BRANCH   5   6
ATOM      6  C   UNL     1       7.843   0.420  -0.264  1.00  0.00    -0.044 A 
ATOM      7  C   UNL     1       7.951  -0.537   0.752  1.00  0.00     0.008 A 
ATOM      8  C   UNL     1       6.742   1.246  -0.279  1.00  0.00     0.054 A 
ATOM      9  C   UNL     1       6.950  -0.623   1.703  1.00  0.00     0.051 A 
ATOM     10  C   UNL     1       5.733   1.156   0.685  1.00  0.00     0.166 A 
ATOM     11  C   UNL     1       5.838   0.213   1.684  1.00  0.00     0.165 A 
ATOM     12  O   UNL     1       4.558   1.849   0.883  1.00  0.00    -0.454 OA
ATOM     13  O   UNL     1       4.714   0.350   2.484  1.00  0.00    -0.454 OA
ATOM     14  C   UNL     1       3.921   1.435   2.065  1.00  0.00     0.468 C 
ENDBRANCH   5   6
ENDBRANCH   1   5
TORSDOF 3
ENDMDL
