@<TRIPOS>MOLECULE
/home/cewinharhar/GITHUB/reincatalyze/data/processed/docking_pred/2023-May-25-1902_sub9_nm5_bs15_s42_ex16_mel10_mts10000_k50_ec01_g099_lra3e-4_lrc3e-3/7076afde4386affa59e586c5ec9b2181426a643f_ligand_9.pdbqt
 14 15 0 0 0
SMALL
GASTEIGER

@<TRIPOS>ATOM
      1  C          5.5400    1.9200    1.2790 C.3     1  UNL1        0.0800
      2  C          5.1220    0.6950    2.0160 C.2     1  UNL1        0.1300
      3  C          6.0390   -0.4630    2.1900 C.3     1  UNL1        0.0870
      4  O          4.0050    0.6060    2.5010 O.2     1  UNL1       -0.3000
      5  C          5.4100    1.7320   -0.2200 C.3     1  UNL1        0.0430
      6  C          6.5750    1.0270   -0.7850 C.2     1  UNL1       -0.0440
      7  C          7.8830    1.4510   -0.5290 C.2     1  UNL1        0.0080
      8  C          6.3820   -0.0780   -1.5820 C.2     1  UNL1        0.0540
      9  C          8.9370    0.7500   -1.0850 C.2     1  UNL1        0.0510
     10  C          7.4510   -0.7850   -2.1420 C.2     1  UNL1        0.1660
     11  C          8.7390   -0.3670   -1.8920 C.2     1  UNL1        0.1650
     12  O          7.5200   -1.8950   -2.9560 O.2     1  UNL1       -0.4540
     13  O          9.5810   -1.2400   -2.5630 O.2     1  UNL1       -0.4540
     14  C          8.8540   -2.2770   -3.1760 C.3     1  UNL1        0.4680
@<TRIPOS>BOND
     1    14    12    1
     2    14    13    1
     3    12    10    1
     4    13    11    1
     5    10    11    2
     6    10     8    1
     7    11     9    1
     8     8     6    2
     9     9     7    2
    10     6     7    1
    11     6     5    1
    12     5     1    1
    13     1     2    1
    14     2     3    1
    15     2     4    2
