@<TRIPOS>MOLECULE
/home/cewinharhar/GITHUB/reincatalyze/data/processed/docking_pred/2023-May-25-1902_sub9_nm5_bs15_s42_ex16_mel10_mts10000_k50_ec01_g099_lra3e-4_lrc3e-3/7076afde4386affa59e586c5ec9b2181426a643f_ligand_9.pdbqt
 14 15 0 0 0
SMALL
GASTEIGER

@<TRIPOS>ATOM
      1  C          6.3930    1.1760    0.9360 C.3     1  UNL1        0.0800
      2  C          5.6610    0.3540    1.9390 C.2     1  UNL1        0.1300
      3  C          6.2540   -0.8810    2.5190 C.3     1  UNL1        0.0870
      4  O          4.5460    0.6730    2.3180 O.2     1  UNL1       -0.3000
      5  C          5.8820    0.9140   -0.4670 C.3     1  UNL1        0.0430
      6  C          6.8260    0.0940   -1.2480 C.2     1  UNL1       -0.0440
      7  C          7.5080    0.6140   -2.3540 C.2     1  UNL1        0.0080
      8  C          7.0510   -1.2150   -0.8880 C.2     1  UNL1        0.0540
      9  C          8.3820   -0.2020   -3.0480 C.2     1  UNL1        0.0510
     10  C          7.9370   -2.0360   -1.5930 C.2     1  UNL1        0.1660
     11  C          8.6070   -1.5260   -2.6820 C.2     1  UNL1        0.1650
     12  O          8.3260   -3.3500   -1.4380 O.2     1  UNL1       -0.4540
     13  O          9.4040   -2.5460   -3.1770 O.2     1  UNL1       -0.4540
     14  C          9.3240   -3.6930   -2.3640 C.3     1  UNL1        0.4680
@<TRIPOS>BOND
     1    13    11    1
     2    13    14    1
     3     9    11    2
     4     9     7    1
     5    11    10    1
     6    14    12    1
     7     7     6    2
     8    10    12    1
     9    10     8    2
    10     6     8    1
    11     6     5    1
    12     5     1    1
    13     1     2    1
    14     2     4    2
    15     2     3    1
