@<TRIPOS>MOLECULE
/home/cewinharhar/GITHUB/reincatalyze/data/processed/docking_pred/2023-May-25-1902_sub9_nm5_bs15_s42_ex16_mel10_mts10000_k50_ec01_g099_lra3e-4_lrc3e-3/7473f82790d6809f011fa27bf7bcba9a4b9bdb46_ligand_9.pdbqt
 14 15 0 0 0
SMALL
GASTEIGER

@<TRIPOS>ATOM
      1  C          5.8800   -0.4550    1.5380 C.3     1  UNL1        0.0800
      2  C          4.9810    0.7240    1.6800 C.2     1  UNL1        0.1300
      3  C          5.0780    1.8940    0.7670 C.3     1  UNL1        0.0870
      4  O          4.1340    0.7640    2.5580 O.2     1  UNL1       -0.3000
      5  C          7.2950   -0.0310    1.1950 C.3     1  UNL1        0.0430
      6  C          7.6680   -0.4310   -0.1740 C.2     1  UNL1       -0.0440
      7  C          7.9070    0.5180   -1.1750 C.2     1  UNL1        0.0080
      8  C          7.7910   -1.7660   -0.4850 C.2     1  UNL1        0.0540
      9  C          8.2550    0.0840   -2.4410 C.2     1  UNL1        0.0510
     10  C          8.1440   -2.1990   -1.7660 C.2     1  UNL1        0.1660
     11  C          8.3780   -1.2670   -2.7520 C.2     1  UNL1        0.1650
     12  O          8.3260   -3.4490   -2.3180 O.2     1  UNL1       -0.4540
     13  O          8.7040   -1.9710   -3.9010 O.2     1  UNL1       -0.4540
     14  C          8.7720   -3.3540   -3.6470 C.3     1  UNL1        0.4680
@<TRIPOS>BOND
     1    13    14    1
     2    13    11    1
     3    14    12    1
     4    11     9    2
     5    11    10    1
     6     9     7    1
     7    12    10    1
     8    10     8    2
     9     7     6    2
    10     8     6    1
    11     6     5    1
    12     3     2    1
    13     5     1    1
    14     1     2    1
    15     2     4    2
