MODEL 1
REMARK VINA RESULT:      -8.0      0.000      0.000
REMARK SMILES CC(=O)CCc1ccc2c(c1)OCO2
REMARK SMILES IDX 4 1 2 2 1 3 3 4 5 5 6 6 7 7 11 8 8 9 10 10 9 11 12 12 14 13
REMARK SMILES IDX 13 14
REMARK H PARENT
REMARK Flexibility Score: inf
ROOT
ATOM      1  C   UNL     1       6.006   1.633   1.153  1.00  0.00     0.080 C 
ENDROOT
BRANCH   1   2
ATOM      2  C   UNL     1       5.426   0.538   1.979  1.00  0.00     0.130 C 
ATOM      3  C   UNL     1       6.206  -0.683   2.317  1.00  0.00     0.087 C 
ATOM      4  O   UNL     1       4.285   0.612   2.406  1.00  0.00    -0.300 OA
ENDBRANCH   1   2
BRANCH   1   5
ATOM      5  C   UNL     1       5.727   1.417  -0.321  1.00  0.00     0.043 C 
BRANCH   5   6
ATOM      6  C   UNL     1       6.798   0.642  -0.973  1.00  0.00    -0.044 A 
ATOM      7  C   UNL     1       8.142   1.016  -0.865  1.00  0.00     0.008 A 
ATOM      8  C   UNL     1       6.480  -0.480  -1.705  1.00  0.00     0.054 A 
ATOM      9  C   UNL     1       9.104   0.249  -1.497  1.00  0.00     0.051 A 
ATOM     10  C   UNL     1       7.456  -1.252  -2.341  1.00  0.00     0.166 A 
ATOM     11  C   UNL     1       8.779  -0.884  -2.237  1.00  0.00     0.165 A 
ATOM     12  O   UNL     1       7.396  -2.391  -3.115  1.00  0.00    -0.454 OA
ATOM     13  O   UNL     1       9.512  -1.816  -2.956  1.00  0.00    -0.454 OA
ATOM     14  C   UNL     1       8.684  -2.840  -3.453  1.00  0.00     0.468 C 
ENDBRANCH   5   6
ENDBRANCH   1   5
TORSDOF 3
ENDMDL
MODEL 2
REMARK VINA RESULT:      -7.3      1.192      1.654
REMARK SMILES CC(=O)CCc1ccc2c(c1)OCO2
REMARK SMILES IDX 4 1 2 2 1 3 3 4 5 5 6 6 7 7 11 8 8 9 10 10 9 11 12 12 14 13
REMARK SMILES IDX 13 14
REMARK H PARENT
REMARK Flexibility Score: inf
ROOT
ATOM      1  C   UNL     1       5.880  -0.455   1.538  1.00  0.00     0.080 C 
ENDROOT
BRANCH   1   2
ATOM      2  C   UNL     1       4.981   0.724   1.680  1.00  0.00     0.130 C 
ATOM      3  C   UNL     1       5.078   1.894   0.767  1.00  0.00     0.087 C 
ATOM      4  O   UNL     1       4.134   0.764   2.558  1.00  0.00    -0.300 OA
ENDBRANCH   1   2
BRANCH   1   5
ATOM      5  C   UNL     1       7.295  -0.031   1.195  1.00  0.00     0.043 C 
BRANCH   5   6
ATOM      6  C   UNL     1       7.668  -0.431  -0.174  1.00  0.00    -0.044 A 
ATOM      7  C   UNL     1       7.907   0.518  -1.175  1.00  0.00     0.008 A 
ATOM      8  C   UNL     1       7.791  -1.766  -0.485  1.00  0.00     0.054 A 
ATOM      9  C   UNL     1       8.255   0.084  -2.441  1.00  0.00     0.051 A 
ATOM     10  C   UNL     1       8.144  -2.199  -1.766  1.00  0.00     0.166 A 
ATOM     11  C   UNL     1       8.378  -1.267  -2.752  1.00  0.00     0.165 A 
ATOM     12  O   UNL     1       8.326  -3.449  -2.318  1.00  0.00    -0.454 OA
ATOM     13  O   UNL     1       8.704  -1.971  -3.901  1.00  0.00    -0.454 OA
ATOM     14  C   UNL     1       8.772  -3.354  -3.647  1.00  0.00     0.468 C 
ENDBRANCH   5   6
ENDBRANCH   1   5
TORSDOF 3
ENDMDL
MODEL 3
REMARK VINA RESULT:      -7.2      1.622      5.591
REMARK SMILES CC(=O)CCc1ccc2c(c1)OCO2
REMARK SMILES IDX 4 1 2 2 1 3 3 4 5 5 6 6 7 7 11 8 8 9 10 10 9 11 12 12 14 13
REMARK SMILES IDX 13 14
REMARK H PARENT
REMARK Flexibility Score: inf
ROOT
ATOM      1  C   UNL     1       8.137  -2.601  -3.573  1.00  0.00     0.080 C 
ENDROOT
BRANCH   1   2
ATOM      2  C   UNL     1       9.233  -3.598  -3.423  1.00  0.00     0.130 C 
ATOM      3  C   UNL     1       8.961  -5.060  -3.398  1.00  0.00     0.087 C 
ATOM      4  O   UNL     1      10.395  -3.241  -3.315  1.00  0.00    -0.300 OA
ENDBRANCH   1   2
BRANCH   1   5
ATOM      5  C   UNL     1       8.547  -1.246  -3.029  1.00  0.00     0.043 C 
BRANCH   5   6
ATOM      6  C   UNL     1       7.769  -0.881  -1.832  1.00  0.00    -0.044 A 
ATOM      7  C   UNL     1       7.786  -1.671  -0.677  1.00  0.00     0.008 A 
ATOM      8  C   UNL     1       7.008   0.266  -1.837  1.00  0.00     0.054 A 
ATOM      9  C   UNL     1       7.037  -1.278   0.417  1.00  0.00     0.051 A 
ATOM     10  C   UNL     1       6.253   0.660  -0.728  1.00  0.00     0.166 A 
ATOM     11  C   UNL     1       6.267  -0.118   0.408  1.00  0.00     0.165 A 
ATOM     12  O   UNL     1       5.427   1.738  -0.489  1.00  0.00    -0.454 OA
ATOM     13  O   UNL     1       5.442   0.505   1.331  1.00  0.00    -0.454 OA
ATOM     14  C   UNL     1       4.961   1.732   0.836  1.00  0.00     0.468 C 
ENDBRANCH   5   6
ENDBRANCH   1   5
TORSDOF 3
ENDMDL
MODEL 4
REMARK VINA RESULT:      -7.1      1.238      1.369
REMARK SMILES CC(=O)CCc1ccc2c(c1)OCO2
REMARK SMILES IDX 4 1 2 2 1 3 3 4 5 5 6 6 7 7 11 8 8 9 10 10 9 11 12 12 14 13
REMARK SMILES IDX 13 14
REMARK H PARENT
REMARK Flexibility Score: inf
ROOT
ATOM      1  C   UNL     1       5.752   0.857   0.433  1.00  0.00     0.080 C 
ENDROOT
BRANCH   1   2
ATOM      2  C   UNL     1       5.416   0.330   1.785  1.00  0.00     0.130 C 
ATOM      3  C   UNL     1       6.262  -0.693   2.456  1.00  0.00     0.087 C 
ATOM      4  O   UNL     1       4.430   0.726   2.385  1.00  0.00    -0.300 OA
ENDBRANCH   1   2
BRANCH   1   5
ATOM      5  C   UNL     1       7.251   0.881   0.207  1.00  0.00     0.043 C 
BRANCH   5   6
ATOM      6  C   UNL     1       7.649   0.012  -0.915  1.00  0.00    -0.044 A 
ATOM      7  C   UNL     1       7.849   0.523  -2.202  1.00  0.00     0.008 A 
ATOM      8  C   UNL     1       7.833  -1.335  -0.702  1.00  0.00     0.054 A 
ATOM      9  C   UNL     1       8.222  -0.340  -3.216  1.00  0.00     0.051 A 
ATOM     10  C   UNL     1       8.212  -2.204  -1.730  1.00  0.00     0.166 A 
ATOM     11  C   UNL     1       8.407  -1.702  -2.998  1.00  0.00     0.165 A 
ATOM     12  O   UNL     1       8.454  -3.560  -1.773  1.00  0.00    -0.454 OA
ATOM     13  O   UNL     1       8.771  -2.772  -3.801  1.00  0.00    -0.454 OA
ATOM     14  C   UNL     1       8.900  -3.953  -3.046  1.00  0.00     0.468 C 
ENDBRANCH   5   6
ENDBRANCH   1   5
TORSDOF 3
ENDMDL
MODEL 5
REMARK VINA RESULT:      -7.0      1.710      5.507
REMARK SMILES CC(=O)CCc1ccc2c(c1)OCO2
REMARK SMILES IDX 4 1 2 2 1 3 3 4 5 5 6 6 7 7 11 8 8 9 10 10 9 11 12 12 14 13
REMARK SMILES IDX 13 14
REMARK H PARENT
REMARK Flexibility Score: inf
ROOT
ATOM      1  C   UNL     1       8.117  -2.807  -3.543  1.00  0.00     0.080 C 
ENDROOT
BRANCH   1   2
ATOM      2  C   UNL     1       9.268  -3.743  -3.414  1.00  0.00     0.130 C 
ATOM      3  C   UNL     1       9.076  -5.218  -3.390  1.00  0.00     0.087 C 
ATOM      4  O   UNL     1      10.411  -3.324  -3.323  1.00  0.00    -0.300 OA
ENDBRANCH   1   2
BRANCH   1   5
ATOM      5  C   UNL     1       8.510  -1.395  -3.155  1.00  0.00     0.043 C 
BRANCH   5   6
ATOM      6  C   UNL     1       7.769  -0.928  -1.969  1.00  0.00    -0.044 A 
ATOM      7  C   UNL     1       6.967   0.218  -2.011  1.00  0.00     0.008 A 
ATOM      8  C   UNL     1       7.859  -1.629  -0.789  1.00  0.00     0.054 A 
ATOM      9  C   UNL     1       6.294   0.609  -0.868  1.00  0.00     0.051 A 
ATOM     10  C   UNL     1       7.176  -1.231   0.365  1.00  0.00     0.166 A 
ATOM     11  C   UNL     1       6.387  -0.102   0.325  1.00  0.00     0.165 A 
ATOM     12  O   UNL     1       7.103  -1.749   1.640  1.00  0.00    -0.454 OA
ATOM     13  O   UNL     1       5.841   0.050   1.589  1.00  0.00    -0.454 OA
ATOM     14  C   UNL     1       6.196  -1.023   2.429  1.00  0.00     0.468 C 
ENDBRANCH   5   6
ENDBRANCH   1   5
TORSDOF 3
ENDMDL
