@<TRIPOS>MOLECULE
/home/cewinharhar/GITHUB/reincatalyze/data/processed/docking_pred/2023-May-25-1902_sub9_nm5_bs15_s42_ex16_mel10_mts10000_k50_ec01_g099_lra3e-4_lrc3e-3/770c9413ff7d781ea2952f2cc78d7e4b55f6267f_ligand_9.pdbqt
 14 15 0 0 0
SMALL
GASTEIGER

@<TRIPOS>ATOM
      1  C          6.3870    1.1840    0.9590 C.3     1  UNL1        0.0800
      2  C          5.6490    0.3480    1.9480 C.2     1  UNL1        0.1300
      3  C          6.2490   -0.8810    2.5330 C.3     1  UNL1        0.0870
      4  O          4.5240    0.6510    2.3090 O.2     1  UNL1       -0.3000
      5  C          5.8870    0.9370   -0.4500 C.3     1  UNL1        0.0430
      6  C          6.8270    0.1080   -1.2260 C.2     1  UNL1       -0.0440
      7  C          7.5060    0.6160   -2.3390 C.2     1  UNL1        0.0080
      8  C          7.0520   -1.1980   -0.8540 C.2     1  UNL1        0.0540
      9  C          8.3770   -0.2080   -3.0280 C.2     1  UNL1        0.0510
     10  C          7.9340   -2.0270   -1.5530 C.2     1  UNL1        0.1660
     11  C          8.6020   -1.5280   -2.6490 C.2     1  UNL1        0.1650
     12  O          8.3220   -3.3400   -1.3860 O.2     1  UNL1       -0.4540
     13  O          9.3950   -2.5550   -3.1370 O.2     1  UNL1       -0.4540
     14  C          9.3170   -3.6930   -2.3120 C.3     1  UNL1        0.4680
@<TRIPOS>BOND
     1    13    11    1
     2    13    14    1
     3     9    11    2
     4     9     7    1
     5    11    10    1
     6     7     6    2
     7    14    12    1
     8    10    12    1
     9    10     8    2
    10     6     8    1
    11     6     5    1
    12     5     1    1
    13     1     2    1
    14     2     4    2
    15     2     3    1
