@<TRIPOS>MOLECULE
/home/cewinharhar/GITHUB/reincatalyze/data/processed/docking_pred/2023-May-25-1902_sub9_nm5_bs15_s42_ex16_mel10_mts10000_k50_ec01_g099_lra3e-4_lrc3e-3/770c9413ff7d781ea2952f2cc78d7e4b55f6267f_ligand_9.pdbqt
 14 15 0 0 0
SMALL
GASTEIGER

@<TRIPOS>ATOM
      1  C          5.5040    1.9330    1.2560 C.3     1  UNL1        0.0800
      2  C          5.0730    0.7150    1.9970 C.2     1  UNL1        0.1300
      3  C          5.9710   -0.4580    2.1600 C.3     1  UNL1        0.0870
      4  O          3.9610    0.6460    2.4950 O.2     1  UNL1       -0.3000
      5  C          5.3800    1.7390   -0.2420 C.3     1  UNL1        0.0430
      6  C          6.5510    1.0380   -0.8010 C.2     1  UNL1       -0.0440
      7  C          7.8560    1.4750   -0.5480 C.2     1  UNL1        0.0080
      8  C          6.3670   -0.0750   -1.5890 C.2     1  UNL1        0.0540
      9  C          8.9160    0.7770   -1.0980 C.2     1  UNL1        0.0510
     10  C          7.4420   -0.7770   -2.1420 C.2     1  UNL1        0.1660
     11  C          8.7270   -0.3470   -1.8950 C.2     1  UNL1        0.1650
     12  O          7.5200   -1.8940   -2.9470 O.2     1  UNL1       -0.4540
     13  O          9.5760   -1.2190   -2.5590 O.2     1  UNL1       -0.4540
     14  C          8.8570   -2.2670   -3.1630 C.3     1  UNL1        0.4680
@<TRIPOS>BOND
     1    14    12    1
     2    14    13    1
     3    12    10    1
     4    13    11    1
     5    10    11    2
     6    10     8    1
     7    11     9    1
     8     8     6    2
     9     9     7    2
    10     6     7    1
    11     6     5    1
    12     5     1    1
    13     1     2    1
    14     2     3    1
    15     2     4    2
