MODEL 1
REMARK VINA RESULT:      -7.7      0.000      0.000
REMARK SMILES CC(=O)CCc1ccc2c(c1)OCO2
REMARK SMILES IDX 4 1 2 2 1 3 3 4 5 5 6 6 7 7 11 8 8 9 10 10 9 11 12 12 14 13
REMARK SMILES IDX 13 14
REMARK H PARENT
REMARK Flexibility Score: inf
ROOT
ATOM      1  C   UNL     1       5.504   1.933   1.256  1.00  0.00     0.080 C 
ENDROOT
BRANCH   1   2
ATOM      2  C   UNL     1       5.073   0.715   1.997  1.00  0.00     0.130 C 
ATOM      3  C   UNL     1       5.971  -0.458   2.160  1.00  0.00     0.087 C 
ATOM      4  O   UNL     1       3.961   0.646   2.495  1.00  0.00    -0.300 OA
ENDBRANCH   1   2
BRANCH   1   5
ATOM      5  C   UNL     1       5.380   1.739  -0.242  1.00  0.00     0.043 C 
BRANCH   5   6
ATOM      6  C   UNL     1       6.551   1.038  -0.801  1.00  0.00    -0.044 A 
ATOM      7  C   UNL     1       7.856   1.475  -0.548  1.00  0.00     0.008 A 
ATOM      8  C   UNL     1       6.367  -0.075  -1.589  1.00  0.00     0.054 A 
ATOM      9  C   UNL     1       8.916   0.777  -1.098  1.00  0.00     0.051 A 
ATOM     10  C   UNL     1       7.442  -0.777  -2.142  1.00  0.00     0.166 A 
ATOM     11  C   UNL     1       8.727  -0.347  -1.895  1.00  0.00     0.165 A 
ATOM     12  O   UNL     1       7.520  -1.894  -2.947  1.00  0.00    -0.454 OA
ATOM     13  O   UNL     1       9.576  -1.219  -2.559  1.00  0.00    -0.454 OA
ATOM     14  C   UNL     1       8.857  -2.267  -3.163  1.00  0.00     0.468 C 
ENDBRANCH   5   6
ENDBRANCH   1   5
TORSDOF 3
ENDMDL
MODEL 2
REMARK VINA RESULT:      -7.5      1.940      2.404
REMARK SMILES CC(=O)CCc1ccc2c(c1)OCO2
REMARK SMILES IDX 4 1 2 2 1 3 3 4 5 5 6 6 7 7 11 8 8 9 10 10 9 11 12 12 14 13
REMARK SMILES IDX 13 14
REMARK H PARENT
REMARK Flexibility Score: inf
ROOT
ATOM      1  C   UNL     1       5.775   1.370  -0.279  1.00  0.00     0.080 C 
ENDROOT
BRANCH   1   2
ATOM      2  C   UNL     1       5.177   1.266   1.082  1.00  0.00     0.130 C 
ATOM      3  C   UNL     1       5.428   0.091   1.958  1.00  0.00     0.087 C 
ATOM      4  O   UNL     1       4.457   2.150   1.518  1.00  0.00    -0.300 OA
ENDBRANCH   1   2
BRANCH   1   5
ATOM      5  C   UNL     1       7.270   1.120  -0.243  1.00  0.00     0.043 C 
BRANCH   5   6
ATOM      6  C   UNL     1       7.621  -0.179  -0.844  1.00  0.00    -0.044 A 
ATOM      7  C   UNL     1       7.650  -0.361  -2.231  1.00  0.00     0.008 A 
ATOM      8  C   UNL     1       7.933  -1.245  -0.031  1.00  0.00     0.054 A 
ATOM      9  C   UNL     1       7.988  -1.602  -2.738  1.00  0.00     0.051 A 
ATOM     10  C   UNL     1       8.275  -2.498  -0.548  1.00  0.00     0.166 A 
ATOM     11  C   UNL     1       8.302  -2.678  -1.913  1.00  0.00     0.165 A 
ATOM     12  O   UNL     1       8.620  -3.696   0.041  1.00  0.00    -0.454 OA
ATOM     13  O   UNL     1       8.668  -3.996  -2.136  1.00  0.00    -0.454 OA
ATOM     14  C   UNL     1       8.966  -4.652  -0.927  1.00  0.00     0.468 C 
ENDBRANCH   5   6
ENDBRANCH   1   5
TORSDOF 3
ENDMDL
MODEL 3
REMARK VINA RESULT:      -7.2      2.044      2.626
REMARK SMILES CC(=O)CCc1ccc2c(c1)OCO2
REMARK SMILES IDX 4 1 2 2 1 3 3 4 5 5 6 6 7 7 11 8 8 9 10 10 9 11 12 12 14 13
REMARK SMILES IDX 13 14
REMARK H PARENT
REMARK Flexibility Score: inf
ROOT
ATOM      1  C   UNL     1       5.394  -0.062   2.012  1.00  0.00     0.080 C 
ENDROOT
BRANCH   1   2
ATOM      2  C   UNL     1       4.557   1.147   1.771  1.00  0.00     0.130 C 
ATOM      3  C   UNL     1       4.899   2.136   0.714  1.00  0.00     0.087 C 
ATOM      4  O   UNL     1       3.560   1.362   2.441  1.00  0.00    -0.300 OA
ENDBRANCH   1   2
BRANCH   1   5
ATOM      5  C   UNL     1       6.836   0.179   1.612  1.00  0.00     0.043 C 
BRANCH   5   6
ATOM      6  C   UNL     1       7.267  -0.737   0.541  1.00  0.00    -0.044 A 
ATOM      7  C   UNL     1       7.137  -0.396  -0.810  1.00  0.00     0.008 A 
ATOM      8  C   UNL     1       7.812  -1.958   0.865  1.00  0.00     0.054 A 
ATOM      9  C   UNL     1       7.559  -1.295  -1.773  1.00  0.00     0.051 A 
ATOM     10  C   UNL     1       8.238  -2.863  -0.111  1.00  0.00     0.166 A 
ATOM     11  C   UNL     1       8.110  -2.529  -1.441  1.00  0.00     0.165 A 
ATOM     12  O   UNL     1       8.803  -4.119  -0.045  1.00  0.00    -0.454 OA
ATOM     13  O   UNL     1       8.606  -3.598  -2.172  1.00  0.00    -0.454 OA
ATOM     14  C   UNL     1       9.138  -4.589  -1.326  1.00  0.00     0.468 C 
ENDBRANCH   5   6
ENDBRANCH   1   5
TORSDOF 3
ENDMDL
MODEL 4
REMARK VINA RESULT:      -7.1      1.262      1.475
REMARK SMILES CC(=O)CCc1ccc2c(c1)OCO2
REMARK SMILES IDX 4 1 2 2 1 3 3 4 5 5 6 6 7 7 11 8 8 9 10 10 9 11 12 12 14 13
REMARK SMILES IDX 13 14
REMARK H PARENT
REMARK Flexibility Score: inf
ROOT
ATOM      1  C   UNL     1       6.387   1.184   0.959  1.00  0.00     0.080 C 
ENDROOT
BRANCH   1   2
ATOM      2  C   UNL     1       5.649   0.348   1.948  1.00  0.00     0.130 C 
ATOM      3  C   UNL     1       6.249  -0.881   2.533  1.00  0.00     0.087 C 
ATOM      4  O   UNL     1       4.524   0.651   2.309  1.00  0.00    -0.300 OA
ENDBRANCH   1   2
BRANCH   1   5
ATOM      5  C   UNL     1       5.887   0.937  -0.450  1.00  0.00     0.043 C 
BRANCH   5   6
ATOM      6  C   UNL     1       6.827   0.108  -1.226  1.00  0.00    -0.044 A 
ATOM      7  C   UNL     1       7.506   0.616  -2.339  1.00  0.00     0.008 A 
ATOM      8  C   UNL     1       7.052  -1.198  -0.854  1.00  0.00     0.054 A 
ATOM      9  C   UNL     1       8.377  -0.208  -3.028  1.00  0.00     0.051 A 
ATOM     10  C   UNL     1       7.934  -2.027  -1.553  1.00  0.00     0.166 A 
ATOM     11  C   UNL     1       8.602  -1.528  -2.649  1.00  0.00     0.165 A 
ATOM     12  O   UNL     1       8.322  -3.340  -1.386  1.00  0.00    -0.454 OA
ATOM     13  O   UNL     1       9.395  -2.555  -3.137  1.00  0.00    -0.454 OA
ATOM     14  C   UNL     1       9.317  -3.693  -2.312  1.00  0.00     0.468 C 
ENDBRANCH   5   6
ENDBRANCH   1   5
TORSDOF 3
ENDMDL
MODEL 5
REMARK VINA RESULT:      -6.8      1.265      1.757
REMARK SMILES CC(=O)CCc1ccc2c(c1)OCO2
REMARK SMILES IDX 4 1 2 2 1 3 3 4 5 5 6 6 7 7 11 8 8 9 10 10 9 11 12 12 14 13
REMARK SMILES IDX 13 14
REMARK H PARENT
REMARK Flexibility Score: inf
ROOT
ATOM      1  C   UNL     1       5.327  -0.062   1.976  1.00  0.00     0.080 C 
ENDROOT
BRANCH   1   2
ATOM      2  C   UNL     1       4.440   1.119   1.788  1.00  0.00     0.130 C 
ATOM      3  C   UNL     1       4.721   2.150   0.753  1.00  0.00     0.087 C 
ATOM      4  O   UNL     1       3.449   1.277   2.483  1.00  0.00    -0.300 OA
ENDBRANCH   1   2
BRANCH   1   5
ATOM      5  C   UNL     1       6.789   0.330   1.906  1.00  0.00     0.043 C 
BRANCH   5   6
ATOM      6  C   UNL     1       7.390  -0.032   0.610  1.00  0.00    -0.044 A 
ATOM      7  C   UNL     1       7.882   0.942  -0.268  1.00  0.00     0.008 A 
ATOM      8  C   UNL     1       7.478  -1.356   0.244  1.00  0.00     0.054 A 
ATOM      9  C   UNL     1       8.436   0.543  -1.470  1.00  0.00     0.051 A 
ATOM     10  C   UNL     1       8.039  -1.754  -0.972  1.00  0.00     0.166 A 
ATOM     11  C   UNL     1       8.522  -0.797  -1.837  1.00  0.00     0.165 A 
ATOM     12  O   UNL     1       8.238  -2.987  -1.557  1.00  0.00    -0.454 OA
ATOM     13  O   UNL     1       9.014  -1.469  -2.945  1.00  0.00    -0.454 OA
ATOM     14  C   UNL     1       8.936  -2.863  -2.770  1.00  0.00     0.468 C 
ENDBRANCH   5   6
ENDBRANCH   1   5
TORSDOF 3
ENDMDL
