@<TRIPOS>MOLECULE
/home/cewinharhar/GITHUB/reincatalyze/data/processed/docking_pred/2023-May-25-1902_sub9_nm5_bs15_s42_ex16_mel10_mts10000_k50_ec01_g099_lra3e-4_lrc3e-3/777751631f294be45381376aa4be6161cfc72981_ligand_9.pdbqt
 14 15 0 0 0
SMALL
GASTEIGER

@<TRIPOS>ATOM
      1  C          5.3170   -0.0610    1.9670 C.3     1  UNL1        0.0800
      2  C          4.4380    1.1280    1.7860 C.2     1  UNL1        0.1300
      3  C          4.7130    2.1500    0.7410 C.3     1  UNL1        0.0870
      4  O          3.4610    1.2980    2.4960 O.2     1  UNL1       -0.3000
      5  C          6.7820    0.3220    1.8990 C.3     1  UNL1        0.0430
      6  C          7.3820   -0.0400    0.6020 C.2     1  UNL1       -0.0440
      7  C          7.8650    0.9340   -0.2800 C.2     1  UNL1        0.0080
      8  C          7.4770   -1.3640    0.2400 C.2     1  UNL1        0.0540
      9  C          8.4180    0.5350   -1.4830 C.2     1  UNL1        0.0510
     10  C          8.0380   -1.7630   -0.9770 C.2     1  UNL1        0.1660
     11  C          8.5120   -0.8050   -1.8460 C.2     1  UNL1        0.1650
     12  O          8.2430   -2.9960   -1.5580 O.2     1  UNL1       -0.4540
     13  O          9.0040   -1.4770   -2.9530 O.2     1  UNL1       -0.4540
     14  C          8.9360   -2.8710   -2.7740 C.3     1  UNL1        0.4680
@<TRIPOS>BOND
     1    13    14    1
     2    13    11    1
     3    14    12    1
     4    11     9    2
     5    11    10    1
     6    12    10    1
     7     9     7    1
     8    10     8    2
     9     7     6    2
    10     8     6    1
    11     6     5    1
    12     3     2    1
    13     2     1    1
    14     2     4    2
    15     5     1    1
