MODEL 1
REMARK VINA RESULT:      -7.7      0.000      0.000
REMARK SMILES CC(=O)CCc1ccc2c(c1)OCO2
REMARK SMILES IDX 4 1 2 2 1 3 3 4 5 5 6 6 7 7 11 8 8 9 10 10 9 11 12 12 14 13
REMARK SMILES IDX 13 14
REMARK H PARENT
REMARK Flexibility Score: inf
ROOT
ATOM      1  C   UNL     1       5.514   1.901   1.278  1.00  0.00     0.080 C 
ENDROOT
BRANCH   1   2
ATOM      2  C   UNL     1       5.065   0.682   2.007  1.00  0.00     0.130 C 
ATOM      3  C   UNL     1       5.946  -0.506   2.158  1.00  0.00     0.087 C 
ATOM      4  O   UNL     1       3.952   0.624   2.505  1.00  0.00    -0.300 OA
ENDBRANCH   1   2
BRANCH   1   5
ATOM      5  C   UNL     1       5.389   1.723  -0.222  1.00  0.00     0.043 C 
BRANCH   5   6
ATOM      6  C   UNL     1       6.558   1.026  -0.788  1.00  0.00    -0.044 A 
ATOM      7  C   UNL     1       7.863   1.468  -0.545  1.00  0.00     0.008 A 
ATOM      8  C   UNL     1       6.373  -0.088  -1.575  1.00  0.00     0.054 A 
ATOM      9  C   UNL     1       8.922   0.774  -1.103  1.00  0.00     0.051 A 
ATOM     10  C   UNL     1       7.446  -0.786  -2.136  1.00  0.00     0.166 A 
ATOM     11  C   UNL     1       8.731  -0.351  -1.898  1.00  0.00     0.165 A 
ATOM     12  O   UNL     1       7.523  -1.903  -2.941  1.00  0.00    -0.454 OA
ATOM     13  O   UNL     1       9.579  -1.220  -2.568  1.00  0.00    -0.454 OA
ATOM     14  C   UNL     1       8.859  -2.271  -3.167  1.00  0.00     0.468 C 
ENDBRANCH   5   6
ENDBRANCH   1   5
TORSDOF 3
ENDMDL
MODEL 2
REMARK VINA RESULT:      -7.5      1.932      2.394
REMARK SMILES CC(=O)CCc1ccc2c(c1)OCO2
REMARK SMILES IDX 4 1 2 2 1 3 3 4 5 5 6 6 7 7 11 8 8 9 10 10 9 11 12 12 14 13
REMARK SMILES IDX 13 14
REMARK H PARENT
REMARK Flexibility Score: inf
ROOT
ATOM      1  C   UNL     1       5.734   1.327  -0.286  1.00  0.00     0.080 C 
ENDROOT
BRANCH   1   2
ATOM      2  C   UNL     1       5.113   1.253   1.066  1.00  0.00     0.130 C 
ATOM      3  C   UNL     1       5.343   0.093   1.968  1.00  0.00     0.087 C 
ATOM      4  O   UNL     1       4.392   2.149   1.475  1.00  0.00    -0.300 OA
ENDBRANCH   1   2
BRANCH   1   5
ATOM      5  C   UNL     1       7.228   1.086  -0.220  1.00  0.00     0.043 C 
BRANCH   5   6
ATOM      6  C   UNL     1       7.602  -0.200  -0.836  1.00  0.00    -0.044 A 
ATOM      7  C   UNL     1       7.661  -0.357  -2.225  1.00  0.00     0.008 A 
ATOM      8  C   UNL     1       7.904  -1.278  -0.035  1.00  0.00     0.054 A 
ATOM      9  C   UNL     1       8.019  -1.587  -2.747  1.00  0.00     0.051 A 
ATOM     10  C   UNL     1       8.266  -2.519  -0.567  1.00  0.00     0.166 A 
ATOM     11  C   UNL     1       8.323  -2.675  -1.934  1.00  0.00     0.165 A 
ATOM     12  O   UNL     1       8.606  -3.725   0.008  1.00  0.00    -0.454 OA
ATOM     13  O   UNL     1       8.702  -3.987  -2.172  1.00  0.00    -0.454 OA
ATOM     14  C   UNL     1       8.980  -4.662  -0.969  1.00  0.00     0.468 C 
ENDBRANCH   5   6
ENDBRANCH   1   5
TORSDOF 3
ENDMDL
MODEL 3
REMARK VINA RESULT:      -7.2      2.097      2.648
REMARK SMILES CC(=O)CCc1ccc2c(c1)OCO2
REMARK SMILES IDX 4 1 2 2 1 3 3 4 5 5 6 6 7 7 11 8 8 9 10 10 9 11 12 12 14 13
REMARK SMILES IDX 13 14
REMARK H PARENT
REMARK Flexibility Score: inf
ROOT
ATOM      1  C   UNL     1       5.519  -0.032   1.938  1.00  0.00     0.080 C 
ENDROOT
BRANCH   1   2
ATOM      2  C   UNL     1       4.660   1.148   1.640  1.00  0.00     0.130 C 
ATOM      3  C   UNL     1       5.005   2.112   0.562  1.00  0.00     0.087 C 
ATOM      4  O   UNL     1       3.641   1.358   2.278  1.00  0.00    -0.300 OA
ENDBRANCH   1   2
BRANCH   1   5
ATOM      5  C   UNL     1       6.950   0.203   1.496  1.00  0.00     0.043 C 
BRANCH   5   6
ATOM      6  C   UNL     1       7.362  -0.752   0.452  1.00  0.00    -0.044 A 
ATOM      7  C   UNL     1       7.238  -0.449  -0.909  1.00  0.00     0.008 A 
ATOM      8  C   UNL     1       7.887  -1.972   0.812  1.00  0.00     0.054 A 
ATOM      9  C   UNL     1       7.643  -1.384  -1.844  1.00  0.00     0.051 A 
ATOM     10  C   UNL     1       8.296  -2.914  -0.137  1.00  0.00     0.166 A 
ATOM     11  C   UNL     1       8.172  -2.617  -1.476  1.00  0.00     0.165 A 
ATOM     12  O   UNL     1       8.838  -4.177  -0.035  1.00  0.00    -0.454 OA
ATOM     13  O   UNL     1       8.648  -3.715  -2.176  1.00  0.00    -0.454 OA
ATOM     14  C   UNL     1       9.164  -4.690  -1.301  1.00  0.00     0.468 C 
ENDBRANCH   5   6
ENDBRANCH   1   5
TORSDOF 3
ENDMDL
MODEL 4
REMARK VINA RESULT:      -7.1      1.258      1.472
REMARK SMILES CC(=O)CCc1ccc2c(c1)OCO2
REMARK SMILES IDX 4 1 2 2 1 3 3 4 5 5 6 6 7 7 11 8 8 9 10 10 9 11 12 12 14 13
REMARK SMILES IDX 13 14
REMARK H PARENT
REMARK Flexibility Score: inf
ROOT
ATOM      1  C   UNL     1       6.379   1.179   0.955  1.00  0.00     0.080 C 
ENDROOT
BRANCH   1   2
ATOM      2  C   UNL     1       5.649   0.362   1.963  1.00  0.00     0.130 C 
ATOM      3  C   UNL     1       6.247  -0.865   2.555  1.00  0.00     0.087 C 
ATOM      4  O   UNL     1       4.530   0.677   2.335  1.00  0.00    -0.300 OA
ENDBRANCH   1   2
BRANCH   1   5
ATOM      5  C   UNL     1       5.866   0.912  -0.446  1.00  0.00     0.043 C 
BRANCH   5   6
ATOM      6  C   UNL     1       6.810   0.091  -1.226  1.00  0.00    -0.044 A 
ATOM      7  C   UNL     1       7.480   0.605  -2.342  1.00  0.00     0.008 A 
ATOM      8  C   UNL     1       7.048  -1.213  -0.855  1.00  0.00     0.054 A 
ATOM      9  C   UNL     1       8.355  -0.211  -3.035  1.00  0.00     0.051 A 
ATOM     10  C   UNL     1       7.934  -2.034  -1.559  1.00  0.00     0.166 A 
ATOM     11  C   UNL     1       8.593  -1.529  -2.658  1.00  0.00     0.165 A 
ATOM     12  O   UNL     1       8.334  -3.343  -1.394  1.00  0.00    -0.454 OA
ATOM     13  O   UNL     1       9.393  -2.549  -3.149  1.00  0.00    -0.454 OA
ATOM     14  C   UNL     1       9.328  -3.688  -2.324  1.00  0.00     0.468 C 
ENDBRANCH   5   6
ENDBRANCH   1   5
TORSDOF 3
ENDMDL
MODEL 5
REMARK VINA RESULT:      -6.8      1.269      1.752
REMARK SMILES CC(=O)CCc1ccc2c(c1)OCO2
REMARK SMILES IDX 4 1 2 2 1 3 3 4 5 5 6 6 7 7 11 8 8 9 10 10 9 11 12 12 14 13
REMARK SMILES IDX 13 14
REMARK H PARENT
REMARK Flexibility Score: inf
ROOT
ATOM      1  C   UNL     1       5.317  -0.061   1.967  1.00  0.00     0.080 C 
ENDROOT
BRANCH   1   2
ATOM      2  C   UNL     1       4.438   1.128   1.786  1.00  0.00     0.130 C 
ATOM      3  C   UNL     1       4.713   2.150   0.741  1.00  0.00     0.087 C 
ATOM      4  O   UNL     1       3.461   1.298   2.496  1.00  0.00    -0.300 OA
ENDBRANCH   1   2
BRANCH   1   5
ATOM      5  C   UNL     1       6.782   0.322   1.899  1.00  0.00     0.043 C 
BRANCH   5   6
ATOM      6  C   UNL     1       7.382  -0.040   0.602  1.00  0.00    -0.044 A 
ATOM      7  C   UNL     1       7.865   0.934  -0.280  1.00  0.00     0.008 A 
ATOM      8  C   UNL     1       7.477  -1.364   0.240  1.00  0.00     0.054 A 
ATOM      9  C   UNL     1       8.418   0.535  -1.483  1.00  0.00     0.051 A 
ATOM     10  C   UNL     1       8.038  -1.763  -0.977  1.00  0.00     0.166 A 
ATOM     11  C   UNL     1       8.512  -0.805  -1.846  1.00  0.00     0.165 A 
ATOM     12  O   UNL     1       8.243  -2.996  -1.558  1.00  0.00    -0.454 OA
ATOM     13  O   UNL     1       9.004  -1.477  -2.953  1.00  0.00    -0.454 OA
ATOM     14  C   UNL     1       8.936  -2.871  -2.774  1.00  0.00     0.468 C 
ENDBRANCH   5   6
ENDBRANCH   1   5
TORSDOF 3
ENDMDL
