@<TRIPOS>MOLECULE
/home/cewinharhar/GITHUB/reincatalyze/data/processed/docking_pred/2023-May-25-1902_sub9_nm5_bs15_s42_ex16_mel10_mts10000_k50_ec01_g099_lra3e-4_lrc3e-3/79094ef31ed65e340e791eab6f4e997ef8bc8970_ligand_9.pdbqt
 14 15 0 0 0
SMALL
GASTEIGER

@<TRIPOS>ATOM
      1  C          5.7390    1.2980   -0.2950 C.3     1  UNL1        0.0800
      2  C          5.2070    1.2330    1.0950 C.2     1  UNL1        0.1300
      3  C          5.4560    0.0590    1.9720 C.3     1  UNL1        0.0870
      4  O          4.5450    2.1490    1.5560 O.2     1  UNL1       -0.3000
      5  C          7.2400    1.0920   -0.3200 C.3     1  UNL1        0.0430
      6  C          7.6050   -0.2000   -0.9260 C.2     1  UNL1       -0.0440
      7  C          7.6260   -0.3790   -2.3140 C.2     1  UNL1        0.0080
      8  C          7.9370   -1.2640   -0.1180 C.2     1  UNL1        0.0540
      9  C          7.9770   -1.6150   -2.8260 C.2     1  UNL1        0.0510
     10  C          8.2910   -2.5110   -0.6400 C.2     1  UNL1        0.1660
     11  C          8.3110   -2.6880   -2.0060 C.2     1  UNL1        0.1650
     12  O          8.6560   -3.7060   -0.0560 O.2     1  UNL1       -0.4540
     13  O          8.6920   -4.0010   -2.2350 O.2     1  UNL1       -0.4540
     14  C          9.0080   -4.6560   -1.0290 C.3     1  UNL1        0.4680
@<TRIPOS>BOND
     1     9     7    1
     2     9    11    2
     3     7     6    2
     4    13    11    1
     5    13    14    1
     6    11    10    1
     7    14    12    1
     8     6     5    1
     9     6     8    1
    10    10     8    2
    11    10    12    1
    12     5     1    1
    13     1     2    1
    14     2     4    2
    15     2     3    1
