@<TRIPOS>MOLECULE
/home/cewinharhar/GITHUB/reincatalyze/data/processed/docking_pred/2023-May-25-1902_sub9_nm5_bs15_s42_ex16_mel10_mts10000_k50_ec01_g099_lra3e-4_lrc3e-3/79495f175fd15f32955b26bb978cae7af324a937_ligand_9.pdbqt
 14 15 0 0 0
SMALL
GASTEIGER

@<TRIPOS>ATOM
      1  C          5.7030    2.0410    1.5000 C.3     1  UNL1        0.0800
      2  C          5.4820    0.7560    2.2190 C.2     1  UNL1        0.1300
      3  C          6.6180   -0.0820    2.6890 C.3     1  UNL1        0.0870
      4  O          4.3530    0.3500    2.4450 O.2     1  UNL1       -0.3000
      5  C          5.5090    1.8760    0.0060 C.3     1  UNL1        0.0430
      6  C          6.6290    1.1440   -0.6120 C.2     1  UNL1       -0.0440
      7  C          7.9540    1.5690   -0.4640 C.2     1  UNL1        0.0080
      8  C          6.3770    0.0120   -1.3540 C.2     1  UNL1        0.0540
      9  C          8.9640    0.8410   -1.0660 C.2     1  UNL1        0.0510
     10  C          7.4010   -0.7210   -1.9610 C.2     1  UNL1        0.1660
     11  C          8.7050   -0.3030   -1.8160 C.2     1  UNL1        0.1650
     12  O          7.4080   -1.8610   -2.7360 O.2     1  UNL1       -0.4540
     13  O          9.4950   -1.2050   -2.5120 O.2     1  UNL1       -0.4540
     14  C          8.7220   -2.2590   -3.0350 C.3     1  UNL1        0.4680
@<TRIPOS>BOND
     1    14    12    1
     2    14    13    1
     3    12    10    1
     4    13    11    1
     5    10    11    2
     6    10     8    1
     7    11     9    1
     8     8     6    2
     9     9     7    2
    10     6     7    1
    11     6     5    1
    12     5     1    1
    13     1     2    1
    14     2     4    2
    15     2     3    1
