@<TRIPOS>MOLECULE
/home/cewinharhar/GITHUB/reincatalyze/data/processed/docking_pred/2023-May-25-1902_sub9_nm5_bs15_s42_ex16_mel10_mts10000_k50_ec01_g099_lra3e-4_lrc3e-3/79495f175fd15f32955b26bb978cae7af324a937_ligand_9.pdbqt
 14 15 0 0 0
SMALL
GASTEIGER

@<TRIPOS>ATOM
      1  C          8.5470    0.2950   -2.5550 C.3     1  UNL1        0.0800
      2  C          8.4720   -1.1800   -2.7520 C.2     1  UNL1        0.1300
      3  C          7.1690   -1.8810   -2.9100 C.3     1  UNL1        0.0870
      4  O          9.4850   -1.8600   -2.7890 O.2     1  UNL1       -0.3000
      5  C          8.9970    0.6400   -1.1490 C.3     1  UNL1        0.0430
      6  C          7.9130    0.4540   -0.1670 C.2     1  UNL1       -0.0440
      7  C          7.9160   -0.6180    0.7330 C.2     1  UNL1        0.0080
      8  C          6.8700    1.3510   -0.1240 C.2     1  UNL1        0.0540
      9  C          6.8720   -0.7410    1.6330 C.2     1  UNL1        0.0510
     10  C          5.8180    1.2220    0.7880 C.2     1  UNL1        0.1660
     11  C          5.8190    0.1680    1.6730 C.2     1  UNL1        0.1650
     12  O          4.6840    1.9690    1.0250 O.2     1  UNL1       -0.4540
     13  O          4.6740    0.2910    2.4440 O.2     1  UNL1       -0.4540
     14  C          3.9730    1.4690    2.1280 C.3     1  UNL1        0.4680
@<TRIPOS>BOND
     1     3     2    1
     2     4     2    2
     3     2     1    1
     4     1     5    1
     5     5     6    1
     6     6     8    2
     7     6     7    1
     8     8    10    1
     9     7     9    2
    10    10    12    1
    11    10    11    2
    12    12    14    1
    13     9    11    1
    14    11    13    1
    15    14    13    1
