@<TRIPOS>MOLECULE
/home/cewinharhar/GITHUB/reincatalyze/data/processed/docking_pred/2023-May-25-1902_sub9_nm5_bs15_s42_ex16_mel10_mts10000_k50_ec01_g099_lra3e-4_lrc3e-3/79495f175fd15f32955b26bb978cae7af324a937_ligand_9.pdbqt
 14 15 0 0 0
SMALL
GASTEIGER

@<TRIPOS>ATOM
      1  C          5.4010    1.3700    0.2830 C.3     1  UNL1        0.0800
      2  C          5.2290    1.3090    1.7610 C.2     1  UNL1        0.1300
      3  C          6.3800    1.0640    2.6720 C.3     1  UNL1        0.0870
      4  O          4.1310    1.4600    2.2710 O.2     1  UNL1       -0.3000
      5  C          6.8680    1.3870   -0.1000 C.3     1  UNL1        0.0430
      6  C          7.2770    0.1320   -0.7560 C.2     1  UNL1       -0.0440
      7  C          7.2470   -0.0110   -2.1480 C.2     1  UNL1        0.0080
      8  C          7.7010   -0.9300    0.0090 C.2     1  UNL1        0.0540
      9  C          7.6430   -1.2130   -2.7070 C.2     1  UNL1        0.0510
     10  C          8.1010   -2.1420   -0.5610 C.2     1  UNL1        0.1660
     11  C          8.0710   -2.2850   -1.9300 C.2     1  UNL1        0.1650
     12  O          8.5560   -3.3290   -0.0250 O.2     1  UNL1       -0.4540
     13  O          8.5140   -3.5680   -2.2100 O.2     1  UNL1       -0.4540
     14  C          8.9180   -4.2330   -1.0360 C.3     1  UNL1        0.4680
@<TRIPOS>BOND
     1     9     7    1
     2     9    11    2
     3    13    11    1
     4    13    14    1
     5     7     6    2
     6    11    10    1
     7    14    12    1
     8     6     5    1
     9     6     8    1
    10    10    12    1
    11    10     8    2
    12     5     1    1
    13     1     2    1
    14     2     4    2
    15     2     3    1
