@<TRIPOS>MOLECULE
/home/cewinharhar/GITHUB/reincatalyze/data/processed/docking_pred/2023-May-25-1902_sub9_nm5_bs15_s42_ex16_mel10_mts10000_k50_ec01_g099_lra3e-4_lrc3e-3/79495f175fd15f32955b26bb978cae7af324a937_ligand_9.pdbqt
 14 15 0 0 0
SMALL
GASTEIGER

@<TRIPOS>ATOM
      1  C          5.3380   -0.0220    2.0580 C.3     1  UNL1        0.0800
      2  C          4.4980    1.1940    1.8740 C.2     1  UNL1        0.1300
      3  C          4.7410    2.1500    0.7610 C.3     1  UNL1        0.0870
      4  O          3.5800    1.4420    2.6380 O.2     1  UNL1       -0.3000
      5  C          6.8150    0.3150    1.9980 C.3     1  UNL1        0.0430
      6  C          7.4010   -0.0280    0.6900 C.2     1  UNL1       -0.0440
      7  C          7.8890    0.9570   -0.1760 C.2     1  UNL1        0.0080
      8  C          7.4790   -1.3460    0.3020 C.2     1  UNL1        0.0540
      9  C          8.4290    0.5750   -1.3910 C.2     1  UNL1        0.0510
     10  C          8.0260   -1.7270   -0.9270 C.2     1  UNL1        0.1660
     11  C          8.5050   -0.7580   -1.7800 C.2     1  UNL1        0.1650
     12  O          8.2130   -2.9510   -1.5330 O.2     1  UNL1       -0.4540
     13  O          8.9820   -1.4140   -2.9040 O.2     1  UNL1       -0.4540
     14  C          8.8990   -2.8110   -2.7510 C.3     1  UNL1        0.4680
@<TRIPOS>BOND
     1    13    14    1
     2    13    11    1
     3    14    12    1
     4    11     9    2
     5    11    10    1
     6    12    10    1
     7     9     7    1
     8    10     8    2
     9     7     6    2
    10     8     6    1
    11     6     5    1
    12     3     2    1
    13     2     1    1
    14     2     4    2
    15     5     1    1
