MODEL 1
REMARK VINA RESULT:      -7.6      0.000      0.000
REMARK SMILES CC(=O)CCc1ccc2c(c1)OCO2
REMARK SMILES IDX 4 1 2 2 1 3 3 4 5 5 6 6 7 7 11 8 8 9 10 10 9 11 12 12 14 13
REMARK SMILES IDX 13 14
REMARK H PARENT
REMARK Flexibility Score: inf
ROOT
ATOM      1  C   UNL     1       5.703   2.041   1.500  1.00  0.00     0.080 C 
ENDROOT
BRANCH   1   2
ATOM      2  C   UNL     1       5.482   0.756   2.219  1.00  0.00     0.130 C 
ATOM      3  C   UNL     1       6.618  -0.082   2.689  1.00  0.00     0.087 C 
ATOM      4  O   UNL     1       4.353   0.350   2.445  1.00  0.00    -0.300 OA
ENDBRANCH   1   2
BRANCH   1   5
ATOM      5  C   UNL     1       5.509   1.876   0.006  1.00  0.00     0.043 C 
BRANCH   5   6
ATOM      6  C   UNL     1       6.629   1.144  -0.612  1.00  0.00    -0.044 A 
ATOM      7  C   UNL     1       7.954   1.569  -0.464  1.00  0.00     0.008 A 
ATOM      8  C   UNL     1       6.377   0.012  -1.354  1.00  0.00     0.054 A 
ATOM      9  C   UNL     1       8.964   0.841  -1.066  1.00  0.00     0.051 A 
ATOM     10  C   UNL     1       7.401  -0.721  -1.961  1.00  0.00     0.166 A 
ATOM     11  C   UNL     1       8.705  -0.303  -1.816  1.00  0.00     0.165 A 
ATOM     12  O   UNL     1       7.408  -1.861  -2.736  1.00  0.00    -0.454 OA
ATOM     13  O   UNL     1       9.495  -1.205  -2.512  1.00  0.00    -0.454 OA
ATOM     14  C   UNL     1       8.722  -2.259  -3.035  1.00  0.00     0.468 C 
ENDBRANCH   5   6
ENDBRANCH   1   5
TORSDOF 3
ENDMDL
MODEL 2
REMARK VINA RESULT:      -7.5      2.043      2.632
REMARK SMILES CC(=O)CCc1ccc2c(c1)OCO2
REMARK SMILES IDX 4 1 2 2 1 3 3 4 5 5 6 6 7 7 11 8 8 9 10 10 9 11 12 12 14 13
REMARK SMILES IDX 13 14
REMARK H PARENT
REMARK Flexibility Score: inf
ROOT
ATOM      1  C   UNL     1       5.383  -0.026   2.106  1.00  0.00     0.080 C 
ENDROOT
BRANCH   1   2
ATOM      2  C   UNL     1       4.594   1.214   1.866  1.00  0.00     0.130 C 
ATOM      3  C   UNL     1       4.928   2.149   0.758  1.00  0.00     0.087 C 
ATOM      4  O   UNL     1       3.644   1.501   2.577  1.00  0.00    -0.300 OA
ENDBRANCH   1   2
BRANCH   1   5
ATOM      5  C   UNL     1       6.842   0.171   1.746  1.00  0.00     0.043 C 
BRANCH   5   6
ATOM      6  C   UNL     1       7.259  -0.717   0.646  1.00  0.00    -0.044 A 
ATOM      7  C   UNL     1       7.119  -0.339  -0.694  1.00  0.00     0.008 A 
ATOM      8  C   UNL     1       7.801  -1.949   0.933  1.00  0.00     0.054 A 
ATOM      9  C   UNL     1       7.529  -1.214  -1.684  1.00  0.00     0.051 A 
ATOM     10  C   UNL     1       8.213  -2.830  -0.072  1.00  0.00     0.166 A 
ATOM     11  C   UNL     1       8.076  -2.459  -1.391  1.00  0.00     0.165 A 
ATOM     12  O   UNL     1       8.772  -4.090  -0.046  1.00  0.00    -0.454 OA
ATOM     13  O   UNL     1       8.559  -3.510  -2.155  1.00  0.00    -0.454 OA
ATOM     14  C   UNL     1       9.094  -4.526  -1.341  1.00  0.00     0.468 C 
ENDBRANCH   5   6
ENDBRANCH   1   5
TORSDOF 3
ENDMDL
MODEL 3
REMARK VINA RESULT:      -7.2      1.682      2.105
REMARK SMILES CC(=O)CCc1ccc2c(c1)OCO2
REMARK SMILES IDX 4 1 2 2 1 3 3 4 5 5 6 6 7 7 11 8 8 9 10 10 9 11 12 12 14 13
REMARK SMILES IDX 13 14
REMARK H PARENT
REMARK Flexibility Score: inf
ROOT
ATOM      1  C   UNL     1       5.401   1.370   0.283  1.00  0.00     0.080 C 
ENDROOT
BRANCH   1   2
ATOM      2  C   UNL     1       5.229   1.309   1.761  1.00  0.00     0.130 C 
ATOM      3  C   UNL     1       6.380   1.064   2.672  1.00  0.00     0.087 C 
ATOM      4  O   UNL     1       4.131   1.460   2.271  1.00  0.00    -0.300 OA
ENDBRANCH   1   2
BRANCH   1   5
ATOM      5  C   UNL     1       6.868   1.387  -0.100  1.00  0.00     0.043 C 
BRANCH   5   6
ATOM      6  C   UNL     1       7.277   0.132  -0.756  1.00  0.00    -0.044 A 
ATOM      7  C   UNL     1       7.247  -0.011  -2.148  1.00  0.00     0.008 A 
ATOM      8  C   UNL     1       7.701  -0.930   0.009  1.00  0.00     0.054 A 
ATOM      9  C   UNL     1       7.643  -1.213  -2.707  1.00  0.00     0.051 A 
ATOM     10  C   UNL     1       8.101  -2.142  -0.561  1.00  0.00     0.166 A 
ATOM     11  C   UNL     1       8.071  -2.285  -1.930  1.00  0.00     0.165 A 
ATOM     12  O   UNL     1       8.556  -3.329  -0.025  1.00  0.00    -0.454 OA
ATOM     13  O   UNL     1       8.514  -3.568  -2.210  1.00  0.00    -0.454 OA
ATOM     14  C   UNL     1       8.918  -4.233  -1.036  1.00  0.00     0.468 C 
ENDBRANCH   5   6
ENDBRANCH   1   5
TORSDOF 3
ENDMDL
MODEL 4
REMARK VINA RESULT:      -7.0      1.302      5.235
REMARK SMILES CC(=O)CCc1ccc2c(c1)OCO2
REMARK SMILES IDX 4 1 2 2 1 3 3 4 5 5 6 6 7 7 11 8 8 9 10 10 9 11 12 12 14 13
REMARK SMILES IDX 13 14
REMARK H PARENT
REMARK Flexibility Score: inf
ROOT
ATOM      1  C   UNL     1       8.547   0.295  -2.555  1.00  0.00     0.080 C 
ENDROOT
BRANCH   1   2
ATOM      2  C   UNL     1       8.472  -1.180  -2.752  1.00  0.00     0.130 C 
ATOM      3  C   UNL     1       7.169  -1.881  -2.910  1.00  0.00     0.087 C 
ATOM      4  O   UNL     1       9.485  -1.860  -2.789  1.00  0.00    -0.300 OA
ENDBRANCH   1   2
BRANCH   1   5
ATOM      5  C   UNL     1       8.997   0.640  -1.149  1.00  0.00     0.043 C 
BRANCH   5   6
ATOM      6  C   UNL     1       7.913   0.454  -0.167  1.00  0.00    -0.044 A 
ATOM      7  C   UNL     1       7.916  -0.618   0.733  1.00  0.00     0.008 A 
ATOM      8  C   UNL     1       6.870   1.351  -0.124  1.00  0.00     0.054 A 
ATOM      9  C   UNL     1       6.872  -0.741   1.633  1.00  0.00     0.051 A 
ATOM     10  C   UNL     1       5.818   1.222   0.788  1.00  0.00     0.166 A 
ATOM     11  C   UNL     1       5.819   0.168   1.673  1.00  0.00     0.165 A 
ATOM     12  O   UNL     1       4.684   1.969   1.025  1.00  0.00    -0.454 OA
ATOM     13  O   UNL     1       4.674   0.291   2.444  1.00  0.00    -0.454 OA
ATOM     14  C   UNL     1       3.973   1.469   2.128  1.00  0.00     0.468 C 
ENDBRANCH   5   6
ENDBRANCH   1   5
TORSDOF 3
ENDMDL
MODEL 5
REMARK VINA RESULT:      -7.0      1.272      1.801
REMARK SMILES CC(=O)CCc1ccc2c(c1)OCO2
REMARK SMILES IDX 4 1 2 2 1 3 3 4 5 5 6 6 7 7 11 8 8 9 10 10 9 11 12 12 14 13
REMARK SMILES IDX 13 14
REMARK H PARENT
REMARK Flexibility Score: inf
ROOT
ATOM      1  C   UNL     1       5.338  -0.022   2.058  1.00  0.00     0.080 C 
ENDROOT
BRANCH   1   2
ATOM      2  C   UNL     1       4.498   1.194   1.874  1.00  0.00     0.130 C 
ATOM      3  C   UNL     1       4.741   2.150   0.761  1.00  0.00     0.087 C 
ATOM      4  O   UNL     1       3.580   1.442   2.638  1.00  0.00    -0.300 OA
ENDBRANCH   1   2
BRANCH   1   5
ATOM      5  C   UNL     1       6.815   0.315   1.998  1.00  0.00     0.043 C 
BRANCH   5   6
ATOM      6  C   UNL     1       7.401  -0.028   0.690  1.00  0.00    -0.044 A 
ATOM      7  C   UNL     1       7.889   0.957  -0.176  1.00  0.00     0.008 A 
ATOM      8  C   UNL     1       7.479  -1.346   0.302  1.00  0.00     0.054 A 
ATOM      9  C   UNL     1       8.429   0.575  -1.391  1.00  0.00     0.051 A 
ATOM     10  C   UNL     1       8.026  -1.727  -0.927  1.00  0.00     0.166 A 
ATOM     11  C   UNL     1       8.505  -0.758  -1.780  1.00  0.00     0.165 A 
ATOM     12  O   UNL     1       8.213  -2.951  -1.533  1.00  0.00    -0.454 OA
ATOM     13  O   UNL     1       8.982  -1.414  -2.904  1.00  0.00    -0.454 OA
ATOM     14  C   UNL     1       8.899  -2.811  -2.751  1.00  0.00     0.468 C 
ENDBRANCH   5   6
ENDBRANCH   1   5
TORSDOF 3
ENDMDL
