@<TRIPOS>MOLECULE
/home/cewinharhar/GITHUB/reincatalyze/data/processed/docking_pred/2023-May-25-1902_sub9_nm5_bs15_s42_ex16_mel10_mts10000_k50_ec01_g099_lra3e-4_lrc3e-3/79495f175fd15f32955b26bb978cae7af324a937_ligand_9.pdbqt
 14 15 0 0 0
SMALL
GASTEIGER

@<TRIPOS>ATOM
      1  C          5.3830   -0.0260    2.1060 C.3     1  UNL1        0.0800
      2  C          4.5940    1.2140    1.8660 C.2     1  UNL1        0.1300
      3  C          4.9280    2.1490    0.7580 C.3     1  UNL1        0.0870
      4  O          3.6440    1.5010    2.5770 O.2     1  UNL1       -0.3000
      5  C          6.8420    0.1710    1.7460 C.3     1  UNL1        0.0430
      6  C          7.2590   -0.7170    0.6460 C.2     1  UNL1       -0.0440
      7  C          7.1190   -0.3390   -0.6940 C.2     1  UNL1        0.0080
      8  C          7.8010   -1.9490    0.9330 C.2     1  UNL1        0.0540
      9  C          7.5290   -1.2140   -1.6840 C.2     1  UNL1        0.0510
     10  C          8.2130   -2.8300   -0.0720 C.2     1  UNL1        0.1660
     11  C          8.0760   -2.4590   -1.3910 C.2     1  UNL1        0.1650
     12  O          8.7720   -4.0900   -0.0460 O.2     1  UNL1       -0.4540
     13  O          8.5590   -3.5100   -2.1550 O.2     1  UNL1       -0.4540
     14  C          9.0940   -4.5260   -1.3410 C.3     1  UNL1        0.4680
@<TRIPOS>BOND
     1    13    11    1
     2    13    14    1
     3     9    11    2
     4     9     7    1
     5    11    10    1
     6    14    12    1
     7     7     6    2
     8    10    12    1
     9    10     8    2
    10     6     8    1
    11     6     5    1
    12     3     2    1
    13     5     1    1
    14     2     1    1
    15     2     4    2
