@<TRIPOS>MOLECULE
/home/cewinharhar/GITHUB/reincatalyze/data/processed/docking_pred/2023-May-25-1902_sub9_nm5_bs15_s42_ex16_mel10_mts10000_k50_ec01_g099_lra3e-4_lrc3e-3/796366725684962f73c35fbe950a5d50fce383fb_ligand_9.pdbqt
 14 15 0 0 0
SMALL
GASTEIGER

@<TRIPOS>ATOM
      1  C          5.4230   -0.0450    2.0270 C.3     1  UNL1        0.0800
      2  C          4.5630    1.1430    1.7680 C.2     1  UNL1        0.1300
      3  C          4.8950    2.1310    0.7070 C.3     1  UNL1        0.0870
      4  O          3.5540    1.3420    2.4260 O.2     1  UNL1       -0.3000
      5  C          6.8560    0.2100    1.6030 C.3     1  UNL1        0.0430
      6  C          7.2830   -0.7160    0.5390 C.2     1  UNL1       -0.0440
      7  C          7.1640   -0.3820   -0.8150 C.2     1  UNL1        0.0080
      8  C          7.8160   -1.9400    0.8730 C.2     1  UNL1        0.0540
      9  C          7.5830   -1.2900   -1.7700 C.2     1  UNL1        0.0510
     10  C          8.2390   -2.8550   -0.0960 C.2     1  UNL1        0.1660
     11  C          8.1200   -2.5270   -1.4290 C.2     1  UNL1        0.1650
     12  O          8.7920   -4.1160   -0.0210 O.2     1  UNL1       -0.4540
     13  O          8.6100   -3.6040   -2.1510 O.2     1  UNL1       -0.4540
     14  C          9.1290   -4.5960   -1.2970 C.3     1  UNL1        0.4680
@<TRIPOS>BOND
     1    13    11    1
     2    13    14    1
     3     9    11    2
     4     9     7    1
     5    11    10    1
     6    14    12    1
     7     7     6    2
     8    10    12    1
     9    10     8    2
    10     6     8    1
    11     6     5    1
    12     3     2    1
    13     5     1    1
    14     2     1    1
    15     2     4    2
