@<TRIPOS>MOLECULE
/home/cewinharhar/GITHUB/reincatalyze/data/processed/docking_pred/2023-May-25-1902_sub9_nm5_bs15_s42_ex16_mel10_mts10000_k50_ec01_g099_lra3e-4_lrc3e-3/796366725684962f73c35fbe950a5d50fce383fb_ligand_9.pdbqt
 14 15 0 0 0
SMALL
GASTEIGER

@<TRIPOS>ATOM
      1  C          6.8050    0.8050    1.3970 C.3     1  UNL1        0.0800
      2  C          5.3540    1.1190    1.5100 C.2     1  UNL1        0.1300
      3  C          4.7090    2.1500    0.6540 C.3     1  UNL1        0.0870
      4  O          4.6470    0.5350    2.3160 O.2     1  UNL1       -0.3000
      5  C          7.3090    1.0290   -0.0150 C.3     1  UNL1        0.0430
      6  C          7.6320   -0.2410   -0.6880 C.2     1  UNL1       -0.0440
      7  C          7.6250   -0.3540   -2.0830 C.2     1  UNL1        0.0080
      8  C          7.9530   -1.3490    0.0630 C.2     1  UNL1        0.0540
      9  C          7.9380   -1.5720   -2.6590 C.2     1  UNL1        0.0510
     10  C          8.2690   -2.5780   -0.5240 C.2     1  UNL1        0.1660
     11  C          8.2610   -2.6900   -1.8970 C.2     1  UNL1        0.1650
     12  O          8.6150   -3.8060   -0.0040 O.2     1  UNL1       -0.4540
     13  O          8.6070   -3.9990   -2.1940 O.2     1  UNL1       -0.4540
     14  C          8.9290   -4.7170   -1.0270 C.3     1  UNL1        0.4680
@<TRIPOS>BOND
     1     9     7    1
     2     9    11    2
     3    13    11    1
     4    13    14    1
     5     7     6    2
     6    11    10    1
     7    14    12    1
     8     6     5    1
     9     6     8    1
    10    10    12    1
    11    10     8    2
    12     5     1    1
    13     3     2    1
    14     1     2    1
    15     2     4    2
