@<TRIPOS>MOLECULE
/home/cewinharhar/GITHUB/reincatalyze/data/processed/docking_pred/2023-May-25-1902_sub9_nm5_bs15_s42_ex16_mel10_mts10000_k50_ec01_g099_lra3e-4_lrc3e-3/796366725684962f73c35fbe950a5d50fce383fb_ligand_9.pdbqt
 14 15 0 0 0
SMALL
GASTEIGER

@<TRIPOS>ATOM
      1  C          5.5360    1.9200    1.2730 C.3     1  UNL1        0.0800
      2  C          5.0850    0.7040    2.0070 C.2     1  UNL1        0.1300
      3  C          5.9690   -0.4810    2.1720 C.3     1  UNL1        0.0870
      4  O          3.9690    0.6460    2.4980 O.2     1  UNL1       -0.3000
      5  C          5.4060    1.7370   -0.2260 C.3     1  UNL1        0.0430
      6  C          6.5710    1.0350   -0.7940 C.2     1  UNL1       -0.0440
      7  C          7.8790    1.4720   -0.5530 C.2     1  UNL1        0.0080
      8  C          6.3810   -0.0800   -1.5780 C.2     1  UNL1        0.0540
      9  C          8.9340    0.7730   -1.1120 C.2     1  UNL1        0.0510
     10  C          7.4500   -0.7830   -2.1400 C.2     1  UNL1        0.1660
     11  C          8.7370   -0.3530   -1.9050 C.2     1  UNL1        0.1650
     12  O          7.5210   -1.9020   -2.9430 O.2     1  UNL1       -0.4540
     13  O          9.5800   -1.2260   -2.5750 O.2     1  UNL1       -0.4540
     14  C          8.8550   -2.2760   -3.1710 C.3     1  UNL1        0.4680
@<TRIPOS>BOND
     1    14    12    1
     2    14    13    1
     3    12    10    1
     4    13    11    1
     5    10    11    2
     6    10     8    1
     7    11     9    1
     8     8     6    2
     9     9     7    2
    10     6     7    1
    11     6     5    1
    12     5     1    1
    13     1     2    1
    14     2     3    1
    15     2     4    2
