MODEL 1
REMARK VINA RESULT:      -7.7      0.000      0.000
REMARK SMILES CC(=O)CCc1ccc2c(c1)OCO2
REMARK SMILES IDX 4 1 2 2 1 3 3 4 5 5 6 6 7 7 11 8 8 9 10 10 9 11 12 12 14 13
REMARK SMILES IDX 13 14
REMARK H PARENT
REMARK Flexibility Score: inf
ROOT
ATOM      1  C   UNL     1       5.536   1.920   1.273  1.00  0.00     0.080 C 
ENDROOT
BRANCH   1   2
ATOM      2  C   UNL     1       5.085   0.704   2.007  1.00  0.00     0.130 C 
ATOM      3  C   UNL     1       5.969  -0.481   2.172  1.00  0.00     0.087 C 
ATOM      4  O   UNL     1       3.969   0.646   2.498  1.00  0.00    -0.300 OA
ENDBRANCH   1   2
BRANCH   1   5
ATOM      5  C   UNL     1       5.406   1.737  -0.226  1.00  0.00     0.043 C 
BRANCH   5   6
ATOM      6  C   UNL     1       6.571   1.035  -0.794  1.00  0.00    -0.044 A 
ATOM      7  C   UNL     1       7.879   1.472  -0.553  1.00  0.00     0.008 A 
ATOM      8  C   UNL     1       6.381  -0.080  -1.578  1.00  0.00     0.054 A 
ATOM      9  C   UNL     1       8.934   0.773  -1.112  1.00  0.00     0.051 A 
ATOM     10  C   UNL     1       7.450  -0.783  -2.140  1.00  0.00     0.166 A 
ATOM     11  C   UNL     1       8.737  -0.353  -1.905  1.00  0.00     0.165 A 
ATOM     12  O   UNL     1       7.521  -1.902  -2.943  1.00  0.00    -0.454 OA
ATOM     13  O   UNL     1       9.580  -1.226  -2.575  1.00  0.00    -0.454 OA
ATOM     14  C   UNL     1       8.855  -2.276  -3.171  1.00  0.00     0.468 C 
ENDBRANCH   5   6
ENDBRANCH   1   5
TORSDOF 3
ENDMDL
MODEL 2
REMARK VINA RESULT:      -7.4      1.929      2.412
REMARK SMILES CC(=O)CCc1ccc2c(c1)OCO2
REMARK SMILES IDX 4 1 2 2 1 3 3 4 5 5 6 6 7 7 11 8 8 9 10 10 9 11 12 12 14 13
REMARK SMILES IDX 13 14
REMARK H PARENT
REMARK Flexibility Score: inf
ROOT
ATOM      1  C   UNL     1       5.744   1.255  -0.286  1.00  0.00     0.080 C 
ENDROOT
BRANCH   1   2
ATOM      2  C   UNL     1       5.197   1.199   1.098  1.00  0.00     0.130 C 
ATOM      3  C   UNL     1       5.358  -0.007   1.954  1.00  0.00     0.087 C 
ATOM      4  O   UNL     1       4.597   2.150   1.573  1.00  0.00    -0.300 OA
ENDBRANCH   1   2
BRANCH   1   5
ATOM      5  C   UNL     1       7.246   1.050  -0.294  1.00  0.00     0.043 C 
BRANCH   5   6
ATOM      6  C   UNL     1       7.618  -0.241  -0.900  1.00  0.00    -0.044 A 
ATOM      7  C   UNL     1       7.679  -0.407  -2.289  1.00  0.00     0.008 A 
ATOM      8  C   UNL     1       7.918  -1.314  -0.092  1.00  0.00     0.054 A 
ATOM      9  C   UNL     1       8.036  -1.642  -2.801  1.00  0.00     0.051 A 
ATOM     10  C   UNL     1       8.279  -2.559  -0.615  1.00  0.00     0.166 A 
ATOM     11  C   UNL     1       8.337  -2.724  -1.981  1.00  0.00     0.165 A 
ATOM     12  O   UNL     1       8.616  -3.761  -0.031  1.00  0.00    -0.454 OA
ATOM     13  O   UNL     1       8.715  -4.038  -2.210  1.00  0.00    -0.454 OA
ATOM     14  C   UNL     1       8.991  -4.706  -1.001  1.00  0.00     0.468 C 
ENDBRANCH   5   6
ENDBRANCH   1   5
TORSDOF 3
ENDMDL
MODEL 3
REMARK VINA RESULT:      -7.2      2.051      2.621
REMARK SMILES CC(=O)CCc1ccc2c(c1)OCO2
REMARK SMILES IDX 4 1 2 2 1 3 3 4 5 5 6 6 7 7 11 8 8 9 10 10 9 11 12 12 14 13
REMARK SMILES IDX 13 14
REMARK H PARENT
REMARK Flexibility Score: inf
ROOT
ATOM      1  C   UNL     1       5.423  -0.045   2.027  1.00  0.00     0.080 C 
ENDROOT
BRANCH   1   2
ATOM      2  C   UNL     1       4.563   1.143   1.768  1.00  0.00     0.130 C 
ATOM      3  C   UNL     1       4.895   2.131   0.707  1.00  0.00     0.087 C 
ATOM      4  O   UNL     1       3.554   1.342   2.426  1.00  0.00    -0.300 OA
ENDBRANCH   1   2
BRANCH   1   5
ATOM      5  C   UNL     1       6.856   0.210   1.603  1.00  0.00     0.043 C 
BRANCH   5   6
ATOM      6  C   UNL     1       7.283  -0.716   0.539  1.00  0.00    -0.044 A 
ATOM      7  C   UNL     1       7.164  -0.382  -0.815  1.00  0.00     0.008 A 
ATOM      8  C   UNL     1       7.816  -1.940   0.873  1.00  0.00     0.054 A 
ATOM      9  C   UNL     1       7.583  -1.290  -1.770  1.00  0.00     0.051 A 
ATOM     10  C   UNL     1       8.239  -2.855  -0.096  1.00  0.00     0.166 A 
ATOM     11  C   UNL     1       8.120  -2.527  -1.429  1.00  0.00     0.165 A 
ATOM     12  O   UNL     1       8.792  -4.116  -0.021  1.00  0.00    -0.454 OA
ATOM     13  O   UNL     1       8.610  -3.604  -2.151  1.00  0.00    -0.454 OA
ATOM     14  C   UNL     1       9.129  -4.596  -1.297  1.00  0.00     0.468 C 
ENDBRANCH   5   6
ENDBRANCH   1   5
TORSDOF 3
ENDMDL
MODEL 4
REMARK VINA RESULT:      -7.1      1.240      1.438
REMARK SMILES CC(=O)CCc1ccc2c(c1)OCO2
REMARK SMILES IDX 4 1 2 2 1 3 3 4 5 5 6 6 7 7 11 8 8 9 10 10 9 11 12 12 14 13
REMARK SMILES IDX 13 14
REMARK H PARENT
REMARK Flexibility Score: inf
ROOT
ATOM      1  C   UNL     1       6.362   1.238   0.900  1.00  0.00     0.080 C 
ENDROOT
BRANCH   1   2
ATOM      2  C   UNL     1       5.669   0.396   1.915  1.00  0.00     0.130 C 
ATOM      3  C   UNL     1       6.312  -0.812   2.498  1.00  0.00     0.087 C 
ATOM      4  O   UNL     1       4.545   0.676   2.299  1.00  0.00    -0.300 OA
ENDBRANCH   1   2
BRANCH   1   5
ATOM      5  C   UNL     1       5.854   0.946  -0.497  1.00  0.00     0.043 C 
BRANCH   5   6
ATOM      6  C   UNL     1       6.809   0.127  -1.266  1.00  0.00    -0.044 A 
ATOM      7  C   UNL     1       7.517   0.653  -2.353  1.00  0.00     0.008 A 
ATOM      8  C   UNL     1       7.020  -1.186  -0.913  1.00  0.00     0.054 A 
ATOM      9  C   UNL     1       8.400  -0.162  -3.036  1.00  0.00     0.051 A 
ATOM     10  C   UNL     1       7.915  -2.006  -1.606  1.00  0.00     0.166 A 
ATOM     11  C   UNL     1       8.611  -1.490  -2.677  1.00  0.00     0.165 A 
ATOM     12  O   UNL     1       8.294  -3.323  -1.454  1.00  0.00    -0.454 OA
ATOM     13  O   UNL     1       9.411  -2.511  -3.164  1.00  0.00    -0.454 OA
ATOM     14  C   UNL     1       9.309  -3.664  -2.363  1.00  0.00     0.468 C 
ENDBRANCH   5   6
ENDBRANCH   1   5
TORSDOF 3
ENDMDL
MODEL 5
REMARK VINA RESULT:      -7.1      1.960      2.507
REMARK SMILES CC(=O)CCc1ccc2c(c1)OCO2
REMARK SMILES IDX 4 1 2 2 1 3 3 4 5 5 6 6 7 7 11 8 8 9 10 10 9 11 12 12 14 13
REMARK SMILES IDX 13 14
REMARK H PARENT
REMARK Flexibility Score: inf
ROOT
ATOM      1  C   UNL     1       6.805   0.805   1.397  1.00  0.00     0.080 C 
ENDROOT
BRANCH   1   2
ATOM      2  C   UNL     1       5.354   1.119   1.510  1.00  0.00     0.130 C 
ATOM      3  C   UNL     1       4.709   2.150   0.654  1.00  0.00     0.087 C 
ATOM      4  O   UNL     1       4.647   0.535   2.316  1.00  0.00    -0.300 OA
ENDBRANCH   1   2
BRANCH   1   5
ATOM      5  C   UNL     1       7.309   1.029  -0.015  1.00  0.00     0.043 C 
BRANCH   5   6
ATOM      6  C   UNL     1       7.632  -0.241  -0.688  1.00  0.00    -0.044 A 
ATOM      7  C   UNL     1       7.625  -0.354  -2.083  1.00  0.00     0.008 A 
ATOM      8  C   UNL     1       7.953  -1.349   0.063  1.00  0.00     0.054 A 
ATOM      9  C   UNL     1       7.938  -1.572  -2.659  1.00  0.00     0.051 A 
ATOM     10  C   UNL     1       8.269  -2.578  -0.524  1.00  0.00     0.166 A 
ATOM     11  C   UNL     1       8.261  -2.690  -1.897  1.00  0.00     0.165 A 
ATOM     12  O   UNL     1       8.615  -3.806  -0.004  1.00  0.00    -0.454 OA
ATOM     13  O   UNL     1       8.607  -3.999  -2.194  1.00  0.00    -0.454 OA
ATOM     14  C   UNL     1       8.929  -4.717  -1.027  1.00  0.00     0.468 C 
ENDBRANCH   5   6
ENDBRANCH   1   5
TORSDOF 3
ENDMDL
