MODEL 1
REMARK VINA RESULT:      -7.7      0.000      0.000
REMARK SMILES CC(=O)CCc1ccc2c(c1)OCO2
REMARK SMILES IDX 4 1 2 2 1 3 3 4 5 5 6 6 7 7 11 8 8 9 10 10 9 11 12 12 14 13
REMARK SMILES IDX 13 14
REMARK H PARENT
REMARK Flexibility Score: inf
ROOT
ATOM      1  C   UNL     1       5.536   1.932   1.268  1.00  0.00     0.080 C 
ENDROOT
BRANCH   1   2
ATOM      2  C   UNL     1       5.105   0.717   2.014  1.00  0.00     0.130 C 
ATOM      3  C   UNL     1       6.009  -0.449   2.198  1.00  0.00     0.087 C 
ATOM      4  O   UNL     1       3.987   0.644   2.499  1.00  0.00    -0.300 OA
ENDBRANCH   1   2
BRANCH   1   5
ATOM      5  C   UNL     1       5.403   1.734  -0.229  1.00  0.00     0.043 C 
BRANCH   5   6
ATOM      6  C   UNL     1       6.570   1.033  -0.794  1.00  0.00    -0.044 A 
ATOM      7  C   UNL     1       7.877   1.469  -0.549  1.00  0.00     0.008 A 
ATOM      8  C   UNL     1       6.381  -0.081  -1.581  1.00  0.00     0.054 A 
ATOM      9  C   UNL     1       8.933   0.771  -1.105  1.00  0.00     0.051 A 
ATOM     10  C   UNL     1       7.453  -0.784  -2.140  1.00  0.00     0.166 A 
ATOM     11  C   UNL     1       8.739  -0.354  -1.900  1.00  0.00     0.165 A 
ATOM     12  O   UNL     1       7.526  -1.901  -2.944  1.00  0.00    -0.454 OA
ATOM     13  O   UNL     1       9.584  -1.227  -2.568  1.00  0.00    -0.454 OA
ATOM     14  C   UNL     1       8.861  -2.275  -3.168  1.00  0.00     0.468 C 
ENDBRANCH   5   6
ENDBRANCH   1   5
TORSDOF 3
ENDMDL
MODEL 2
REMARK VINA RESULT:      -7.2      1.267      1.494
REMARK SMILES CC(=O)CCc1ccc2c(c1)OCO2
REMARK SMILES IDX 4 1 2 2 1 3 3 4 5 5 6 6 7 7 11 8 8 9 10 10 9 11 12 12 14 13
REMARK SMILES IDX 13 14
REMARK H PARENT
REMARK Flexibility Score: inf
ROOT
ATOM      1  C   UNL     1       6.401   1.165   0.939  1.00  0.00     0.080 C 
ENDROOT
BRANCH   1   2
ATOM      2  C   UNL     1       5.671   0.353   1.952  1.00  0.00     0.130 C 
ATOM      3  C   UNL     1       6.262  -0.880   2.538  1.00  0.00     0.087 C 
ATOM      4  O   UNL     1       4.558   0.679   2.332  1.00  0.00    -0.300 OA
ENDBRANCH   1   2
BRANCH   1   5
ATOM      5  C   UNL     1       5.889   0.889  -0.461  1.00  0.00     0.043 C 
BRANCH   5   6
ATOM      6  C   UNL     1       6.833   0.063  -1.235  1.00  0.00    -0.044 A 
ATOM      7  C   UNL     1       7.512   0.573  -2.348  1.00  0.00     0.008 A 
ATOM      8  C   UNL     1       7.063  -1.241  -0.861  1.00  0.00     0.054 A 
ATOM      9  C   UNL     1       8.387  -0.249  -3.035  1.00  0.00     0.051 A 
ATOM     10  C   UNL     1       7.949  -2.068  -1.559  1.00  0.00     0.166 A 
ATOM     11  C   UNL     1       8.616  -1.568  -2.655  1.00  0.00     0.165 A 
ATOM     12  O   UNL     1       8.342  -3.379  -1.390  1.00  0.00    -0.454 OA
ATOM     13  O   UNL     1       9.414  -2.592  -3.140  1.00  0.00    -0.454 OA
ATOM     14  C   UNL     1       9.339  -3.729  -2.314  1.00  0.00     0.468 C 
ENDBRANCH   5   6
ENDBRANCH   1   5
TORSDOF 3
ENDMDL
MODEL 3
REMARK VINA RESULT:      -7.0      1.666      2.042
REMARK SMILES CC(=O)CCc1ccc2c(c1)OCO2
REMARK SMILES IDX 4 1 2 2 1 3 3 4 5 5 6 6 7 7 11 8 8 9 10 10 9 11 12 12 14 13
REMARK SMILES IDX 13 14
REMARK H PARENT
REMARK Flexibility Score: inf
ROOT
ATOM      1  C   UNL     1       5.530   1.395  -0.247  1.00  0.00     0.080 C 
ENDROOT
BRANCH   1   2
ATOM      2  C   UNL     1       5.053   1.231   1.154  1.00  0.00     0.130 C 
ATOM      3  C   UNL     1       5.457   0.065   1.985  1.00  0.00     0.087 C 
ATOM      4  O   UNL     1       4.310   2.054   1.665  1.00  0.00    -0.300 OA
ENDBRANCH   1   2
BRANCH   1   5
ATOM      5  C   UNL     1       7.043   1.358  -0.322  1.00  0.00     0.043 C 
BRANCH   5   6
ATOM      6  C   UNL     1       7.527   0.147  -1.008  1.00  0.00    -0.044 A 
ATOM      7  C   UNL     1       7.779   0.136  -2.385  1.00  0.00     0.008 A 
ATOM      8  C   UNL     1       7.742  -1.006  -0.287  1.00  0.00     0.054 A 
ATOM      9  C   UNL     1       8.233  -1.030  -2.974  1.00  0.00     0.051 A 
ATOM     10  C   UNL     1       8.201  -2.182  -0.888  1.00  0.00     0.166 A 
ATOM     11  C   UNL     1       8.448  -2.194  -2.243  1.00  0.00     0.165 A 
ATOM     12  O   UNL     1       8.487  -3.438  -0.398  1.00  0.00    -0.454 OA
ATOM     13  O   UNL     1       8.887  -3.470  -2.559  1.00  0.00    -0.454 OA
ATOM     14  C   UNL     1       9.013  -4.265  -1.404  1.00  0.00     0.468 C 
ENDBRANCH   5   6
ENDBRANCH   1   5
TORSDOF 3
ENDMDL
MODEL 4
REMARK VINA RESULT:      -7.0      1.746      2.354
REMARK SMILES CC(=O)CCc1ccc2c(c1)OCO2
REMARK SMILES IDX 4 1 2 2 1 3 3 4 5 5 6 6 7 7 11 8 8 9 10 10 9 11 12 12 14 13
REMARK SMILES IDX 13 14
REMARK H PARENT
REMARK Flexibility Score: inf
ROOT
ATOM      1  C   UNL     1       5.353  -0.006   2.048  1.00  0.00     0.080 C 
ENDROOT
BRANCH   1   2
ATOM      2  C   UNL     1       4.471   1.167   1.793  1.00  0.00     0.130 C 
ATOM      3  C   UNL     1       4.758   2.138   0.703  1.00  0.00     0.087 C 
ATOM      4  O   UNL     1       3.481   1.366   2.477  1.00  0.00    -0.300 OA
ENDBRANCH   1   2
BRANCH   1   5
ATOM      5  C   UNL     1       6.776   0.268   1.602  1.00  0.00     0.043 C 
BRANCH   5   6
ATOM      6  C   UNL     1       7.141  -0.531   0.418  1.00  0.00    -0.044 A 
ATOM      7  C   UNL     1       6.867  -0.086  -0.880  1.00  0.00     0.008 A 
ATOM      8  C   UNL     1       7.770  -1.744   0.582  1.00  0.00     0.054 A 
ATOM      9  C   UNL     1       7.233  -0.878  -1.952  1.00  0.00     0.051 A 
ATOM     10  C   UNL     1       8.140  -2.541  -0.506  1.00  0.00     0.166 A 
ATOM     11  C   UNL     1       7.869  -2.104  -1.784  1.00  0.00     0.165 A 
ATOM     12  O   UNL     1       8.765  -3.766  -0.604  1.00  0.00    -0.454 OA
ATOM     13  O   UNL     1       8.339  -3.080  -2.649  1.00  0.00    -0.454 OA
ATOM     14  C   UNL     1       8.995  -4.108  -1.947  1.00  0.00     0.468 C 
ENDBRANCH   5   6
ENDBRANCH   1   5
TORSDOF 3
ENDMDL
MODEL 5
REMARK VINA RESULT:      -6.8      1.181      5.178
REMARK SMILES CC(=O)CCc1ccc2c(c1)OCO2
REMARK SMILES IDX 4 1 2 2 1 3 3 4 5 5 6 6 7 7 11 8 8 9 10 10 9 11 12 12 14 13
REMARK SMILES IDX 13 14
REMARK H PARENT
REMARK Flexibility Score: inf
ROOT
ATOM      1  C   UNL     1       8.357   0.209  -2.611  1.00  0.00     0.080 C 
ENDROOT
BRANCH   1   2
ATOM      2  C   UNL     1       8.056  -1.246  -2.724  1.00  0.00     0.130 C 
ATOM      3  C   UNL     1       9.119  -2.242  -3.024  1.00  0.00     0.087 C 
ATOM      4  O   UNL     1       6.920  -1.665  -2.573  1.00  0.00    -0.300 OA
ENDBRANCH   1   2
BRANCH   1   5
ATOM      5  C   UNL     1       8.869   0.559  -1.227  1.00  0.00     0.043 C 
BRANCH   5   6
ATOM      6  C   UNL     1       7.818   0.420  -0.204  1.00  0.00    -0.044 A 
ATOM      7  C   UNL     1       7.898  -0.549   0.803  1.00  0.00     0.008 A 
ATOM      8  C   UNL     1       6.727   1.259  -0.228  1.00  0.00     0.054 A 
ATOM      9  C   UNL     1       6.882  -0.632   1.737  1.00  0.00     0.051 A 
ATOM     10  C   UNL     1       5.702   1.172   0.719  1.00  0.00     0.166 A 
ATOM     11  C   UNL     1       5.780   0.218   1.709  1.00  0.00     0.165 A 
ATOM     12  O   UNL     1       4.533   1.878   0.906  1.00  0.00    -0.454 OA
ATOM     13  O   UNL     1       4.646   0.361   2.493  1.00  0.00    -0.454 OA
ATOM     14  C   UNL     1       3.873   1.460   2.074  1.00  0.00     0.468 C 
ENDBRANCH   5   6
ENDBRANCH   1   5
TORSDOF 3
ENDMDL
