@<TRIPOS>MOLECULE
/home/cewinharhar/GITHUB/reincatalyze/data/processed/docking_pred/2023-May-25-1902_sub9_nm5_bs15_s42_ex16_mel10_mts10000_k50_ec01_g099_lra3e-4_lrc3e-3/7ac8f9624e71b352d93dccd4dc48cb56e96c53c0_ligand_9.pdbqt
 14 15 0 0 0
SMALL
GASTEIGER

@<TRIPOS>ATOM
      1  C          6.4010    1.1650    0.9390 C.3     1  UNL1        0.0800
      2  C          5.6710    0.3530    1.9520 C.2     1  UNL1        0.1300
      3  C          6.2620   -0.8800    2.5380 C.3     1  UNL1        0.0870
      4  O          4.5580    0.6790    2.3320 O.2     1  UNL1       -0.3000
      5  C          5.8890    0.8890   -0.4610 C.3     1  UNL1        0.0430
      6  C          6.8330    0.0630   -1.2350 C.2     1  UNL1       -0.0440
      7  C          7.5120    0.5730   -2.3480 C.2     1  UNL1        0.0080
      8  C          7.0630   -1.2410   -0.8610 C.2     1  UNL1        0.0540
      9  C          8.3870   -0.2490   -3.0350 C.2     1  UNL1        0.0510
     10  C          7.9490   -2.0680   -1.5590 C.2     1  UNL1        0.1660
     11  C          8.6160   -1.5680   -2.6550 C.2     1  UNL1        0.1650
     12  O          8.3420   -3.3790   -1.3900 O.2     1  UNL1       -0.4540
     13  O          9.4140   -2.5920   -3.1400 O.2     1  UNL1       -0.4540
     14  C          9.3390   -3.7290   -2.3140 C.3     1  UNL1        0.4680
@<TRIPOS>BOND
     1    13    11    1
     2    13    14    1
     3     9    11    2
     4     9     7    1
     5    11    10    1
     6     7     6    2
     7    14    12    1
     8    10    12    1
     9    10     8    2
    10     6     8    1
    11     6     5    1
    12     5     1    1
    13     1     2    1
    14     2     4    2
    15     2     3    1
