@<TRIPOS>MOLECULE
/home/cewinharhar/GITHUB/reincatalyze/data/processed/docking_pred/2023-May-25-1902_sub9_nm5_bs15_s42_ex16_mel10_mts10000_k50_ec01_g099_lra3e-4_lrc3e-3/7ac8f9624e71b352d93dccd4dc48cb56e96c53c0_ligand_9.pdbqt
 14 15 0 0 0
SMALL
GASTEIGER

@<TRIPOS>ATOM
      1  C          5.3530   -0.0060    2.0480 C.3     1  UNL1        0.0800
      2  C          4.4710    1.1670    1.7930 C.2     1  UNL1        0.1300
      3  C          4.7580    2.1380    0.7030 C.3     1  UNL1        0.0870
      4  O          3.4810    1.3660    2.4770 O.2     1  UNL1       -0.3000
      5  C          6.7760    0.2680    1.6020 C.3     1  UNL1        0.0430
      6  C          7.1410   -0.5310    0.4180 C.2     1  UNL1       -0.0440
      7  C          6.8670   -0.0860   -0.8800 C.2     1  UNL1        0.0080
      8  C          7.7700   -1.7440    0.5820 C.2     1  UNL1        0.0540
      9  C          7.2330   -0.8780   -1.9520 C.2     1  UNL1        0.0510
     10  C          8.1400   -2.5410   -0.5060 C.2     1  UNL1        0.1660
     11  C          7.8690   -2.1040   -1.7840 C.2     1  UNL1        0.1650
     12  O          8.7650   -3.7660   -0.6040 O.2     1  UNL1       -0.4540
     13  O          8.3390   -3.0800   -2.6490 O.2     1  UNL1       -0.4540
     14  C          8.9950   -4.1080   -1.9470 C.3     1  UNL1        0.4680
@<TRIPOS>BOND
     1    13    14    1
     2    13    11    1
     3     9    11    2
     4     9     7    1
     5    14    12    1
     6    11    10    1
     7     7     6    2
     8    12    10    1
     9    10     8    2
    10     6     8    1
    11     6     5    1
    12     3     2    1
    13     5     1    1
    14     2     1    1
    15     2     4    2
