@<TRIPOS>MOLECULE
/home/cewinharhar/GITHUB/reincatalyze/data/processed/docking_pred/2023-May-25-1902_sub9_nm5_bs15_s42_ex16_mel10_mts10000_k50_ec01_g099_lra3e-4_lrc3e-3/7ac8f9624e71b352d93dccd4dc48cb56e96c53c0_ligand_9.pdbqt
 14 15 0 0 0
SMALL
GASTEIGER

@<TRIPOS>ATOM
      1  C          5.5300    1.3950   -0.2470 C.3     1  UNL1        0.0800
      2  C          5.0530    1.2310    1.1540 C.2     1  UNL1        0.1300
      3  C          5.4570    0.0650    1.9850 C.3     1  UNL1        0.0870
      4  O          4.3100    2.0540    1.6650 O.2     1  UNL1       -0.3000
      5  C          7.0430    1.3580   -0.3220 C.3     1  UNL1        0.0430
      6  C          7.5270    0.1470   -1.0080 C.2     1  UNL1       -0.0440
      7  C          7.7790    0.1360   -2.3850 C.2     1  UNL1        0.0080
      8  C          7.7420   -1.0060   -0.2870 C.2     1  UNL1        0.0540
      9  C          8.2330   -1.0300   -2.9740 C.2     1  UNL1        0.0510
     10  C          8.2010   -2.1820   -0.8880 C.2     1  UNL1        0.1660
     11  C          8.4480   -2.1940   -2.2430 C.2     1  UNL1        0.1650
     12  O          8.4870   -3.4380   -0.3980 O.2     1  UNL1       -0.4540
     13  O          8.8870   -3.4700   -2.5590 O.2     1  UNL1       -0.4540
     14  C          9.0130   -4.2650   -1.4040 C.3     1  UNL1        0.4680
@<TRIPOS>BOND
     1     9     7    1
     2     9    11    2
     3    13    11    1
     4    13    14    1
     5     7     6    2
     6    11    10    1
     7    14    12    1
     8     6     5    1
     9     6     8    1
    10    10    12    1
    11    10     8    2
    12     5     1    1
    13     1     2    1
    14     2     4    2
    15     2     3    1
