@<TRIPOS>MOLECULE
/home/cewinharhar/GITHUB/reincatalyze/data/processed/docking_pred/2023-May-25-1902_sub9_nm5_bs15_s42_ex16_mel10_mts10000_k50_ec01_g099_lra3e-4_lrc3e-3/7d60c2a66717a3f4b6d307e9593656cfb0aaeeb8_ligand_9.pdbqt
 14 15 0 0 0
SMALL
GASTEIGER

@<TRIPOS>ATOM
      1  C          5.5450    1.9160    1.2750 C.3     1  UNL1        0.0800
      2  C          5.1060    0.6970    2.0090 C.2     1  UNL1        0.1300
      3  C          6.0070   -0.4730    2.1880 C.3     1  UNL1        0.0870
      4  O          3.9860    0.6230    2.4890 O.2     1  UNL1       -0.3000
      5  C          5.4150    1.7320   -0.2240 C.3     1  UNL1        0.0430
      6  C          6.5790    1.0280   -0.7910 C.2     1  UNL1       -0.0440
      7  C          7.8880    1.4580   -0.5430 C.2     1  UNL1        0.0080
      8  C          6.3870   -0.0820   -1.5820 C.2     1  UNL1        0.0540
      9  C          8.9420    0.7570   -1.1010 C.2     1  UNL1        0.0510
     10  C          7.4550   -0.7870   -2.1430 C.2     1  UNL1        0.1660
     11  C          8.7430   -0.3640   -1.9010 C.2     1  UNL1        0.1650
     12  O          7.5240   -1.9020   -2.9520 O.2     1  UNL1       -0.4540
     13  O          9.5850   -1.2380   -2.5720 O.2     1  UNL1       -0.4540
     14  C          8.8580   -2.2810   -3.1760 C.3     1  UNL1        0.4680
@<TRIPOS>BOND
     1    14    12    1
     2    14    13    1
     3    12    10    1
     4    13    11    1
     5    10    11    2
     6    10     8    1
     7    11     9    1
     8     8     6    2
     9     9     7    2
    10     6     7    1
    11     6     5    1
    12     5     1    1
    13     1     2    1
    14     2     3    1
    15     2     4    2
