@<TRIPOS>MOLECULE
/home/cewinharhar/GITHUB/reincatalyze/data/processed/docking_pred/2023-May-25-1902_sub9_nm5_bs15_s42_ex16_mel10_mts10000_k50_ec01_g099_lra3e-4_lrc3e-3/7e2b2812a39c1bf8d23d6aab3a18bb39f1acac0e_ligand_9.pdbqt
 14 15 0 0 0
SMALL
GASTEIGER

@<TRIPOS>ATOM
      1  C          5.8030    1.3580   -0.3010 C.3     1  UNL1        0.0800
      2  C          5.1730    1.2680    1.0460 C.2     1  UNL1        0.1300
      3  C          5.4150    0.1080    1.9450 C.3     1  UNL1        0.0870
      4  O          4.4340    2.1500    1.4530 O.2     1  UNL1       -0.3000
      5  C          7.2920    1.0800   -0.2320 C.3     1  UNL1        0.0430
      6  C          7.6350   -0.2140   -0.8490 C.2     1  UNL1       -0.0440
      7  C          7.6460   -0.3830   -2.2380 C.2     1  UNL1        0.0080
      8  C          7.9560   -1.2870   -0.0490 C.2     1  UNL1        0.0540
      9  C          7.9770   -1.6200   -2.7610 C.2     1  UNL1        0.0510
     10  C          8.2910   -2.5350   -0.5820 C.2     1  UNL1        0.1660
     11  C          8.3010   -2.7030   -1.9490 C.2     1  UNL1        0.1650
     12  O          8.6420   -3.7390   -0.0080 O.2     1  UNL1       -0.4540
     13  O          8.6630   -4.0200   -2.1890 O.2     1  UNL1       -0.4540
     14  C          8.9760   -4.6870   -0.9890 C.3     1  UNL1        0.4680
@<TRIPOS>BOND
     1     9     7    1
     2     9    11    2
     3     7     6    2
     4    13    11    1
     5    13    14    1
     6    11    10    1
     7    14    12    1
     8     6     5    1
     9     6     8    1
    10    10     8    2
    11    10    12    1
    12     1     5    1
    13     1     2    1
    14     2     4    2
    15     2     3    1
