@<TRIPOS>MOLECULE
/home/cewinharhar/GITHUB/reincatalyze/data/processed/docking_pred/2023-May-25-1902_sub9_nm5_bs15_s42_ex16_mel10_mts10000_k50_ec01_g099_lra3e-4_lrc3e-3/7f898fbf0fd79fac537192b380e37449413a37d3_ligand_9.pdbqt
 14 15 0 0 0
SMALL
GASTEIGER

@<TRIPOS>ATOM
      1  C          5.5100    0.0300    1.9970 C.3     1  UNL1        0.0800
      2  C          4.6000    1.1740    1.7130 C.2     1  UNL1        0.1300
      3  C          4.8660    2.1260    0.6010 C.3     1  UNL1        0.0870
      4  O          3.6020    1.3650    2.3900 O.2     1  UNL1       -0.3000
      5  C          6.9140    0.3060    1.4970 C.3     1  UNL1        0.0430
      6  C          7.3220   -0.6550    0.4570 C.2     1  UNL1       -0.0440
      7  C          7.1990   -0.3570   -0.9050 C.2     1  UNL1        0.0080
      8  C          7.8400   -1.8770    0.8210 C.2     1  UNL1        0.0540
      9  C          7.5990   -1.2970   -1.8370 C.2     1  UNL1        0.0510
     10  C          8.2440   -2.8240   -0.1240 C.2     1  UNL1        0.1660
     11  C          8.1220   -2.5320   -1.4650 C.2     1  UNL1        0.1650
     12  O          8.7800   -4.0900   -0.0170 O.2     1  UNL1       -0.4540
     13  O          8.5920   -3.6350   -2.1600 O.2     1  UNL1       -0.4540
     14  C          9.1030   -4.6090   -1.2820 C.3     1  UNL1        0.4680
@<TRIPOS>BOND
     1    13    11    1
     2    13    14    1
     3     9    11    2
     4     9     7    1
     5    11    10    1
     6    14    12    1
     7     7     6    2
     8    10    12    1
     9    10     8    2
    10     6     8    1
    11     6     5    1
    12     3     2    1
    13     5     1    1
    14     2     1    1
    15     2     4    2
