MODEL 1
REMARK VINA RESULT:      -7.6      0.000      0.000
REMARK SMILES CC(=O)CCc1ccc2c(c1)OCO2
REMARK SMILES IDX 4 1 2 2 1 3 3 4 5 5 6 6 7 7 11 8 8 9 10 10 9 11 12 12 14 13
REMARK SMILES IDX 13 14
REMARK H PARENT
REMARK Flexibility Score: inf
ROOT
ATOM      1  C   UNL     1       5.560   1.891   1.291  1.00  0.00     0.080 C 
ENDROOT
BRANCH   1   2
ATOM      2  C   UNL     1       5.110   0.672   2.019  1.00  0.00     0.130 C 
ATOM      3  C   UNL     1       6.002  -0.506   2.195  1.00  0.00     0.087 C 
ATOM      4  O   UNL     1       3.989   0.604   2.496  1.00  0.00    -0.300 OA
ENDBRANCH   1   2
BRANCH   1   5
ATOM      5  C   UNL     1       5.421   1.719  -0.208  1.00  0.00     0.043 C 
BRANCH   5   6
ATOM      6  C   UNL     1       6.581   1.016  -0.787  1.00  0.00    -0.044 A 
ATOM      7  C   UNL     1       7.891   1.455  -0.563  1.00  0.00     0.008 A 
ATOM      8  C   UNL     1       6.382  -0.102  -1.565  1.00  0.00     0.054 A 
ATOM      9  C   UNL     1       8.939   0.755  -1.131  1.00  0.00     0.051 A 
ATOM     10  C   UNL     1       7.446  -0.806  -2.137  1.00  0.00     0.166 A 
ATOM     11  C   UNL     1       8.735  -0.374  -1.918  1.00  0.00     0.165 A 
ATOM     12  O   UNL     1       7.508  -1.928  -2.936  1.00  0.00    -0.454 OA
ATOM     13  O   UNL     1       9.571  -1.249  -2.594  1.00  0.00    -0.454 OA
ATOM     14  C   UNL     1       8.840  -2.301  -3.178  1.00  0.00     0.468 C 
ENDBRANCH   5   6
ENDBRANCH   1   5
TORSDOF 3
ENDMDL
MODEL 2
REMARK VINA RESULT:      -7.5      1.924      2.381
REMARK SMILES CC(=O)CCc1ccc2c(c1)OCO2
REMARK SMILES IDX 4 1 2 2 1 3 3 4 5 5 6 6 7 7 11 8 8 9 10 10 9 11 12 12 14 13
REMARK SMILES IDX 13 14
REMARK H PARENT
REMARK Flexibility Score: inf
ROOT
ATOM      1  C   UNL     1       5.724   1.310  -0.299  1.00  0.00     0.080 C 
ENDROOT
BRANCH   1   2
ATOM      2  C   UNL     1       5.123   1.258   1.064  1.00  0.00     0.130 C 
ATOM      3  C   UNL     1       5.388   0.126   1.991  1.00  0.00     0.087 C 
ATOM      4  O   UNL     1       4.391   2.150   1.460  1.00  0.00    -0.300 OA
ENDBRANCH   1   2
BRANCH   1   5
ATOM      5  C   UNL     1       7.222   1.086  -0.248  1.00  0.00     0.043 C 
BRANCH   5   6
ATOM      6  C   UNL     1       7.603  -0.201  -0.856  1.00  0.00    -0.044 A 
ATOM      7  C   UNL     1       7.687  -0.360  -2.245  1.00  0.00     0.008 A 
ATOM      8  C   UNL     1       7.888  -1.279  -0.050  1.00  0.00     0.054 A 
ATOM      9  C   UNL     1       8.050  -1.592  -2.758  1.00  0.00     0.051 A 
ATOM     10  C   UNL     1       8.256  -2.522  -0.574  1.00  0.00     0.166 A 
ATOM     11  C   UNL     1       8.337  -2.679  -1.940  1.00  0.00     0.165 A 
ATOM     12  O   UNL     1       8.583  -3.728   0.008  1.00  0.00    -0.454 OA
ATOM     13  O   UNL     1       8.717  -3.992  -2.170  1.00  0.00    -0.454 OA
ATOM     14  C   UNL     1       8.972  -4.667  -0.961  1.00  0.00     0.468 C 
ENDBRANCH   5   6
ENDBRANCH   1   5
TORSDOF 3
ENDMDL
MODEL 3
REMARK VINA RESULT:      -7.2      2.055      2.592
REMARK SMILES CC(=O)CCc1ccc2c(c1)OCO2
REMARK SMILES IDX 4 1 2 2 1 3 3 4 5 5 6 6 7 7 11 8 8 9 10 10 9 11 12 12 14 13
REMARK SMILES IDX 13 14
REMARK H PARENT
REMARK Flexibility Score: inf
ROOT
ATOM      1  C   UNL     1       5.510   0.030   1.997  1.00  0.00     0.080 C 
ENDROOT
BRANCH   1   2
ATOM      2  C   UNL     1       4.600   1.174   1.713  1.00  0.00     0.130 C 
ATOM      3  C   UNL     1       4.866   2.126   0.601  1.00  0.00     0.087 C 
ATOM      4  O   UNL     1       3.602   1.365   2.390  1.00  0.00    -0.300 OA
ENDBRANCH   1   2
BRANCH   1   5
ATOM      5  C   UNL     1       6.914   0.306   1.497  1.00  0.00     0.043 C 
BRANCH   5   6
ATOM      6  C   UNL     1       7.322  -0.655   0.457  1.00  0.00    -0.044 A 
ATOM      7  C   UNL     1       7.199  -0.357  -0.905  1.00  0.00     0.008 A 
ATOM      8  C   UNL     1       7.840  -1.877   0.821  1.00  0.00     0.054 A 
ATOM      9  C   UNL     1       7.599  -1.297  -1.837  1.00  0.00     0.051 A 
ATOM     10  C   UNL     1       8.244  -2.824  -0.124  1.00  0.00     0.166 A 
ATOM     11  C   UNL     1       8.122  -2.532  -1.465  1.00  0.00     0.165 A 
ATOM     12  O   UNL     1       8.780  -4.090  -0.017  1.00  0.00    -0.454 OA
ATOM     13  O   UNL     1       8.592  -3.635  -2.160  1.00  0.00    -0.454 OA
ATOM     14  C   UNL     1       9.103  -4.609  -1.282  1.00  0.00     0.468 C 
ENDBRANCH   5   6
ENDBRANCH   1   5
TORSDOF 3
ENDMDL
MODEL 4
REMARK VINA RESULT:      -7.1      1.235      1.430
REMARK SMILES CC(=O)CCc1ccc2c(c1)OCO2
REMARK SMILES IDX 4 1 2 2 1 3 3 4 5 5 6 6 7 7 11 8 8 9 10 10 9 11 12 12 14 13
REMARK SMILES IDX 13 14
REMARK H PARENT
REMARK Flexibility Score: inf
ROOT
ATOM      1  C   UNL     1       6.349   1.246   0.867  1.00  0.00     0.080 C 
ENDROOT
BRANCH   1   2
ATOM      2  C   UNL     1       5.661   0.434   1.909  1.00  0.00     0.130 C 
ATOM      3  C   UNL     1       6.279  -0.794   2.476  1.00  0.00     0.087 C 
ATOM      4  O   UNL     1       4.562   0.757   2.330  1.00  0.00    -0.300 OA
ENDBRANCH   1   2
BRANCH   1   5
ATOM      5  C   UNL     1       5.836   0.911  -0.520  1.00  0.00     0.043 C 
BRANCH   5   6
ATOM      6  C   UNL     1       6.803   0.097  -1.278  1.00  0.00    -0.044 A 
ATOM      7  C   UNL     1       7.520   0.628  -2.357  1.00  0.00     0.008 A 
ATOM      8  C   UNL     1       7.016  -1.215  -0.924  1.00  0.00     0.054 A 
ATOM      9  C   UNL     1       8.415  -0.183  -3.031  1.00  0.00     0.051 A 
ATOM     10  C   UNL     1       7.923  -2.031  -1.608  1.00  0.00     0.166 A 
ATOM     11  C   UNL     1       8.627  -1.510  -2.671  1.00  0.00     0.165 A 
ATOM     12  O   UNL     1       8.306  -3.346  -1.453  1.00  0.00    -0.454 OA
ATOM     13  O   UNL     1       9.438  -2.527  -3.151  1.00  0.00    -0.454 OA
ATOM     14  C   UNL     1       9.333  -3.681  -2.351  1.00  0.00     0.468 C 
ENDBRANCH   5   6
ENDBRANCH   1   5
TORSDOF 3
ENDMDL
MODEL 5
REMARK VINA RESULT:      -6.8      1.172      5.184
REMARK SMILES CC(=O)CCc1ccc2c(c1)OCO2
REMARK SMILES IDX 4 1 2 2 1 3 3 4 5 5 6 6 7 7 11 8 8 9 10 10 9 11 12 12 14 13
REMARK SMILES IDX 13 14
REMARK H PARENT
REMARK Flexibility Score: inf
ROOT
ATOM      1  C   UNL     1       8.327   0.212  -2.600  1.00  0.00     0.080 C 
ENDROOT
BRANCH   1   2
ATOM      2  C   UNL     1       8.037  -1.245  -2.714  1.00  0.00     0.130 C 
ATOM      3  C   UNL     1       9.108  -2.233  -3.013  1.00  0.00     0.087 C 
ATOM      4  O   UNL     1       6.904  -1.672  -2.563  1.00  0.00    -0.300 OA
ENDBRANCH   1   2
BRANCH   1   5
ATOM      5  C   UNL     1       8.838   0.566  -1.218  1.00  0.00     0.043 C 
BRANCH   5   6
ATOM      6  C   UNL     1       7.784   0.435  -0.196  1.00  0.00    -0.044 A 
ATOM      7  C   UNL     1       7.858  -0.530   0.815  1.00  0.00     0.008 A 
ATOM      8  C   UNL     1       6.696   1.279  -0.225  1.00  0.00     0.054 A 
ATOM      9  C   UNL     1       6.840  -0.605   1.748  1.00  0.00     0.051 A 
ATOM     10  C   UNL     1       5.670   1.199   0.720  1.00  0.00     0.166 A 
ATOM     11  C   UNL     1       5.742   0.249   1.714  1.00  0.00     0.165 A 
ATOM     12  O   UNL     1       4.503   1.911   0.902  1.00  0.00    -0.454 OA
ATOM     13  O   UNL     1       4.606   0.399   2.495  1.00  0.00    -0.454 OA
ATOM     14  C   UNL     1       3.839   1.500   2.070  1.00  0.00     0.468 C 
ENDBRANCH   5   6
ENDBRANCH   1   5
TORSDOF 3
ENDMDL
