@<TRIPOS>MOLECULE
/home/cewinharhar/GITHUB/reincatalyze/data/processed/docking_pred/2023-May-25-1902_sub9_nm5_bs15_s42_ex16_mel10_mts10000_k50_ec01_g099_lra3e-4_lrc3e-3/80b3dd8cd2b2e3944ffcf13b099740dfc166ef97_ligand_9.pdbqt
 14 15 0 0 0
SMALL
GASTEIGER

@<TRIPOS>ATOM
      1  C          5.6830    1.2900   -0.3170 C.3     1  UNL1        0.0800
      2  C          5.0970    1.2330    1.0510 C.2     1  UNL1        0.1300
      3  C          5.3240    0.0690    1.9490 C.3     1  UNL1        0.0870
      4  O          4.4080    2.1460    1.4760 O.2     1  UNL1       -0.3000
      5  C          7.1830    1.0720   -0.2830 C.3     1  UNL1        0.0430
      6  C          7.5620   -0.2160   -0.8900 C.2     1  UNL1       -0.0440
      7  C          7.5960   -0.3900   -2.2790 C.2     1  UNL1        0.0080
      8  C          7.8960   -1.2790   -0.0830 C.2     1  UNL1        0.0540
      9  C          7.9600   -1.6220   -2.7920 C.2     1  UNL1        0.0510
     10  C          8.2640   -2.5220   -0.6060 C.2     1  UNL1        0.1660
     11  C          8.2960   -2.6950   -1.9720 C.2     1  UNL1        0.1650
     12  O          8.6330   -3.7160   -0.0230 O.2     1  UNL1       -0.4540
     13  O          8.6890   -4.0040   -2.2010 O.2     1  UNL1       -0.4540
     14  C          9.0010   -4.6600   -0.9950 C.3     1  UNL1        0.4680
@<TRIPOS>BOND
     1     9     7    1
     2     9    11    2
     3     7     6    2
     4    13    11    1
     5    13    14    1
     6    11    10    1
     7    14    12    1
     8     6     5    1
     9     6     8    1
    10    10     8    2
    11    10    12    1
    12     1     5    1
    13     1     2    1
    14     2     4    2
    15     2     3    1
