@<TRIPOS>MOLECULE
/home/cewinharhar/GITHUB/reincatalyze/data/processed/docking_pred/2023-May-25-1902_sub9_nm5_bs15_s42_ex16_mel10_mts10000_k50_ec01_g099_lra3e-4_lrc3e-3/80b3dd8cd2b2e3944ffcf13b099740dfc166ef97_ligand_9.pdbqt
 14 15 0 0 0
SMALL
GASTEIGER

@<TRIPOS>ATOM
      1  C          6.5630    1.3520    0.1270 C.3     1  UNL1        0.0800
      2  C          5.5070    1.1050    1.1480 C.2     1  UNL1        0.1300
      3  C          5.4960   -0.1280    1.9790 C.3     1  UNL1        0.0870
      4  O          4.6120    1.9150    1.3320 O.2     1  UNL1       -0.3000
      5  C          6.1400    0.8450   -1.2370 C.3     1  UNL1        0.0430
      6  C          7.1660   -0.0250   -1.8400 C.2     1  UNL1       -0.0440
      7  C          8.0810    0.4630   -2.7800 C.2     1  UNL1        0.0080
      8  C          7.2360   -1.3500   -1.4750 C.2     1  UNL1        0.0540
      9  C          9.0220   -0.4000   -3.3110 C.2     1  UNL1        0.0510
     10  C          8.1900   -2.2190   -2.0140 C.2     1  UNL1        0.1660
     11  C          9.0900   -1.7390   -2.9400 C.2     1  UNL1        0.1650
     12  O          8.4600   -3.5560   -1.8180 O.2     1  UNL1       -0.4540
     13  O          9.9040   -2.8040   -3.2960 O.2     1  UNL1       -0.4540
     14  C          9.5980   -3.9520   -2.5410 C.3     1  UNL1        0.4680
@<TRIPOS>BOND
     1     9    11    2
     2     9     7    1
     3    13    11    1
     4    13    14    1
     5    11    10    1
     6     7     6    2
     7    14    12    1
     8    10    12    1
     9    10     8    2
    10     6     8    1
    11     6     5    1
    12     5     1    1
    13     1     2    1
    14     2     4    2
    15     2     3    1
