@<TRIPOS>MOLECULE
/home/cewinharhar/GITHUB/reincatalyze/data/processed/docking_pred/2023-May-25-1902_sub9_nm5_bs15_s42_ex16_mel10_mts10000_k50_ec01_g099_lra3e-4_lrc3e-3/80c9945afd0f5f9f0270d56cce32b054e5c09707_ligand_9.pdbqt
 14 15 0 0 0
SMALL
GASTEIGER

@<TRIPOS>ATOM
      1  C          5.8870    1.2650   -0.3240 C.3     1  UNL1        0.0800
      2  C          5.2910    1.1400    1.0360 C.2     1  UNL1        0.1300
      3  C          5.5950   -0.0180    1.9180 C.3     1  UNL1        0.0870
      4  O          4.5310    1.9920    1.4670 O.2     1  UNL1       -0.3000
      5  C          7.4020    1.2670   -0.2630 C.3     1  UNL1        0.0430
      6  C          7.9820    0.1700   -1.0590 C.2     1  UNL1       -0.0440
      7  C          7.4280   -0.2200   -2.2840 C.2     1  UNL1        0.0080
      8  C          9.0960   -0.4930   -0.5960 C.2     1  UNL1        0.0540
      9  C          8.0160   -1.2550   -2.9870 C.2     1  UNL1        0.0510
     10  C          9.6870   -1.5390   -1.3110 C.2     1  UNL1        0.1660
     11  C          9.1430   -1.9230   -2.5160 C.2     1  UNL1        0.1650
     12  O         10.7800   -2.3430   -1.0680 O.2     1  UNL1       -0.4540
     13  O          9.9220   -2.9660   -2.9940 O.2     1  UNL1       -0.4540
     14  C         11.0240   -3.2040   -2.1510 C.3     1  UNL1        0.4680
@<TRIPOS>BOND
     1    13    11    1
     2    13    14    1
     3     9    11    2
     4     9     7    1
     5    11    10    1
     6     7     6    2
     7    14    12    1
     8    10    12    1
     9    10     8    2
    10     6     8    1
    11     6     5    1
    12     1     5    1
    13     1     2    1
    14     2     4    2
    15     2     3    1
