@<TRIPOS>MOLECULE
/home/cewinharhar/GITHUB/reincatalyze/data/processed/docking_pred/2023-May-25-1902_sub9_nm5_bs15_s42_ex16_mel10_mts10000_k50_ec01_g099_lra3e-4_lrc3e-3/80c9945afd0f5f9f0270d56cce32b054e5c09707_ligand_9.pdbqt
 14 15 0 0 0
SMALL
GASTEIGER

@<TRIPOS>ATOM
      1  C          5.8560    1.5820    0.9000 C.3     1  UNL1        0.0800
      2  C          5.3660    0.5530    1.8590 C.2     1  UNL1        0.1300
      3  C          6.1780   -0.6440    2.2010 C.3     1  UNL1        0.0870
      4  O          4.2750    0.6650    2.3940 O.2     1  UNL1       -0.3000
      5  C          5.7750    1.0850   -0.5300 C.3     1  UNL1        0.0430
      6  C          7.0190    0.4150   -0.9470 C.2     1  UNL1       -0.0440
      7  C          8.2720    1.0100   -0.7550 C.2     1  UNL1        0.0080
      8  C          6.9610   -0.8270   -1.5380 C.2     1  UNL1        0.0540
      9  C          9.4060    0.3340   -1.1660 C.2     1  UNL1        0.0510
     10  C          8.1110   -1.5070   -1.9500 C.2     1  UNL1        0.1660
     11  C          9.3430   -0.9210   -1.7630 C.2     1  UNL1        0.1650
     12  O          8.3130   -2.7300   -2.5530 O.2     1  UNL1       -0.4540
     13  O         10.2870   -1.8070   -2.2590 O.2     1  UNL1       -0.4540
     14  C          9.6840   -3.0060   -2.6860 C.3     1  UNL1        0.4680
@<TRIPOS>BOND
     1    14    12    1
     2    14    13    1
     3    12    10    1
     4    13    11    1
     5    10    11    2
     6    10     8    1
     7    11     9    1
     8     8     6    2
     9     9     7    2
    10     6     7    1
    11     6     5    1
    12     5     1    1
    13     1     2    1
    14     2     3    1
    15     2     4    2
