@<TRIPOS>MOLECULE
/home/cewinharhar/GITHUB/reincatalyze/data/processed/docking_pred/2023-May-25-1902_sub9_nm5_bs15_s42_ex16_mel10_mts10000_k50_ec01_g099_lra3e-4_lrc3e-3/80ffcc0cdcaea1df7ad243f542ab1163fa4dc1ce_ligand_9.pdbqt
 14 15 0 0 0
SMALL
GASTEIGER

@<TRIPOS>ATOM
      1  C          6.7260    0.7090    0.9080 C.3     1  UNL1        0.0800
      2  C          5.3570    1.1010    1.3480 C.2     1  UNL1        0.1300
      3  C          4.5770    2.1460    0.6330 C.3     1  UNL1        0.0870
      4  O          4.8340    0.5700    2.3150 O.2     1  UNL1       -0.3000
      5  C          6.8540    0.7590   -0.6010 C.3     1  UNL1        0.0430
      6  C          7.4560   -0.4740   -1.1400 C.2     1  UNL1       -0.0440
      7  C          7.8340   -0.5790   -2.4830 C.2     1  UNL1        0.0080
      8  C          7.6580   -1.5530   -0.3100 C.2     1  UNL1        0.0540
      9  C          8.3950   -1.7610   -2.9320 C.2     1  UNL1        0.0510
     10  C          8.2260   -2.7450   -0.7680 C.2     1  UNL1        0.1660
     11  C          8.5970   -2.8500   -2.0900 C.2     1  UNL1        0.1650
     12  O          8.5250   -3.9420   -0.1510 O.2     1  UNL1       -0.4540
     13  O          9.1220   -4.1210   -2.2590 O.2     1  UNL1       -0.4540
     14  C          9.1790   -4.8150   -1.0360 C.3     1  UNL1        0.4680
@<TRIPOS>BOND
     1     9     7    1
     2     9    11    2
     3     7     6    2
     4    13    11    1
     5    13    14    1
     6    11    10    1
     7     6     5    1
     8     6     8    1
     9    14    12    1
    10    10     8    2
    11    10    12    1
    12     5     1    1
    13     3     2    1
    14     1     2    1
    15     2     4    2
