@<TRIPOS>MOLECULE
/home/cewinharhar/GITHUB/reincatalyze/data/processed/docking_pred/2023-May-25-1902_sub9_nm5_bs15_s42_ex16_mel10_mts10000_k50_ec01_g099_lra3e-4_lrc3e-3/80ffcc0cdcaea1df7ad243f542ab1163fa4dc1ce_ligand_9.pdbqt
 14 15 0 0 0
SMALL
GASTEIGER

@<TRIPOS>ATOM
      1  C          5.5940    0.0400    1.9430 C.3     1  UNL1        0.0800
      2  C          4.6850    1.1770    1.6260 C.2     1  UNL1        0.1300
      3  C          4.9640    2.1100    0.5020 C.3     1  UNL1        0.0870
      4  O          3.6780    1.3770    2.2860 O.2     1  UNL1       -0.3000
      5  C          6.9980    0.3000    1.4350 C.3     1  UNL1        0.0430
      6  C          7.3980   -0.6780    0.4080 C.2     1  UNL1       -0.0440
      7  C          7.2980   -0.3880   -0.9580 C.2     1  UNL1        0.0080
      8  C          7.8860   -1.9070    0.7890 C.2     1  UNL1        0.0540
      9  C          7.6890   -1.3450   -1.8770 C.2     1  UNL1        0.0510
     10  C          8.2810   -2.8700   -0.1440 C.2     1  UNL1        0.1660
     11  C          8.1810   -2.5870   -1.4880 C.2     1  UNL1        0.1650
     12  O          8.7890   -4.1460   -0.0200 O.2     1  UNL1       -0.4540
     13  O          8.6360   -3.7060   -2.1690 O.2     1  UNL1       -0.4540
     14  C          9.1150   -4.6830   -1.2760 C.3     1  UNL1        0.4680
@<TRIPOS>BOND
     1    13    11    1
     2    13    14    1
     3     9    11    2
     4     9     7    1
     5    11    10    1
     6    14    12    1
     7     7     6    2
     8    10    12    1
     9    10     8    2
    10     6     8    1
    11     6     5    1
    12     3     2    1
    13     5     1    1
    14     2     1    1
    15     2     4    2
