@<TRIPOS>MOLECULE
/home/cewinharhar/GITHUB/reincatalyze/data/processed/docking_pred/2023-May-25-1902_sub9_nm5_bs15_s42_ex16_mel10_mts10000_k50_ec01_g099_lra3e-4_lrc3e-3/81487a167534eaf1a49a57d95a0bec7d9495d7bd_ligand_9.pdbqt
 14 15 0 0 0
SMALL
GASTEIGER

@<TRIPOS>ATOM
      1  C          8.5920    0.2480   -2.5210 C.3     1  UNL1        0.0800
      2  C          8.4910   -1.2240   -2.7290 C.2     1  UNL1        0.1300
      3  C          7.1750   -1.9080   -2.8340 C.3     1  UNL1        0.0870
      4  O          9.4930   -1.9140   -2.8190 O.2     1  UNL1       -0.3000
      5  C          9.0430    0.5750   -1.1110 C.3     1  UNL1        0.0430
      6  C          7.9490    0.4120   -0.1360 C.2     1  UNL1       -0.0440
      7  C          7.9730   -0.6000    0.8300 C.2     1  UNL1        0.0080
      8  C          6.8750    1.2720   -0.1670 C.2     1  UNL1        0.0540
      9  C          6.9190   -0.7030    1.7190 C.2     1  UNL1        0.0510
     10  C          5.8120    1.1640    0.7350 C.2     1  UNL1        0.1660
     11  C          5.8340    0.1680    1.6850 C.2     1  UNL1        0.1650
     12  O          4.6480    1.8830    0.9070 O.2     1  UNL1       -0.4540
     13  O          4.6720    0.2980    2.4300 O.2     1  UNL1       -0.4540
     14  C          3.9350    1.4290    2.0280 C.3     1  UNL1        0.4680
@<TRIPOS>BOND
     1     3     2    1
     2     4     2    2
     3     2     1    1
     4     1     5    1
     5     5     6    1
     6     8     6    2
     7     8    10    1
     8     6     7    1
     9    10    12    1
    10    10    11    2
    11     7     9    2
    12    12    14    1
    13    11     9    1
    14    11    13    1
    15    14    13    1
