MODEL 1
REMARK VINA RESULT:      -7.6      0.000      0.000
REMARK SMILES CC(=O)CCc1ccc2c(c1)OCO2
REMARK SMILES IDX 4 1 2 2 1 3 3 4 5 5 6 6 7 7 11 8 8 9 10 10 9 11 12 12 14 13
REMARK SMILES IDX 13 14
REMARK H PARENT
REMARK Flexibility Score: inf
ROOT
ATOM      1  C   UNL     1       5.545   1.903   1.280  1.00  0.00     0.080 C 
ENDROOT
BRANCH   1   2
ATOM      2  C   UNL     1       5.106   0.682   2.011  1.00  0.00     0.130 C 
ATOM      3  C   UNL     1       6.001  -0.494   2.176  1.00  0.00     0.087 C 
ATOM      4  O   UNL     1       3.989   0.612   2.499  1.00  0.00    -0.300 OA
ENDBRANCH   1   2
BRANCH   1   5
ATOM      5  C   UNL     1       5.415   1.723  -0.220  1.00  0.00     0.043 C 
BRANCH   5   6
ATOM      6  C   UNL     1       6.581   1.023  -0.789  1.00  0.00    -0.044 A 
ATOM      7  C   UNL     1       7.889   1.454  -0.538  1.00  0.00     0.008 A 
ATOM      8  C   UNL     1       6.390  -0.083  -1.584  1.00  0.00     0.054 A 
ATOM      9  C   UNL     1       8.944   0.757  -1.099  1.00  0.00     0.051 A 
ATOM     10  C   UNL     1       7.460  -0.785  -2.148  1.00  0.00     0.166 A 
ATOM     11  C   UNL     1       8.747  -0.361  -1.903  1.00  0.00     0.165 A 
ATOM     12  O   UNL     1       7.531  -1.897  -2.961  1.00  0.00    -0.454 OA
ATOM     13  O   UNL     1       9.590  -1.231  -2.578  1.00  0.00    -0.454 OA
ATOM     14  C   UNL     1       8.865  -2.272  -3.187  1.00  0.00     0.468 C 
ENDBRANCH   5   6
ENDBRANCH   1   5
TORSDOF 3
ENDMDL
MODEL 2
REMARK VINA RESULT:      -7.4      1.893      2.372
REMARK SMILES CC(=O)CCc1ccc2c(c1)OCO2
REMARK SMILES IDX 4 1 2 2 1 3 3 4 5 5 6 6 7 7 11 8 8 9 10 10 9 11 12 12 14 13
REMARK SMILES IDX 13 14
REMARK H PARENT
REMARK Flexibility Score: inf
ROOT
ATOM      1  C   UNL     1       5.745   1.379  -0.310  1.00  0.00     0.080 C 
ENDROOT
BRANCH   1   2
ATOM      2  C   UNL     1       5.134   1.271   1.044  1.00  0.00     0.130 C 
ATOM      3  C   UNL     1       5.392   0.101   1.926  1.00  0.00     0.087 C 
ATOM      4  O   UNL     1       4.398   2.145   1.471  1.00  0.00    -0.300 OA
ENDBRANCH   1   2
BRANCH   1   5
ATOM      5  C   UNL     1       7.238   1.118  -0.263  1.00  0.00     0.043 C 
BRANCH   5   6
ATOM      6  C   UNL     1       7.587  -0.170  -0.888  1.00  0.00    -0.044 A 
ATOM      7  C   UNL     1       7.609  -0.328  -2.279  1.00  0.00     0.008 A 
ATOM      8  C   UNL     1       7.904  -1.250  -0.096  1.00  0.00     0.054 A 
ATOM      9  C   UNL     1       7.945  -1.560  -2.809  1.00  0.00     0.051 A 
ATOM     10  C   UNL     1       8.244  -2.493  -0.636  1.00  0.00     0.166 A 
ATOM     11  C   UNL     1       8.264  -2.650  -2.005  1.00  0.00     0.165 A 
ATOM     12  O   UNL     1       8.591  -3.701  -0.070  1.00  0.00    -0.454 OA
ATOM     13  O   UNL     1       8.629  -3.964  -2.252  1.00  0.00    -0.454 OA
ATOM     14  C   UNL     1       8.934  -4.641  -1.056  1.00  0.00     0.468 C 
ENDBRANCH   5   6
ENDBRANCH   1   5
TORSDOF 3
ENDMDL
MODEL 3
REMARK VINA RESULT:      -7.1      2.098      2.633
REMARK SMILES CC(=O)CCc1ccc2c(c1)OCO2
REMARK SMILES IDX 4 1 2 2 1 3 3 4 5 5 6 6 7 7 11 8 8 9 10 10 9 11 12 12 14 13
REMARK SMILES IDX 13 14
REMARK H PARENT
REMARK Flexibility Score: inf
ROOT
ATOM      1  C   UNL     1       5.627  -0.017   1.943  1.00  0.00     0.080 C 
ENDROOT
BRANCH   1   2
ATOM      2  C   UNL     1       4.719   1.121   1.627  1.00  0.00     0.130 C 
ATOM      3  C   UNL     1       4.977   2.029   0.478  1.00  0.00     0.087 C 
ATOM      4  O   UNL     1       3.731   1.342   2.308  1.00  0.00    -0.300 OA
ENDBRANCH   1   2
BRANCH   1   5
ATOM      5  C   UNL     1       7.032   0.242   1.438  1.00  0.00     0.043 C 
BRANCH   5   6
ATOM      6  C   UNL     1       7.427  -0.725   0.399  1.00  0.00    -0.044 A 
ATOM      7  C   UNL     1       7.316  -0.424  -0.964  1.00  0.00     0.008 A 
ATOM      8  C   UNL     1       7.920  -1.957   0.765  1.00  0.00     0.054 A 
ATOM      9  C   UNL     1       7.702  -1.372  -1.894  1.00  0.00     0.051 A 
ATOM     10  C   UNL     1       8.311  -2.911  -0.179  1.00  0.00     0.166 A 
ATOM     11  C   UNL     1       8.200  -2.616  -1.520  1.00  0.00     0.165 A 
ATOM     12  O   UNL     1       8.823  -4.186  -0.070  1.00  0.00    -0.454 OA
ATOM     13  O   UNL     1       8.653  -3.727  -2.213  1.00  0.00    -0.454 OA
ATOM     14  C   UNL     1       9.141  -4.711  -1.333  1.00  0.00     0.468 C 
ENDBRANCH   5   6
ENDBRANCH   1   5
TORSDOF 3
ENDMDL
MODEL 4
REMARK VINA RESULT:      -7.1      1.230      1.407
REMARK SMILES CC(=O)CCc1ccc2c(c1)OCO2
REMARK SMILES IDX 4 1 2 2 1 3 3 4 5 5 6 6 7 7 11 8 8 9 10 10 9 11 12 12 14 13
REMARK SMILES IDX 13 14
REMARK H PARENT
REMARK Flexibility Score: inf
ROOT
ATOM      1  C   UNL     1       6.314   1.267   0.897  1.00  0.00     0.080 C 
ENDROOT
BRANCH   1   2
ATOM      2  C   UNL     1       5.655   0.410   1.921  1.00  0.00     0.130 C 
ATOM      3  C   UNL     1       6.328  -0.790   2.485  1.00  0.00     0.087 C 
ATOM      4  O   UNL     1       4.534   0.669   2.328  1.00  0.00    -0.300 OA
ENDBRANCH   1   2
BRANCH   1   5
ATOM      5  C   UNL     1       5.806   0.952  -0.496  1.00  0.00     0.043 C 
BRANCH   5   6
ATOM      6  C   UNL     1       6.773   0.146  -1.262  1.00  0.00    -0.044 A 
ATOM      7  C   UNL     1       7.491   0.686  -2.335  1.00  0.00     0.008 A 
ATOM      8  C   UNL     1       6.986  -1.171  -0.920  1.00  0.00     0.054 A 
ATOM      9  C   UNL     1       8.386  -0.118  -3.016  1.00  0.00     0.051 A 
ATOM     10  C   UNL     1       7.893  -1.979  -1.612  1.00  0.00     0.166 A 
ATOM     11  C   UNL     1       8.598  -1.449  -2.669  1.00  0.00     0.165 A 
ATOM     12  O   UNL     1       8.276  -3.296  -1.470  1.00  0.00    -0.454 OA
ATOM     13  O   UNL     1       9.409  -2.461  -3.158  1.00  0.00    -0.454 OA
ATOM     14  C   UNL     1       9.303  -3.623  -2.370  1.00  0.00     0.468 C 
ENDBRANCH   5   6
ENDBRANCH   1   5
TORSDOF 3
ENDMDL
MODEL 5
REMARK VINA RESULT:      -6.7      1.251      5.282
REMARK SMILES CC(=O)CCc1ccc2c(c1)OCO2
REMARK SMILES IDX 4 1 2 2 1 3 3 4 5 5 6 6 7 7 11 8 8 9 10 10 9 11 12 12 14 13
REMARK SMILES IDX 13 14
REMARK H PARENT
REMARK Flexibility Score: inf
ROOT
ATOM      1  C   UNL     1       8.592   0.248  -2.521  1.00  0.00     0.080 C 
ENDROOT
BRANCH   1   2
ATOM      2  C   UNL     1       8.491  -1.224  -2.729  1.00  0.00     0.130 C 
ATOM      3  C   UNL     1       7.175  -1.908  -2.834  1.00  0.00     0.087 C 
ATOM      4  O   UNL     1       9.493  -1.914  -2.819  1.00  0.00    -0.300 OA
ENDBRANCH   1   2
BRANCH   1   5
ATOM      5  C   UNL     1       9.043   0.575  -1.111  1.00  0.00     0.043 C 
BRANCH   5   6
ATOM      6  C   UNL     1       7.949   0.412  -0.136  1.00  0.00    -0.044 A 
ATOM      7  C   UNL     1       7.973  -0.600   0.830  1.00  0.00     0.008 A 
ATOM      8  C   UNL     1       6.875   1.272  -0.167  1.00  0.00     0.054 A 
ATOM      9  C   UNL     1       6.919  -0.703   1.719  1.00  0.00     0.051 A 
ATOM     10  C   UNL     1       5.812   1.164   0.735  1.00  0.00     0.166 A 
ATOM     11  C   UNL     1       5.834   0.168   1.685  1.00  0.00     0.165 A 
ATOM     12  O   UNL     1       4.648   1.883   0.907  1.00  0.00    -0.454 OA
ATOM     13  O   UNL     1       4.672   0.298   2.430  1.00  0.00    -0.454 OA
ATOM     14  C   UNL     1       3.935   1.429   2.028  1.00  0.00     0.468 C 
ENDBRANCH   5   6
ENDBRANCH   1   5
TORSDOF 3
ENDMDL
