@<TRIPOS>MOLECULE
/home/cewinharhar/GITHUB/reincatalyze/data/processed/docking_pred/2023-May-25-1902_sub9_nm5_bs15_s42_ex16_mel10_mts10000_k50_ec01_g099_lra3e-4_lrc3e-3/81487a167534eaf1a49a57d95a0bec7d9495d7bd_ligand_9.pdbqt
 14 15 0 0 0
SMALL
GASTEIGER

@<TRIPOS>ATOM
      1  C          5.5450    1.9030    1.2800 C.3     1  UNL1        0.0800
      2  C          5.1060    0.6820    2.0110 C.2     1  UNL1        0.1300
      3  C          6.0010   -0.4940    2.1760 C.3     1  UNL1        0.0870
      4  O          3.9890    0.6120    2.4990 O.2     1  UNL1       -0.3000
      5  C          5.4150    1.7230   -0.2200 C.3     1  UNL1        0.0430
      6  C          6.5810    1.0230   -0.7890 C.2     1  UNL1       -0.0440
      7  C          7.8890    1.4540   -0.5380 C.2     1  UNL1        0.0080
      8  C          6.3900   -0.0830   -1.5840 C.2     1  UNL1        0.0540
      9  C          8.9440    0.7570   -1.0990 C.2     1  UNL1        0.0510
     10  C          7.4600   -0.7850   -2.1480 C.2     1  UNL1        0.1660
     11  C          8.7470   -0.3610   -1.9030 C.2     1  UNL1        0.1650
     12  O          7.5310   -1.8970   -2.9610 O.2     1  UNL1       -0.4540
     13  O          9.5900   -1.2310   -2.5780 O.2     1  UNL1       -0.4540
     14  C          8.8650   -2.2720   -3.1870 C.3     1  UNL1        0.4680
@<TRIPOS>BOND
     1    14    12    1
     2    14    13    1
     3    12    10    1
     4    13    11    1
     5    10    11    2
     6    10     8    1
     7    11     9    1
     8     8     6    2
     9     9     7    2
    10     6     7    1
    11     6     5    1
    12     5     1    1
    13     1     2    1
    14     2     3    1
    15     2     4    2
