@<TRIPOS>MOLECULE
/home/cewinharhar/GITHUB/reincatalyze/data/processed/docking_pred/2023-May-25-1902_sub9_nm5_bs15_s42_ex16_mel10_mts10000_k50_ec01_g099_lra3e-4_lrc3e-3/82066193004a6cdbe54a2a950d109d8cafa96b54_ligand_9.pdbqt
 14 15 0 0 0
SMALL
GASTEIGER

@<TRIPOS>ATOM
      1  C          6.3920    1.1910    0.9310 C.3     1  UNL1        0.0800
      2  C          5.6610    0.3770    1.9410 C.2     1  UNL1        0.1300
      3  C          6.2550   -0.8520    2.5320 C.3     1  UNL1        0.0870
      4  O          4.5450    0.6980    2.3160 O.2     1  UNL1       -0.3000
      5  C          5.8850    0.9140   -0.4710 C.3     1  UNL1        0.0430
      6  C          6.8320    0.0880   -1.2410 C.2     1  UNL1       -0.0440
      7  C          7.5210    0.6010   -2.3460 C.2     1  UNL1        0.0080
      8  C          7.0530   -1.2200   -0.8720 C.2     1  UNL1        0.0540
      9  C          8.3980   -0.2210   -3.0300 C.2     1  UNL1        0.0510
     10  C          7.9420   -2.0460   -1.5670 C.2     1  UNL1        0.1660
     11  C          8.6190   -1.5430   -2.6550 C.2     1  UNL1        0.1650
     12  O          8.3280   -3.3590   -1.4020 O.2     1  UNL1       -0.4540
     13  O          9.4170   -2.5670   -3.1400 O.2     1  UNL1       -0.4540
     14  C          9.3320   -3.7090   -2.3200 C.3     1  UNL1        0.4680
@<TRIPOS>BOND
     1    13    11    1
     2    13    14    1
     3     9    11    2
     4     9     7    1
     5    11    10    1
     6     7     6    2
     7    14    12    1
     8    10    12    1
     9    10     8    2
    10     6     8    1
    11     6     5    1
    12     5     1    1
    13     1     2    1
    14     2     4    2
    15     2     3    1
