MODEL 1
REMARK VINA RESULT:      -7.7      0.000      0.000
REMARK SMILES CC(=O)CCc1ccc2c(c1)OCO2
REMARK SMILES IDX 4 1 2 2 1 3 3 4 5 5 6 6 7 7 11 8 8 9 10 10 9 11 12 12 14 13
REMARK SMILES IDX 13 14
REMARK H PARENT
REMARK Flexibility Score: inf
ROOT
ATOM      1  C   UNL     1       5.538   1.890   1.288  1.00  0.00     0.080 C 
ENDROOT
BRANCH   1   2
ATOM      2  C   UNL     1       5.106   0.671   2.027  1.00  0.00     0.130 C 
ATOM      3  C   UNL     1       6.004  -0.504   2.186  1.00  0.00     0.087 C 
ATOM      4  O   UNL     1       3.995   0.602   2.527  1.00  0.00    -0.300 OA
ENDBRANCH   1   2
BRANCH   1   5
ATOM      5  C   UNL     1       5.401   1.703  -0.210  1.00  0.00     0.043 C 
BRANCH   5   6
ATOM      6  C   UNL     1       6.568   1.010  -0.783  1.00  0.00    -0.044 A 
ATOM      7  C   UNL     1       7.873   1.459  -0.553  1.00  0.00     0.008 A 
ATOM      8  C   UNL     1       6.382  -0.109  -1.564  1.00  0.00     0.054 A 
ATOM      9  C   UNL     1       8.931   0.768  -1.116  1.00  0.00     0.051 A 
ATOM     10  C   UNL     1       7.454  -0.805  -2.130  1.00  0.00     0.166 A 
ATOM     11  C   UNL     1       8.739  -0.362  -1.905  1.00  0.00     0.165 A 
ATOM     12  O   UNL     1       7.530  -1.925  -2.931  1.00  0.00    -0.454 OA
ATOM     13  O   UNL     1       9.585  -1.230  -2.578  1.00  0.00    -0.454 OA
ATOM     14  C   UNL     1       8.866  -2.287  -3.166  1.00  0.00     0.468 C 
ENDBRANCH   5   6
ENDBRANCH   1   5
TORSDOF 3
ENDMDL
MODEL 2
REMARK VINA RESULT:      -7.4      1.919      2.406
REMARK SMILES CC(=O)CCc1ccc2c(c1)OCO2
REMARK SMILES IDX 4 1 2 2 1 3 3 4 5 5 6 6 7 7 11 8 8 9 10 10 9 11 12 12 14 13
REMARK SMILES IDX 13 14
REMARK H PARENT
REMARK Flexibility Score: inf
ROOT
ATOM      1  C   UNL     1       5.737   1.247  -0.269  1.00  0.00     0.080 C 
ENDROOT
BRANCH   1   2
ATOM      2  C   UNL     1       5.205   1.196   1.121  1.00  0.00     0.130 C 
ATOM      3  C   UNL     1       5.371  -0.009   1.977  1.00  0.00     0.087 C 
ATOM      4  O   UNL     1       4.614   2.150   1.601  1.00  0.00    -0.300 OA
ENDBRANCH   1   2
BRANCH   1   5
ATOM      5  C   UNL     1       7.239   1.047  -0.292  1.00  0.00     0.043 C 
BRANCH   5   6
ATOM      6  C   UNL     1       7.609  -0.244  -0.900  1.00  0.00    -0.044 A 
ATOM      7  C   UNL     1       7.651  -0.416  -2.288  1.00  0.00     0.008 A 
ATOM      8  C   UNL     1       7.927  -1.312  -0.092  1.00  0.00     0.054 A 
ATOM      9  C   UNL     1       8.006  -1.650  -2.801  1.00  0.00     0.051 A 
ATOM     10  C   UNL     1       8.286  -2.558  -0.616  1.00  0.00     0.166 A 
ATOM     11  C   UNL     1       8.325  -2.728  -1.982  1.00  0.00     0.165 A 
ATOM     12  O   UNL     1       8.639  -3.756  -0.033  1.00  0.00    -0.454 OA
ATOM     13  O   UNL     1       8.707  -4.040  -2.211  1.00  0.00    -0.454 OA
ATOM     14  C   UNL     1       9.003  -4.702  -1.005  1.00  0.00     0.468 C 
ENDBRANCH   5   6
ENDBRANCH   1   5
TORSDOF 3
ENDMDL
MODEL 3
REMARK VINA RESULT:      -7.2      2.061      2.620
REMARK SMILES CC(=O)CCc1ccc2c(c1)OCO2
REMARK SMILES IDX 4 1 2 2 1 3 3 4 5 5 6 6 7 7 11 8 8 9 10 10 9 11 12 12 14 13
REMARK SMILES IDX 13 14
REMARK H PARENT
REMARK Flexibility Score: inf
ROOT
ATOM      1  C   UNL     1       5.461  -0.006   2.012  1.00  0.00     0.080 C 
ENDROOT
BRANCH   1   2
ATOM      2  C   UNL     1       4.579   1.164   1.744  1.00  0.00     0.130 C 
ATOM      3  C   UNL     1       4.887   2.143   0.667  1.00  0.00     0.087 C 
ATOM      4  O   UNL     1       3.572   1.355   2.406  1.00  0.00    -0.300 OA
ENDBRANCH   1   2
BRANCH   1   5
ATOM      5  C   UNL     1       6.880   0.257   1.550  1.00  0.00     0.043 C 
BRANCH   5   6
ATOM      6  C   UNL     1       7.300  -0.694   0.505  1.00  0.00    -0.044 A 
ATOM      7  C   UNL     1       7.180  -0.389  -0.855  1.00  0.00     0.008 A 
ATOM      8  C   UNL     1       7.825  -1.915   0.865  1.00  0.00     0.054 A 
ATOM      9  C   UNL     1       7.592  -1.321  -1.791  1.00  0.00     0.051 A 
ATOM     10  C   UNL     1       8.240  -2.853  -0.085  1.00  0.00     0.166 A 
ATOM     11  C   UNL     1       8.122  -2.553  -1.424  1.00  0.00     0.165 A 
ATOM     12  O   UNL     1       8.785  -4.115   0.017  1.00  0.00    -0.454 OA
ATOM     13  O   UNL     1       8.603  -3.649  -2.124  1.00  0.00    -0.454 OA
ATOM     14  C   UNL     1       9.117  -4.625  -1.249  1.00  0.00     0.468 C 
ENDBRANCH   5   6
ENDBRANCH   1   5
TORSDOF 3
ENDMDL
MODEL 4
REMARK VINA RESULT:      -7.1      1.247      1.459
REMARK SMILES CC(=O)CCc1ccc2c(c1)OCO2
REMARK SMILES IDX 4 1 2 2 1 3 3 4 5 5 6 6 7 7 11 8 8 9 10 10 9 11 12 12 14 13
REMARK SMILES IDX 13 14
REMARK H PARENT
REMARK Flexibility Score: inf
ROOT
ATOM      1  C   UNL     1       6.392   1.191   0.931  1.00  0.00     0.080 C 
ENDROOT
BRANCH   1   2
ATOM      2  C   UNL     1       5.661   0.377   1.941  1.00  0.00     0.130 C 
ATOM      3  C   UNL     1       6.255  -0.852   2.532  1.00  0.00     0.087 C 
ATOM      4  O   UNL     1       4.545   0.698   2.316  1.00  0.00    -0.300 OA
ENDBRANCH   1   2
BRANCH   1   5
ATOM      5  C   UNL     1       5.885   0.914  -0.471  1.00  0.00     0.043 C 
BRANCH   5   6
ATOM      6  C   UNL     1       6.832   0.088  -1.241  1.00  0.00    -0.044 A 
ATOM      7  C   UNL     1       7.521   0.601  -2.346  1.00  0.00     0.008 A 
ATOM      8  C   UNL     1       7.053  -1.220  -0.872  1.00  0.00     0.054 A 
ATOM      9  C   UNL     1       8.398  -0.221  -3.030  1.00  0.00     0.051 A 
ATOM     10  C   UNL     1       7.942  -2.046  -1.567  1.00  0.00     0.166 A 
ATOM     11  C   UNL     1       8.619  -1.543  -2.655  1.00  0.00     0.165 A 
ATOM     12  O   UNL     1       8.328  -3.359  -1.402  1.00  0.00    -0.454 OA
ATOM     13  O   UNL     1       9.417  -2.567  -3.140  1.00  0.00    -0.454 OA
ATOM     14  C   UNL     1       9.332  -3.709  -2.320  1.00  0.00     0.468 C 
ENDBRANCH   5   6
ENDBRANCH   1   5
TORSDOF 3
ENDMDL
MODEL 5
REMARK VINA RESULT:      -7.0      1.909      2.544
REMARK SMILES CC(=O)CCc1ccc2c(c1)OCO2
REMARK SMILES IDX 4 1 2 2 1 3 3 4 5 5 6 6 7 7 11 8 8 9 10 10 9 11 12 12 14 13
REMARK SMILES IDX 13 14
REMARK H PARENT
REMARK Flexibility Score: inf
ROOT
ATOM      1  C   UNL     1       6.715   1.058   1.245  1.00  0.00     0.080 C 
ENDROOT
BRANCH   1   2
ATOM      2  C   UNL     1       5.320   1.537   1.038  1.00  0.00     0.130 C 
ATOM      3  C   UNL     1       4.888   2.150  -0.247  1.00  0.00     0.087 C 
ATOM      4  O   UNL     1       4.486   1.441   1.923  1.00  0.00    -0.300 OA
ENDBRANCH   1   2
BRANCH   1   5
ATOM      5  C   UNL     1       7.543   1.211  -0.015  1.00  0.00     0.043 C 
BRANCH   5   6
ATOM      6  C   UNL     1       7.787  -0.087  -0.669  1.00  0.00    -0.044 A 
ATOM      7  C   UNL     1       7.735  -0.229  -2.061  1.00  0.00     0.008 A 
ATOM      8  C   UNL     1       8.078  -1.193   0.097  1.00  0.00     0.054 A 
ATOM      9  C   UNL     1       7.974  -1.472  -2.618  1.00  0.00     0.051 A 
ATOM     10  C   UNL     1       8.319  -2.447  -0.472  1.00  0.00     0.166 A 
ATOM     11  C   UNL     1       8.266  -2.588  -1.841  1.00  0.00     0.165 A 
ATOM     12  O   UNL     1       8.623  -3.680   0.066  1.00  0.00    -0.454 OA
ATOM     13  O   UNL     1       8.542  -3.917  -2.118  1.00  0.00    -0.454 OA
ATOM     14  C   UNL     1       8.864  -4.625  -0.945  1.00  0.00     0.468 C 
ENDBRANCH   5   6
ENDBRANCH   1   5
TORSDOF 3
ENDMDL
