@<TRIPOS>MOLECULE
/home/cewinharhar/GITHUB/reincatalyze/data/processed/docking_pred/2023-May-25-1902_sub9_nm5_bs15_s42_ex16_mel10_mts10000_k50_ec01_g099_lra3e-4_lrc3e-3/82066193004a6cdbe54a2a950d109d8cafa96b54_ligand_9.pdbqt
 14 15 0 0 0
SMALL
GASTEIGER

@<TRIPOS>ATOM
      1  C          6.7150    1.0580    1.2450 C.3     1  UNL1        0.0800
      2  C          5.3200    1.5370    1.0380 C.2     1  UNL1        0.1300
      3  C          4.8880    2.1500   -0.2470 C.3     1  UNL1        0.0870
      4  O          4.4860    1.4410    1.9230 O.2     1  UNL1       -0.3000
      5  C          7.5430    1.2110   -0.0150 C.3     1  UNL1        0.0430
      6  C          7.7870   -0.0870   -0.6690 C.2     1  UNL1       -0.0440
      7  C          7.7350   -0.2290   -2.0610 C.2     1  UNL1        0.0080
      8  C          8.0780   -1.1930    0.0970 C.2     1  UNL1        0.0540
      9  C          7.9740   -1.4720   -2.6180 C.2     1  UNL1        0.0510
     10  C          8.3190   -2.4470   -0.4720 C.2     1  UNL1        0.1660
     11  C          8.2660   -2.5880   -1.8410 C.2     1  UNL1        0.1650
     12  O          8.6230   -3.6800    0.0660 O.2     1  UNL1       -0.4540
     13  O          8.5420   -3.9170   -2.1180 O.2     1  UNL1       -0.4540
     14  C          8.8640   -4.6250   -0.9450 C.3     1  UNL1        0.4680
@<TRIPOS>BOND
     1     9     7    1
     2     9    11    2
     3    13    11    1
     4    13    14    1
     5     7     6    2
     6    11    10    1
     7    14    12    1
     8     6     5    1
     9     6     8    1
    10    10    12    1
    11    10     8    2
    12     3     2    1
    13     5     1    1
    14     2     1    1
    15     2     4    2
