@<TRIPOS>MOLECULE
/home/cewinharhar/GITHUB/reincatalyze/data/processed/docking_pred/2023-May-25-1902_sub9_nm5_bs15_s42_ex16_mel10_mts10000_k50_ec01_g099_lra3e-4_lrc3e-3/82066193004a6cdbe54a2a950d109d8cafa96b54_ligand_9.pdbqt
 14 15 0 0 0
SMALL
GASTEIGER

@<TRIPOS>ATOM
      1  C          5.7370    1.2470   -0.2690 C.3     1  UNL1        0.0800
      2  C          5.2050    1.1960    1.1210 C.2     1  UNL1        0.1300
      3  C          5.3710   -0.0090    1.9770 C.3     1  UNL1        0.0870
      4  O          4.6140    2.1500    1.6010 O.2     1  UNL1       -0.3000
      5  C          7.2390    1.0470   -0.2920 C.3     1  UNL1        0.0430
      6  C          7.6090   -0.2440   -0.9000 C.2     1  UNL1       -0.0440
      7  C          7.6510   -0.4160   -2.2880 C.2     1  UNL1        0.0080
      8  C          7.9270   -1.3120   -0.0920 C.2     1  UNL1        0.0540
      9  C          8.0060   -1.6500   -2.8010 C.2     1  UNL1        0.0510
     10  C          8.2860   -2.5580   -0.6160 C.2     1  UNL1        0.1660
     11  C          8.3250   -2.7280   -1.9820 C.2     1  UNL1        0.1650
     12  O          8.6390   -3.7560   -0.0330 O.2     1  UNL1       -0.4540
     13  O          8.7070   -4.0400   -2.2110 O.2     1  UNL1       -0.4540
     14  C          9.0030   -4.7020   -1.0050 C.3     1  UNL1        0.4680
@<TRIPOS>BOND
     1     9     7    1
     2     9    11    2
     3     7     6    2
     4    13    11    1
     5    13    14    1
     6    11    10    1
     7    14    12    1
     8     6     5    1
     9     6     8    1
    10    10     8    2
    11    10    12    1
    12     5     1    1
    13     1     2    1
    14     2     4    2
    15     2     3    1
