MODEL 1
REMARK VINA RESULT:      -7.7      0.000      0.000
REMARK SMILES CC(=O)CCc1ccc2c(c1)OCO2
REMARK SMILES IDX 4 1 2 2 1 3 3 4 5 5 6 6 7 7 11 8 8 9 10 10 9 11 12 12 14 13
REMARK SMILES IDX 13 14
REMARK H PARENT
REMARK Flexibility Score: inf
ROOT
ATOM      1  C   UNL     1       5.510   1.923   1.256  1.00  0.00     0.080 C 
ENDROOT
BRANCH   1   2
ATOM      2  C   UNL     1       5.074   0.706   1.997  1.00  0.00     0.130 C 
ATOM      3  C   UNL     1       5.968  -0.471   2.159  1.00  0.00     0.087 C 
ATOM      4  O   UNL     1       3.962   0.641   2.495  1.00  0.00    -0.300 OA
ENDBRANCH   1   2
BRANCH   1   5
ATOM      5  C   UNL     1       5.387   1.727  -0.243  1.00  0.00     0.043 C 
BRANCH   5   6
ATOM      6  C   UNL     1       6.557   1.024  -0.799  1.00  0.00    -0.044 A 
ATOM      7  C   UNL     1       7.863   1.454  -0.539  1.00  0.00     0.008 A 
ATOM      8  C   UNL     1       6.372  -0.085  -1.593  1.00  0.00     0.054 A 
ATOM      9  C   UNL     1       8.922   0.754  -1.088  1.00  0.00     0.051 A 
ATOM     10  C   UNL     1       7.446  -0.790  -2.145  1.00  0.00     0.166 A 
ATOM     11  C   UNL     1       8.731  -0.367  -1.891  1.00  0.00     0.165 A 
ATOM     12  O   UNL     1       7.522  -1.904  -2.954  1.00  0.00    -0.454 OA
ATOM     13  O   UNL     1       9.579  -1.239  -2.554  1.00  0.00    -0.454 OA
ATOM     14  C   UNL     1       8.858  -2.282  -3.167  1.00  0.00     0.468 C 
ENDBRANCH   5   6
ENDBRANCH   1   5
TORSDOF 3
ENDMDL
MODEL 2
REMARK VINA RESULT:      -7.5      1.914      2.387
REMARK SMILES CC(=O)CCc1ccc2c(c1)OCO2
REMARK SMILES IDX 4 1 2 2 1 3 3 4 5 5 6 6 7 7 11 8 8 9 10 10 9 11 12 12 14 13
REMARK SMILES IDX 13 14
REMARK H PARENT
REMARK Flexibility Score: inf
ROOT
ATOM      1  C   UNL     1       5.741   1.290  -0.319  1.00  0.00     0.080 C 
ENDROOT
BRANCH   1   2
ATOM      2  C   UNL     1       5.200   1.237   1.067  1.00  0.00     0.130 C 
ATOM      3  C   UNL     1       5.461   0.080   1.964  1.00  0.00     0.087 C 
ATOM      4  O   UNL     1       4.520   2.150   1.510  1.00  0.00    -0.300 OA
ENDBRANCH   1   2
BRANCH   1   5
ATOM      5  C   UNL     1       7.245   1.100  -0.330  1.00  0.00     0.043 C 
BRANCH   5   6
ATOM      6  C   UNL     1       7.628  -0.194  -0.924  1.00  0.00    -0.044 A 
ATOM      7  C   UNL     1       7.738  -0.361  -2.309  1.00  0.00     0.008 A 
ATOM      8  C   UNL     1       7.888  -1.269  -0.105  1.00  0.00     0.054 A 
ATOM      9  C   UNL     1       8.102  -1.598  -2.809  1.00  0.00     0.051 A 
ATOM     10  C   UNL     1       8.257  -2.518  -0.615  1.00  0.00     0.166 A 
ATOM     11  C   UNL     1       8.364  -2.684  -1.978  1.00  0.00     0.165 A 
ATOM     12  O   UNL     1       8.562  -3.723  -0.020  1.00  0.00    -0.454 OA
ATOM     13  O   UNL     1       8.738  -4.001  -2.194  1.00  0.00    -0.454 OA
ATOM     14  C   UNL     1       8.963  -4.671  -0.976  1.00  0.00     0.468 C 
ENDBRANCH   5   6
ENDBRANCH   1   5
TORSDOF 3
ENDMDL
MODEL 3
REMARK VINA RESULT:      -7.2      2.091      2.632
REMARK SMILES CC(=O)CCc1ccc2c(c1)OCO2
REMARK SMILES IDX 4 1 2 2 1 3 3 4 5 5 6 6 7 7 11 8 8 9 10 10 9 11 12 12 14 13
REMARK SMILES IDX 13 14
REMARK H PARENT
REMARK Flexibility Score: inf
ROOT
ATOM      1  C   UNL     1       5.552   0.002   1.945  1.00  0.00     0.080 C 
ENDROOT
BRANCH   1   2
ATOM      2  C   UNL     1       4.657   1.152   1.638  1.00  0.00     0.130 C 
ATOM      3  C   UNL     1       4.956   2.099   0.530  1.00  0.00     0.087 C 
ATOM      4  O   UNL     1       3.647   1.353   2.292  1.00  0.00    -0.300 OA
ENDBRANCH   1   2
BRANCH   1   5
ATOM      5  C   UNL     1       6.964   0.257   1.459  1.00  0.00     0.043 C 
BRANCH   5   6
ATOM      6  C   UNL     1       7.369  -0.712   0.424  1.00  0.00    -0.044 A 
ATOM      7  C   UNL     1       7.246  -0.422  -0.940  1.00  0.00     0.008 A 
ATOM      8  C   UNL     1       7.884  -1.932   0.797  1.00  0.00     0.054 A 
ATOM      9  C   UNL     1       7.643  -1.370  -1.865  1.00  0.00     0.051 A 
ATOM     10  C   UNL     1       8.285  -2.887  -0.143  1.00  0.00     0.166 A 
ATOM     11  C   UNL     1       8.163  -2.603  -1.485  1.00  0.00     0.165 A 
ATOM     12  O   UNL     1       8.818  -4.153  -0.028  1.00  0.00    -0.454 OA
ATOM     13  O   UNL     1       8.630  -3.712  -2.173  1.00  0.00    -0.454 OA
ATOM     14  C   UNL     1       9.139  -4.682  -1.289  1.00  0.00     0.468 C 
ENDBRANCH   5   6
ENDBRANCH   1   5
TORSDOF 3
ENDMDL
MODEL 4
REMARK VINA RESULT:      -7.1      1.247      1.451
REMARK SMILES CC(=O)CCc1ccc2c(c1)OCO2
REMARK SMILES IDX 4 1 2 2 1 3 3 4 5 5 6 6 7 7 11 8 8 9 10 10 9 11 12 12 14 13
REMARK SMILES IDX 13 14
REMARK H PARENT
REMARK Flexibility Score: inf
ROOT
ATOM      1  C   UNL     1       6.350   1.224   0.894  1.00  0.00     0.080 C 
ENDROOT
BRANCH   1   2
ATOM      2  C   UNL     1       5.669   0.398   1.930  1.00  0.00     0.130 C 
ATOM      3  C   UNL     1       6.299  -0.828   2.490  1.00  0.00     0.087 C 
ATOM      4  O   UNL     1       4.567   0.707   2.353  1.00  0.00    -0.300 OA
ENDBRANCH   1   2
BRANCH   1   5
ATOM      5  C   UNL     1       5.838   0.895  -0.495  1.00  0.00     0.043 C 
BRANCH   5   6
ATOM      6  C   UNL     1       6.807   0.088  -1.258  1.00  0.00    -0.044 A 
ATOM      7  C   UNL     1       7.523   0.626  -2.333  1.00  0.00     0.008 A 
ATOM      8  C   UNL     1       7.022  -1.226  -0.912  1.00  0.00     0.054 A 
ATOM      9  C   UNL     1       8.419  -0.179  -3.012  1.00  0.00     0.051 A 
ATOM     10  C   UNL     1       7.930  -2.036  -1.600  1.00  0.00     0.166 A 
ATOM     11  C   UNL     1       8.634  -1.508  -2.660  1.00  0.00     0.165 A 
ATOM     12  O   UNL     1       8.315  -3.352  -1.453  1.00  0.00    -0.454 OA
ATOM     13  O   UNL     1       9.447  -2.521  -3.145  1.00  0.00    -0.454 OA
ATOM     14  C   UNL     1       9.343  -3.680  -2.353  1.00  0.00     0.468 C 
ENDBRANCH   5   6
ENDBRANCH   1   5
TORSDOF 3
ENDMDL
MODEL 5
REMARK VINA RESULT:      -6.8      1.923      2.575
REMARK SMILES CC(=O)CCc1ccc2c(c1)OCO2
REMARK SMILES IDX 4 1 2 2 1 3 3 4 5 5 6 6 7 7 11 8 8 9 10 10 9 11 12 12 14 13
REMARK SMILES IDX 13 14
REMARK H PARENT
REMARK Flexibility Score: inf
ROOT
ATOM      1  C   UNL     1       6.988   0.917   0.803  1.00  0.00     0.080 C 
ENDROOT
BRANCH   1   2
ATOM      2  C   UNL     1       5.613   1.160   1.321  1.00  0.00     0.130 C 
ATOM      3  C   UNL     1       4.689   2.121   0.662  1.00  0.00     0.087 C 
ATOM      4  O   UNL     1       5.203   0.575   2.311  1.00  0.00    -0.300 OA
ENDBRANCH   1   2
BRANCH   1   5
ATOM      5  C   UNL     1       7.004   0.871  -0.712  1.00  0.00     0.043 C 
BRANCH   5   6
ATOM      6  C   UNL     1       7.545  -0.405  -1.214  1.00  0.00    -0.044 A 
ATOM      7  C   UNL     1       7.863  -0.586  -2.566  1.00  0.00     0.008 A 
ATOM      8  C   UNL     1       7.749  -1.450  -0.342  1.00  0.00     0.054 A 
ATOM      9  C   UNL     1       8.368  -1.805  -2.979  1.00  0.00     0.051 A 
ATOM     10  C   UNL     1       8.260  -2.681  -0.765  1.00  0.00     0.166 A 
ATOM     11  C   UNL     1       8.572  -2.859  -2.095  1.00  0.00     0.165 A 
ATOM     12  O   UNL     1       8.548  -3.856  -0.104  1.00  0.00    -0.454 OA
ATOM     13  O   UNL     1       9.051  -4.154  -2.223  1.00  0.00    -0.454 OA
ATOM     14  C   UNL     1       9.138  -4.790  -0.971  1.00  0.00     0.468 C 
ENDBRANCH   5   6
ENDBRANCH   1   5
TORSDOF 3
ENDMDL
