@<TRIPOS>MOLECULE
/home/cewinharhar/GITHUB/reincatalyze/data/processed/docking_pred/2023-May-25-1902_sub9_nm5_bs15_s42_ex16_mel10_mts10000_k50_ec01_g099_lra3e-4_lrc3e-3/8651a6b7cbc4b018fd9bb7015a505d05e6fdae34_ligand_9.pdbqt
 14 15 0 0 0
SMALL
GASTEIGER

@<TRIPOS>ATOM
      1  C          5.5100    1.9230    1.2560 C.3     1  UNL1        0.0800
      2  C          5.0740    0.7060    1.9970 C.2     1  UNL1        0.1300
      3  C          5.9680   -0.4710    2.1590 C.3     1  UNL1        0.0870
      4  O          3.9620    0.6410    2.4950 O.2     1  UNL1       -0.3000
      5  C          5.3870    1.7270   -0.2430 C.3     1  UNL1        0.0430
      6  C          6.5570    1.0240   -0.7990 C.2     1  UNL1       -0.0440
      7  C          7.8630    1.4540   -0.5390 C.2     1  UNL1        0.0080
      8  C          6.3720   -0.0850   -1.5930 C.2     1  UNL1        0.0540
      9  C          8.9220    0.7540   -1.0880 C.2     1  UNL1        0.0510
     10  C          7.4460   -0.7900   -2.1450 C.2     1  UNL1        0.1660
     11  C          8.7310   -0.3670   -1.8910 C.2     1  UNL1        0.1650
     12  O          7.5220   -1.9040   -2.9540 O.2     1  UNL1       -0.4540
     13  O          9.5790   -1.2390   -2.5540 O.2     1  UNL1       -0.4540
     14  C          8.8580   -2.2820   -3.1670 C.3     1  UNL1        0.4680
@<TRIPOS>BOND
     1    14    12    1
     2    14    13    1
     3    12    10    1
     4    13    11    1
     5    10    11    2
     6    10     8    1
     7    11     9    1
     8     8     6    2
     9     9     7    2
    10     6     7    1
    11     6     5    1
    12     5     1    1
    13     1     2    1
    14     2     3    1
    15     2     4    2
