@<TRIPOS>MOLECULE
/home/cewinharhar/GITHUB/reincatalyze/data/processed/docking_pred/2023-May-25-1902_sub9_nm5_bs15_s42_ex16_mel10_mts10000_k50_ec01_g099_lra3e-4_lrc3e-3/8651a6b7cbc4b018fd9bb7015a505d05e6fdae34_ligand_9.pdbqt
 14 15 0 0 0
SMALL
GASTEIGER

@<TRIPOS>ATOM
      1  C          6.3500    1.2240    0.8940 C.3     1  UNL1        0.0800
      2  C          5.6690    0.3980    1.9300 C.2     1  UNL1        0.1300
      3  C          6.2990   -0.8280    2.4900 C.3     1  UNL1        0.0870
      4  O          4.5670    0.7070    2.3530 O.2     1  UNL1       -0.3000
      5  C          5.8380    0.8950   -0.4950 C.3     1  UNL1        0.0430
      6  C          6.8070    0.0880   -1.2580 C.2     1  UNL1       -0.0440
      7  C          7.5230    0.6260   -2.3330 C.2     1  UNL1        0.0080
      8  C          7.0220   -1.2260   -0.9120 C.2     1  UNL1        0.0540
      9  C          8.4190   -0.1790   -3.0120 C.2     1  UNL1        0.0510
     10  C          7.9300   -2.0360   -1.6000 C.2     1  UNL1        0.1660
     11  C          8.6340   -1.5080   -2.6600 C.2     1  UNL1        0.1650
     12  O          8.3150   -3.3520   -1.4530 O.2     1  UNL1       -0.4540
     13  O          9.4470   -2.5210   -3.1450 O.2     1  UNL1       -0.4540
     14  C          9.3430   -3.6800   -2.3530 C.3     1  UNL1        0.4680
@<TRIPOS>BOND
     1    13    11    1
     2    13    14    1
     3     9    11    2
     4     9     7    1
     5    11    10    1
     6    14    12    1
     7     7     6    2
     8    10    12    1
     9    10     8    2
    10     6     8    1
    11     6     5    1
    12     5     1    1
    13     1     2    1
    14     2     4    2
    15     2     3    1
