MODEL 1
REMARK VINA RESULT:      -7.7      0.000      0.000
REMARK SMILES CC(=O)CCc1ccc2c(c1)OCO2
REMARK SMILES IDX 4 1 2 2 1 3 3 4 5 5 6 6 7 7 11 8 8 9 10 10 9 11 12 12 14 13
REMARK SMILES IDX 13 14
REMARK H PARENT
REMARK Flexibility Score: inf
ROOT
ATOM      1  C   UNL     1       5.520   1.924   1.249  1.00  0.00     0.080 C 
ENDROOT
BRANCH   1   2
ATOM      2  C   UNL     1       5.053   0.721   1.993  1.00  0.00     0.130 C 
ATOM      3  C   UNL     1       5.910  -0.485   2.146  1.00  0.00     0.087 C 
ATOM      4  O   UNL     1       3.944   0.692   2.503  1.00  0.00    -0.300 OA
ENDBRANCH   1   2
BRANCH   1   5
ATOM      5  C   UNL     1       5.397   1.726  -0.249  1.00  0.00     0.043 C 
BRANCH   5   6
ATOM      6  C   UNL     1       6.567   1.024  -0.805  1.00  0.00    -0.044 A 
ATOM      7  C   UNL     1       7.873   1.455  -0.545  1.00  0.00     0.008 A 
ATOM      8  C   UNL     1       6.383  -0.085  -1.599  1.00  0.00     0.054 A 
ATOM      9  C   UNL     1       8.932   0.756  -1.094  1.00  0.00     0.051 A 
ATOM     10  C   UNL     1       7.457  -0.789  -2.151  1.00  0.00     0.166 A 
ATOM     11  C   UNL     1       8.743  -0.365  -1.897  1.00  0.00     0.165 A 
ATOM     12  O   UNL     1       7.535  -1.903  -2.960  1.00  0.00    -0.454 OA
ATOM     13  O   UNL     1       9.591  -1.237  -2.561  1.00  0.00    -0.454 OA
ATOM     14  C   UNL     1       8.871  -2.280  -3.172  1.00  0.00     0.468 C 
ENDBRANCH   5   6
ENDBRANCH   1   5
TORSDOF 3
ENDMDL
MODEL 2
REMARK VINA RESULT:      -7.4      1.792      2.204
REMARK SMILES CC(=O)CCc1ccc2c(c1)OCO2
REMARK SMILES IDX 4 1 2 2 1 3 3 4 5 5 6 6 7 7 11 8 8 9 10 10 9 11 12 12 14 13
REMARK SMILES IDX 13 14
REMARK H PARENT
REMARK Flexibility Score: inf
ROOT
ATOM      1  C   UNL     1       5.611   1.496  -0.154  1.00  0.00     0.080 C 
ENDROOT
BRANCH   1   2
ATOM      2  C   UNL     1       4.971   1.253   1.169  1.00  0.00     0.130 C 
ATOM      3  C   UNL     1       5.379   0.115   2.036  1.00  0.00     0.087 C 
ATOM      4  O   UNL     1       4.087   1.986   1.582  1.00  0.00    -0.300 OA
ENDBRANCH   1   2
BRANCH   1   5
ATOM      5  C   UNL     1       7.105   1.247  -0.096  1.00  0.00     0.043 C 
BRANCH   5   6
ATOM      6  C   UNL     1       7.477  -0.005  -0.779  1.00  0.00    -0.044 A 
ATOM      7  C   UNL     1       7.466  -0.110  -2.175  1.00  0.00     0.008 A 
ATOM      8  C   UNL     1       7.847  -1.103  -0.036  1.00  0.00     0.054 A 
ATOM      9  C   UNL     1       7.825  -1.311  -2.760  1.00  0.00     0.051 A 
ATOM     10  C   UNL     1       8.210  -2.315  -0.633  1.00  0.00     0.166 A 
ATOM     11  C   UNL     1       8.199  -2.419  -2.006  1.00  0.00     0.165 A 
ATOM     12  O   UNL     1       8.610  -3.531  -0.122  1.00  0.00    -0.454 OA
ATOM     13  O   UNL     1       8.597  -3.711  -2.313  1.00  0.00    -0.454 OA
ATOM     14  C   UNL     1       8.954  -4.422  -1.152  1.00  0.00     0.468 C 
ENDBRANCH   5   6
ENDBRANCH   1   5
TORSDOF 3
ENDMDL
MODEL 3
REMARK VINA RESULT:      -7.2      2.041      2.620
REMARK SMILES CC(=O)CCc1ccc2c(c1)OCO2
REMARK SMILES IDX 4 1 2 2 1 3 3 4 5 5 6 6 7 7 11 8 8 9 10 10 9 11 12 12 14 13
REMARK SMILES IDX 13 14
REMARK H PARENT
REMARK Flexibility Score: inf
ROOT
ATOM      1  C   UNL     1       5.372  -0.089   2.015  1.00  0.00     0.080 C 
ENDROOT
BRANCH   1   2
ATOM      2  C   UNL     1       4.549   1.129   1.775  1.00  0.00     0.130 C 
ATOM      3  C   UNL     1       4.907   2.119   0.724  1.00  0.00     0.087 C 
ATOM      4  O   UNL     1       3.550   1.352   2.440  1.00  0.00    -0.300 OA
ENDBRANCH   1   2
BRANCH   1   5
ATOM      5  C   UNL     1       6.822   0.144   1.640  1.00  0.00     0.043 C 
BRANCH   5   6
ATOM      6  C   UNL     1       7.258  -0.758   0.559  1.00  0.00    -0.044 A 
ATOM      7  C   UNL     1       7.137  -0.400  -0.789  1.00  0.00     0.008 A 
ATOM      8  C   UNL     1       7.802  -1.984   0.871  1.00  0.00     0.054 A 
ATOM      9  C   UNL     1       7.564  -1.287  -1.760  1.00  0.00     0.051 A 
ATOM     10  C   UNL     1       8.233  -2.877  -0.115  1.00  0.00     0.166 A 
ATOM     11  C   UNL     1       8.112  -2.526  -1.441  1.00  0.00     0.165 A 
ATOM     12  O   UNL     1       8.797  -4.134  -0.062  1.00  0.00    -0.454 OA
ATOM     13  O   UNL     1       8.612  -3.585  -2.183  1.00  0.00    -0.454 OA
ATOM     14  C   UNL     1       9.139  -4.587  -1.347  1.00  0.00     0.468 C 
ENDBRANCH   5   6
ENDBRANCH   1   5
TORSDOF 3
ENDMDL
MODEL 4
REMARK VINA RESULT:      -7.1      1.971      2.547
REMARK SMILES CC(=O)CCc1ccc2c(c1)OCO2
REMARK SMILES IDX 4 1 2 2 1 3 3 4 5 5 6 6 7 7 11 8 8 9 10 10 9 11 12 12 14 13
REMARK SMILES IDX 13 14
REMARK H PARENT
REMARK Flexibility Score: inf
ROOT
ATOM      1  C   UNL     1       6.844   0.800   1.216  1.00  0.00     0.080 C 
ENDROOT
BRANCH   1   2
ATOM      2  C   UNL     1       5.424   1.224   1.368  1.00  0.00     0.130 C 
ATOM      3  C   UNL     1       4.777   2.150   0.401  1.00  0.00     0.087 C 
ATOM      4  O   UNL     1       4.746   0.820   2.300  1.00  0.00    -0.300 OA
ENDBRANCH   1   2
BRANCH   1   5
ATOM      5  C   UNL     1       7.325   0.991  -0.209  1.00  0.00     0.043 C 
BRANCH   5   6
ATOM      6  C   UNL     1       7.709  -0.288  -0.832  1.00  0.00    -0.044 A 
ATOM      7  C   UNL     1       7.819  -0.423  -2.220  1.00  0.00     0.008 A 
ATOM      8  C   UNL     1       7.972  -1.382  -0.038  1.00  0.00     0.054 A 
ATOM      9  C   UNL     1       8.184  -1.648  -2.749  1.00  0.00     0.051 A 
ATOM     10  C   UNL     1       8.341  -2.618  -0.577  1.00  0.00     0.166 A 
ATOM     11  C   UNL     1       8.447  -2.752  -1.944  1.00  0.00     0.165 A 
ATOM     12  O   UNL     1       8.648  -3.836  -0.010  1.00  0.00    -0.454 OA
ATOM     13  O   UNL     1       8.823  -4.063  -2.190  1.00  0.00    -0.454 OA
ATOM     14  C   UNL     1       9.049  -4.761  -0.988  1.00  0.00     0.468 C 
ENDBRANCH   5   6
ENDBRANCH   1   5
TORSDOF 3
ENDMDL
MODEL 5
REMARK VINA RESULT:      -7.1      1.260      1.454
REMARK SMILES CC(=O)CCc1ccc2c(c1)OCO2
REMARK SMILES IDX 4 1 2 2 1 3 3 4 5 5 6 6 7 7 11 8 8 9 10 10 9 11 12 12 14 13
REMARK SMILES IDX 13 14
REMARK H PARENT
REMARK Flexibility Score: inf
ROOT
ATOM      1  C   UNL     1       6.363   1.222   0.964  1.00  0.00     0.080 C 
ENDROOT
BRANCH   1   2
ATOM      2  C   UNL     1       5.658   0.363   1.956  1.00  0.00     0.130 C 
ATOM      3  C   UNL     1       6.289  -0.863   2.515  1.00  0.00     0.087 C 
ATOM      4  O   UNL     1       4.534   0.642   2.340  1.00  0.00    -0.300 OA
ENDBRANCH   1   2
BRANCH   1   5
ATOM      5  C   UNL     1       5.855   0.971  -0.442  1.00  0.00     0.043 C 
BRANCH   5   6
ATOM      6  C   UNL     1       6.790   0.138  -1.219  1.00  0.00    -0.044 A 
ATOM      7  C   UNL     1       7.456   0.638  -2.344  1.00  0.00     0.008 A 
ATOM      8  C   UNL     1       7.023  -1.164  -0.838  1.00  0.00     0.054 A 
ATOM      9  C   UNL     1       8.322  -0.189  -3.035  1.00  0.00     0.051 A 
ATOM     10  C   UNL     1       7.900  -1.997  -1.539  1.00  0.00     0.166 A 
ATOM     11  C   UNL     1       8.555  -1.505  -2.647  1.00  0.00     0.165 A 
ATOM     12  O   UNL     1       8.294  -3.306  -1.365  1.00  0.00    -0.454 OA
ATOM     13  O   UNL     1       9.346  -2.534  -3.133  1.00  0.00    -0.454 OA
ATOM     14  C   UNL     1       9.281  -3.665  -2.298  1.00  0.00     0.468 C 
ENDBRANCH   5   6
ENDBRANCH   1   5
TORSDOF 3
ENDMDL
