@<TRIPOS>MOLECULE
/home/cewinharhar/GITHUB/reincatalyze/data/processed/docking_pred/2023-May-25-1902_sub9_nm5_bs15_s42_ex16_mel10_mts10000_k50_ec01_g099_lra3e-4_lrc3e-3/8661fd9255216a1bb5e9ca220c53eba31bd54736_ligand_9.pdbqt
 14 15 0 0 0
SMALL
GASTEIGER

@<TRIPOS>ATOM
      1  C          5.3720   -0.0890    2.0150 C.3     1  UNL1        0.0800
      2  C          4.5490    1.1290    1.7750 C.2     1  UNL1        0.1300
      3  C          4.9070    2.1190    0.7240 C.3     1  UNL1        0.0870
      4  O          3.5500    1.3520    2.4400 O.2     1  UNL1       -0.3000
      5  C          6.8220    0.1440    1.6400 C.3     1  UNL1        0.0430
      6  C          7.2580   -0.7580    0.5590 C.2     1  UNL1       -0.0440
      7  C          7.1370   -0.4000   -0.7890 C.2     1  UNL1        0.0080
      8  C          7.8020   -1.9840    0.8710 C.2     1  UNL1        0.0540
      9  C          7.5640   -1.2870   -1.7600 C.2     1  UNL1        0.0510
     10  C          8.2330   -2.8770   -0.1150 C.2     1  UNL1        0.1660
     11  C          8.1120   -2.5260   -1.4410 C.2     1  UNL1        0.1650
     12  O          8.7970   -4.1340   -0.0620 O.2     1  UNL1       -0.4540
     13  O          8.6120   -3.5850   -2.1830 O.2     1  UNL1       -0.4540
     14  C          9.1390   -4.5870   -1.3470 C.3     1  UNL1        0.4680
@<TRIPOS>BOND
     1    13    11    1
     2    13    14    1
     3     9    11    2
     4     9     7    1
     5    11    10    1
     6    14    12    1
     7     7     6    2
     8    10    12    1
     9    10     8    2
    10     6     8    1
    11     6     5    1
    12     3     2    1
    13     5     1    1
    14     2     1    1
    15     2     4    2
