@<TRIPOS>MOLECULE
/home/cewinharhar/GITHUB/reincatalyze/data/processed/docking_pred/2023-May-25-1902_sub9_nm5_bs15_s42_ex16_mel10_mts10000_k50_ec01_g099_lra3e-4_lrc3e-3/8661fd9255216a1bb5e9ca220c53eba31bd54736_ligand_9.pdbqt
 14 15 0 0 0
SMALL
GASTEIGER

@<TRIPOS>ATOM
      1  C          5.5200    1.9240    1.2490 C.3     1  UNL1        0.0800
      2  C          5.0530    0.7210    1.9930 C.2     1  UNL1        0.1300
      3  C          5.9100   -0.4850    2.1460 C.3     1  UNL1        0.0870
      4  O          3.9440    0.6920    2.5030 O.2     1  UNL1       -0.3000
      5  C          5.3970    1.7260   -0.2490 C.3     1  UNL1        0.0430
      6  C          6.5670    1.0240   -0.8050 C.2     1  UNL1       -0.0440
      7  C          7.8730    1.4550   -0.5450 C.2     1  UNL1        0.0080
      8  C          6.3830   -0.0850   -1.5990 C.2     1  UNL1        0.0540
      9  C          8.9320    0.7560   -1.0940 C.2     1  UNL1        0.0510
     10  C          7.4570   -0.7890   -2.1510 C.2     1  UNL1        0.1660
     11  C          8.7430   -0.3650   -1.8970 C.2     1  UNL1        0.1650
     12  O          7.5350   -1.9030   -2.9600 O.2     1  UNL1       -0.4540
     13  O          9.5910   -1.2370   -2.5610 O.2     1  UNL1       -0.4540
     14  C          8.8710   -2.2800   -3.1720 C.3     1  UNL1        0.4680
@<TRIPOS>BOND
     1    14    12    1
     2    14    13    1
     3    12    10    1
     4    13    11    1
     5    10    11    2
     6    10     8    1
     7    11     9    1
     8     8     6    2
     9     9     7    2
    10     6     7    1
    11     6     5    1
    12     5     1    1
    13     1     2    1
    14     2     3    1
    15     2     4    2
