MODEL 1
REMARK VINA RESULT:      -7.7      0.000      0.000
REMARK SMILES CC(=O)CCc1ccc2c(c1)OCO2
REMARK SMILES IDX 4 1 2 2 1 3 3 4 5 5 6 6 7 7 11 8 8 9 10 10 9 11 12 12 14 13
REMARK SMILES IDX 13 14
REMARK H PARENT
REMARK Flexibility Score: inf
ROOT
ATOM      1  C   UNL     1       5.495   1.935   1.258  1.00  0.00     0.080 C 
ENDROOT
BRANCH   1   2
ATOM      2  C   UNL     1       5.057   0.719   1.999  1.00  0.00     0.130 C 
ATOM      3  C   UNL     1       5.941  -0.467   2.145  1.00  0.00     0.087 C 
ATOM      4  O   UNL     1       3.950   0.663   2.511  1.00  0.00    -0.300 OA
ENDBRANCH   1   2
BRANCH   1   5
ATOM      5  C   UNL     1       5.375   1.739  -0.241  1.00  0.00     0.043 C 
BRANCH   5   6
ATOM      6  C   UNL     1       6.548   1.041  -0.796  1.00  0.00    -0.044 A 
ATOM      7  C   UNL     1       7.852   1.479  -0.537  1.00  0.00     0.008 A 
ATOM      8  C   UNL     1       6.370  -0.071  -1.587  1.00  0.00     0.054 A 
ATOM      9  C   UNL     1       8.915   0.784  -1.085  1.00  0.00     0.051 A 
ATOM     10  C   UNL     1       7.447  -0.771  -2.138  1.00  0.00     0.166 A 
ATOM     11  C   UNL     1       8.730  -0.339  -1.885  1.00  0.00     0.165 A 
ATOM     12  O   UNL     1       7.530  -1.886  -2.945  1.00  0.00    -0.454 OA
ATOM     13  O   UNL     1       9.583  -1.208  -2.547  1.00  0.00    -0.454 OA
ATOM     14  C   UNL     1       8.868  -2.257  -3.157  1.00  0.00     0.468 C 
ENDBRANCH   5   6
ENDBRANCH   1   5
TORSDOF 3
ENDMDL
MODEL 2
REMARK VINA RESULT:      -7.1      1.283      1.517
REMARK SMILES CC(=O)CCc1ccc2c(c1)OCO2
REMARK SMILES IDX 4 1 2 2 1 3 3 4 5 5 6 6 7 7 11 8 8 9 10 10 9 11 12 12 14 13
REMARK SMILES IDX 13 14
REMARK H PARENT
REMARK Flexibility Score: inf
ROOT
ATOM      1  C   UNL     1       6.429   1.150   0.952  1.00  0.00     0.080 C 
ENDROOT
BRANCH   1   2
ATOM      2  C   UNL     1       5.670   0.331   1.938  1.00  0.00     0.130 C 
ATOM      3  C   UNL     1       6.244  -0.906   2.532  1.00  0.00     0.087 C 
ATOM      4  O   UNL     1       4.547   0.655   2.289  1.00  0.00    -0.300 OA
ENDBRANCH   1   2
BRANCH   1   5
ATOM      5  C   UNL     1       5.933   0.911  -0.460  1.00  0.00     0.043 C 
BRANCH   5   6
ATOM      6  C   UNL     1       6.867   0.073  -1.233  1.00  0.00    -0.044 A 
ATOM      7  C   UNL     1       7.550   0.573  -2.347  1.00  0.00     0.008 A 
ATOM      8  C   UNL     1       7.083  -1.233  -0.857  1.00  0.00     0.054 A 
ATOM      9  C   UNL     1       8.415  -0.259  -3.033  1.00  0.00     0.051 A 
ATOM     10  C   UNL     1       7.959  -2.071  -1.554  1.00  0.00     0.166 A 
ATOM     11  C   UNL     1       8.630  -1.580  -2.651  1.00  0.00     0.165 A 
ATOM     12  O   UNL     1       8.338  -3.386  -1.383  1.00  0.00    -0.454 OA
ATOM     13  O   UNL     1       9.417  -2.613  -3.136  1.00  0.00    -0.454 OA
ATOM     14  C   UNL     1       9.330  -3.749  -2.308  1.00  0.00     0.468 C 
ENDBRANCH   5   6
ENDBRANCH   1   5
TORSDOF 3
ENDMDL
MODEL 3
REMARK VINA RESULT:      -7.0      1.621      1.935
REMARK SMILES CC(=O)CCc1ccc2c(c1)OCO2
REMARK SMILES IDX 4 1 2 2 1 3 3 4 5 5 6 6 7 7 11 8 8 9 10 10 9 11 12 12 14 13
REMARK SMILES IDX 13 14
REMARK H PARENT
REMARK Flexibility Score: inf
ROOT
ATOM      1  C   UNL     1       5.411   1.670   0.124  1.00  0.00     0.080 C 
ENDROOT
BRANCH   1   2
ATOM      2  C   UNL     1       4.823   1.200   1.409  1.00  0.00     0.130 C 
ATOM      3  C   UNL     1       5.373   0.025   2.136  1.00  0.00     0.087 C 
ATOM      4  O   UNL     1       3.864   1.770   1.904  1.00  0.00    -0.300 OA
ENDBRANCH   1   2
BRANCH   1   5
ATOM      5  C   UNL     1       6.916   1.487   0.108  1.00  0.00     0.043 C 
BRANCH   5   6
ATOM      6  C   UNL     1       7.315   0.298  -0.665  1.00  0.00    -0.044 A 
ATOM      7  C   UNL     1       7.341   0.309  -2.065  1.00  0.00     0.008 A 
ATOM      8  C   UNL     1       7.675  -0.855  -0.007  1.00  0.00     0.054 A 
ATOM      9  C   UNL     1       7.725  -0.837  -2.738  1.00  0.00     0.051 A 
ATOM     10  C   UNL     1       8.063  -2.011  -0.691  1.00  0.00     0.166 A 
ATOM     11  C   UNL     1       8.087  -2.001  -2.068  1.00  0.00     0.165 A 
ATOM     12  O   UNL     1       8.459  -3.263  -0.272  1.00  0.00    -0.454 OA
ATOM     13  O   UNL     1       8.503  -3.261  -2.470  1.00  0.00    -0.454 OA
ATOM     14  C   UNL     1       8.837  -4.064  -1.363  1.00  0.00     0.468 C 
ENDBRANCH   5   6
ENDBRANCH   1   5
TORSDOF 3
ENDMDL
MODEL 4
REMARK VINA RESULT:      -6.9      1.753      2.367
REMARK SMILES CC(=O)CCc1ccc2c(c1)OCO2
REMARK SMILES IDX 4 1 2 2 1 3 3 4 5 5 6 6 7 7 11 8 8 9 10 10 9 11 12 12 14 13
REMARK SMILES IDX 13 14
REMARK H PARENT
REMARK Flexibility Score: inf
ROOT
ATOM      1  C   UNL     1       5.343  -0.067   2.026  1.00  0.00     0.080 C 
ENDROOT
BRANCH   1   2
ATOM      2  C   UNL     1       4.538   1.159   1.762  1.00  0.00     0.130 C 
ATOM      3  C   UNL     1       4.941   2.150   0.729  1.00  0.00     0.087 C 
ATOM      4  O   UNL     1       3.518   1.386   2.393  1.00  0.00    -0.300 OA
ENDBRANCH   1   2
BRANCH   1   5
ATOM      5  C   UNL     1       6.799   0.141   1.659  1.00  0.00     0.043 C 
BRANCH   5   6
ATOM      6  C   UNL     1       7.172  -0.619   0.452  1.00  0.00    -0.044 A 
ATOM      7  C   UNL     1       6.958  -0.105  -0.832  1.00  0.00     0.008 A 
ATOM      8  C   UNL     1       7.747  -1.863   0.579  1.00  0.00     0.054 A 
ATOM      9  C   UNL     1       7.329  -0.863  -1.928  1.00  0.00     0.051 A 
ATOM     10  C   UNL     1       8.121  -2.624  -0.532  1.00  0.00     0.166 A 
ATOM     11  C   UNL     1       7.910  -2.120  -1.796  1.00  0.00     0.165 A 
ATOM     12  O   UNL     1       8.701  -3.868  -0.666  1.00  0.00    -0.454 OA
ATOM     13  O   UNL     1       8.370  -3.075  -2.690  1.00  0.00    -0.454 OA
ATOM     14  C   UNL     1       8.962  -4.159  -2.015  1.00  0.00     0.468 C 
ENDBRANCH   5   6
ENDBRANCH   1   5
TORSDOF 3
ENDMDL
MODEL 5
REMARK VINA RESULT:      -6.8      1.186      5.177
REMARK SMILES CC(=O)CCc1ccc2c(c1)OCO2
REMARK SMILES IDX 4 1 2 2 1 3 3 4 5 5 6 6 7 7 11 8 8 9 10 10 9 11 12 12 14 13
REMARK SMILES IDX 13 14
REMARK H PARENT
REMARK Flexibility Score: inf
ROOT
ATOM      1  C   UNL     1       8.357   0.209  -2.611  1.00  0.00     0.080 C 
ENDROOT
BRANCH   1   2
ATOM      2  C   UNL     1       8.056  -1.246  -2.724  1.00  0.00     0.130 C 
ATOM      3  C   UNL     1       9.119  -2.242  -3.024  1.00  0.00     0.087 C 
ATOM      4  O   UNL     1       6.920  -1.665  -2.573  1.00  0.00    -0.300 OA
ENDBRANCH   1   2
BRANCH   1   5
ATOM      5  C   UNL     1       8.869   0.559  -1.227  1.00  0.00     0.043 C 
BRANCH   5   6
ATOM      6  C   UNL     1       7.818   0.420  -0.204  1.00  0.00    -0.044 A 
ATOM      7  C   UNL     1       7.898  -0.549   0.803  1.00  0.00     0.008 A 
ATOM      8  C   UNL     1       6.727   1.259  -0.228  1.00  0.00     0.054 A 
ATOM      9  C   UNL     1       6.882  -0.632   1.737  1.00  0.00     0.051 A 
ATOM     10  C   UNL     1       5.702   1.172   0.719  1.00  0.00     0.166 A 
ATOM     11  C   UNL     1       5.780   0.218   1.709  1.00  0.00     0.165 A 
ATOM     12  O   UNL     1       4.533   1.878   0.906  1.00  0.00    -0.454 OA
ATOM     13  O   UNL     1       4.646   0.361   2.493  1.00  0.00    -0.454 OA
ATOM     14  C   UNL     1       3.873   1.460   2.074  1.00  0.00     0.468 C 
ENDBRANCH   5   6
ENDBRANCH   1   5
TORSDOF 3
ENDMDL
