@<TRIPOS>MOLECULE
/home/cewinharhar/GITHUB/reincatalyze/data/processed/docking_pred/2023-May-25-1902_sub9_nm5_bs15_s42_ex16_mel10_mts10000_k50_ec01_g099_lra3e-4_lrc3e-3/87c24324279ed01ab1d4888e5c128f335f215516_ligand_9.pdbqt
 14 15 0 0 0
SMALL
GASTEIGER

@<TRIPOS>ATOM
      1  C          5.3430   -0.0670    2.0260 C.3     1  UNL1        0.0800
      2  C          4.5380    1.1590    1.7620 C.2     1  UNL1        0.1300
      3  C          4.9410    2.1500    0.7290 C.3     1  UNL1        0.0870
      4  O          3.5180    1.3860    2.3930 O.2     1  UNL1       -0.3000
      5  C          6.7990    0.1410    1.6590 C.3     1  UNL1        0.0430
      6  C          7.1720   -0.6190    0.4520 C.2     1  UNL1       -0.0440
      7  C          6.9580   -0.1050   -0.8320 C.2     1  UNL1        0.0080
      8  C          7.7470   -1.8630    0.5790 C.2     1  UNL1        0.0540
      9  C          7.3290   -0.8630   -1.9280 C.2     1  UNL1        0.0510
     10  C          8.1210   -2.6240   -0.5320 C.2     1  UNL1        0.1660
     11  C          7.9100   -2.1200   -1.7960 C.2     1  UNL1        0.1650
     12  O          8.7010   -3.8680   -0.6660 O.2     1  UNL1       -0.4540
     13  O          8.3700   -3.0750   -2.6900 O.2     1  UNL1       -0.4540
     14  C          8.9620   -4.1590   -2.0150 C.3     1  UNL1        0.4680
@<TRIPOS>BOND
     1    13    14    1
     2    13    11    1
     3    14    12    1
     4     9    11    2
     5     9     7    1
     6    11    10    1
     7     7     6    2
     8    12    10    1
     9    10     8    2
    10     6     8    1
    11     6     5    1
    12     3     2    1
    13     5     1    1
    14     2     1    1
    15     2     4    2
