@<TRIPOS>MOLECULE
/home/cewinharhar/GITHUB/reincatalyze/data/processed/docking_pred/2023-May-25-1902_sub9_nm5_bs15_s42_ex16_mel10_mts10000_k50_ec01_g099_lra3e-4_lrc3e-3/87c24324279ed01ab1d4888e5c128f335f215516_ligand_9.pdbqt
 14 15 0 0 0
SMALL
GASTEIGER

@<TRIPOS>ATOM
      1  C          6.4290    1.1500    0.9520 C.3     1  UNL1        0.0800
      2  C          5.6700    0.3310    1.9380 C.2     1  UNL1        0.1300
      3  C          6.2440   -0.9060    2.5320 C.3     1  UNL1        0.0870
      4  O          4.5470    0.6550    2.2890 O.2     1  UNL1       -0.3000
      5  C          5.9330    0.9110   -0.4600 C.3     1  UNL1        0.0430
      6  C          6.8670    0.0730   -1.2330 C.2     1  UNL1       -0.0440
      7  C          7.5500    0.5730   -2.3470 C.2     1  UNL1        0.0080
      8  C          7.0830   -1.2330   -0.8570 C.2     1  UNL1        0.0540
      9  C          8.4150   -0.2590   -3.0330 C.2     1  UNL1        0.0510
     10  C          7.9590   -2.0710   -1.5540 C.2     1  UNL1        0.1660
     11  C          8.6300   -1.5800   -2.6510 C.2     1  UNL1        0.1650
     12  O          8.3380   -3.3860   -1.3830 O.2     1  UNL1       -0.4540
     13  O          9.4170   -2.6130   -3.1360 O.2     1  UNL1       -0.4540
     14  C          9.3300   -3.7490   -2.3080 C.3     1  UNL1        0.4680
@<TRIPOS>BOND
     1    13    11    1
     2    13    14    1
     3     9    11    2
     4     9     7    1
     5    11    10    1
     6     7     6    2
     7    14    12    1
     8    10    12    1
     9    10     8    2
    10     6     8    1
    11     6     5    1
    12     5     1    1
    13     1     2    1
    14     2     4    2
    15     2     3    1
