@<TRIPOS>MOLECULE
/home/cewinharhar/GITHUB/reincatalyze/data/processed/docking_pred/2023-May-25-1902_sub9_nm5_bs15_s42_ex16_mel10_mts10000_k50_ec01_g099_lra3e-4_lrc3e-3/87c24324279ed01ab1d4888e5c128f335f215516_ligand_9.pdbqt
 14 15 0 0 0
SMALL
GASTEIGER

@<TRIPOS>ATOM
      1  C          5.4110    1.6700    0.1240 C.3     1  UNL1        0.0800
      2  C          4.8230    1.2000    1.4090 C.2     1  UNL1        0.1300
      3  C          5.3730    0.0250    2.1360 C.3     1  UNL1        0.0870
      4  O          3.8640    1.7700    1.9040 O.2     1  UNL1       -0.3000
      5  C          6.9160    1.4870    0.1080 C.3     1  UNL1        0.0430
      6  C          7.3150    0.2980   -0.6650 C.2     1  UNL1       -0.0440
      7  C          7.3410    0.3090   -2.0650 C.2     1  UNL1        0.0080
      8  C          7.6750   -0.8550   -0.0070 C.2     1  UNL1        0.0540
      9  C          7.7250   -0.8370   -2.7380 C.2     1  UNL1        0.0510
     10  C          8.0630   -2.0110   -0.6910 C.2     1  UNL1        0.1660
     11  C          8.0870   -2.0010   -2.0680 C.2     1  UNL1        0.1650
     12  O          8.4590   -3.2630   -0.2720 O.2     1  UNL1       -0.4540
     13  O          8.5030   -3.2610   -2.4700 O.2     1  UNL1       -0.4540
     14  C          8.8370   -4.0640   -1.3630 C.3     1  UNL1        0.4680
@<TRIPOS>BOND
     1     9    11    2
     2     9     7    1
     3    13    11    1
     4    13    14    1
     5    11    10    1
     6     7     6    2
     7    14    12    1
     8    10    12    1
     9    10     8    2
    10     6     8    1
    11     6     5    1
    12     5     1    1
    13     1     2    1
    14     2     4    2
    15     2     3    1
