@<TRIPOS>MOLECULE
/home/cewinharhar/GITHUB/reincatalyze/data/processed/docking_pred/2023-May-25-1902_sub9_nm5_bs15_s42_ex16_mel10_mts10000_k50_ec01_g099_lra3e-4_lrc3e-3/87c24324279ed01ab1d4888e5c128f335f215516_ligand_9.pdbqt
 14 15 0 0 0
SMALL
GASTEIGER

@<TRIPOS>ATOM
      1  C          5.4950    1.9350    1.2580 C.3     1  UNL1        0.0800
      2  C          5.0570    0.7190    1.9990 C.2     1  UNL1        0.1300
      3  C          5.9410   -0.4670    2.1450 C.3     1  UNL1        0.0870
      4  O          3.9500    0.6630    2.5110 O.2     1  UNL1       -0.3000
      5  C          5.3750    1.7390   -0.2410 C.3     1  UNL1        0.0430
      6  C          6.5480    1.0410   -0.7960 C.2     1  UNL1       -0.0440
      7  C          7.8520    1.4790   -0.5370 C.2     1  UNL1        0.0080
      8  C          6.3700   -0.0710   -1.5870 C.2     1  UNL1        0.0540
      9  C          8.9150    0.7840   -1.0850 C.2     1  UNL1        0.0510
     10  C          7.4470   -0.7710   -2.1380 C.2     1  UNL1        0.1660
     11  C          8.7300   -0.3390   -1.8850 C.2     1  UNL1        0.1650
     12  O          7.5300   -1.8860   -2.9450 O.2     1  UNL1       -0.4540
     13  O          9.5830   -1.2080   -2.5470 O.2     1  UNL1       -0.4540
     14  C          8.8680   -2.2570   -3.1570 C.3     1  UNL1        0.4680
@<TRIPOS>BOND
     1    14    12    1
     2    14    13    1
     3    12    10    1
     4    13    11    1
     5    10    11    2
     6    10     8    1
     7    11     9    1
     8     8     6    2
     9     9     7    2
    10     6     7    1
    11     6     5    1
    12     5     1    1
    13     1     2    1
    14     2     3    1
    15     2     4    2
