@<TRIPOS>MOLECULE
/home/cewinharhar/GITHUB/reincatalyze/data/processed/docking_pred/2023-May-25-1902_sub9_nm5_bs15_s42_ex16_mel10_mts10000_k50_ec01_g099_lra3e-4_lrc3e-3/87c24324279ed01ab1d4888e5c128f335f215516_ligand_9.pdbqt
 14 15 0 0 0
SMALL
GASTEIGER

@<TRIPOS>ATOM
      1  C          8.3570    0.2090   -2.6110 C.3     1  UNL1        0.0800
      2  C          8.0560   -1.2460   -2.7240 C.2     1  UNL1        0.1300
      3  C          9.1190   -2.2420   -3.0240 C.3     1  UNL1        0.0870
      4  O          6.9200   -1.6650   -2.5730 O.2     1  UNL1       -0.3000
      5  C          8.8690    0.5590   -1.2270 C.3     1  UNL1        0.0430
      6  C          7.8180    0.4200   -0.2040 C.2     1  UNL1       -0.0440
      7  C          7.8980   -0.5490    0.8030 C.2     1  UNL1        0.0080
      8  C          6.7270    1.2590   -0.2280 C.2     1  UNL1        0.0540
      9  C          6.8820   -0.6320    1.7370 C.2     1  UNL1        0.0510
     10  C          5.7020    1.1720    0.7190 C.2     1  UNL1        0.1660
     11  C          5.7800    0.2180    1.7090 C.2     1  UNL1        0.1650
     12  O          4.5330    1.8780    0.9060 O.2     1  UNL1       -0.4540
     13  O          4.6460    0.3610    2.4930 O.2     1  UNL1       -0.4540
     14  C          3.8730    1.4600    2.0740 C.3     1  UNL1        0.4680
@<TRIPOS>BOND
     1     3     2    1
     2     2     1    1
     3     2     4    2
     4     1     5    1
     5     5     6    1
     6     8     6    2
     7     8    10    1
     8     6     7    1
     9    10    12    1
    10    10    11    2
    11     7     9    2
    12    12    14    1
    13    11     9    1
    14    11    13    1
    15    14    13    1
