@<TRIPOS>MOLECULE
/home/cewinharhar/GITHUB/reincatalyze/data/processed/docking_pred/2023-May-25-1902_sub9_nm5_bs15_s42_ex16_mel10_mts10000_k50_ec01_g099_lra3e-4_lrc3e-3/88c4e0f8a026884e113c16f062f94e0c253125d7_ligand_9.pdbqt
 14 15 0 0 0
SMALL
GASTEIGER

@<TRIPOS>ATOM
      1  C          5.8160    1.3850   -0.2940 C.3     1  UNL1        0.0800
      2  C          5.2350    1.2690    1.0720 C.2     1  UNL1        0.1300
      3  C          5.4930    0.0820    1.9320 C.3     1  UNL1        0.0870
      4  O          4.5250    2.1500    1.5290 O.2     1  UNL1       -0.3000
      5  C          7.3080    1.1200   -0.2830 C.3     1  UNL1        0.0430
      6  C          7.6380   -0.1760   -0.9040 C.2     1  UNL1       -0.0440
      7  C          7.6410   -0.3430   -2.2930 C.2     1  UNL1        0.0080
      8  C          7.9530   -1.2530   -0.1070 C.2     1  UNL1        0.0540
      9  C          7.9590   -1.5820   -2.8190 C.2     1  UNL1        0.0510
     10  C          8.2750   -2.5040   -0.6440 C.2     1  UNL1        0.1660
     11  C          8.2770   -2.6690   -2.0110 C.2     1  UNL1        0.1650
     12  O          8.6170   -3.7110   -0.0740 O.2     1  UNL1       -0.4540
     13  O          8.6260   -3.9880   -2.2550 O.2     1  UNL1       -0.4540
     14  C          8.9390   -4.6600   -1.0580 C.3     1  UNL1        0.4680
@<TRIPOS>BOND
     1     9     7    1
     2     9    11    2
     3     7     6    2
     4    13    11    1
     5    13    14    1
     6    11    10    1
     7    14    12    1
     8     6     5    1
     9     6     8    1
    10    10     8    2
    11    10    12    1
    12     1     5    1
    13     1     2    1
    14     2     4    2
    15     2     3    1
