@<TRIPOS>MOLECULE
/home/cewinharhar/GITHUB/reincatalyze/data/processed/docking_pred/2023-May-25-1902_sub9_nm5_bs15_s42_ex16_mel10_mts10000_k50_ec01_g099_lra3e-4_lrc3e-3/88c4e0f8a026884e113c16f062f94e0c253125d7_ligand_9.pdbqt
 14 15 0 0 0
SMALL
GASTEIGER

@<TRIPOS>ATOM
      1  C          5.5250    1.9030    1.2830 C.3     1  UNL1        0.0800
      2  C          5.0510    0.6890    2.0030 C.2     1  UNL1        0.1300
      3  C          5.9040   -0.5210    2.1390 C.3     1  UNL1        0.0870
      4  O          3.9390    0.6530    2.5070 O.2     1  UNL1       -0.3000
      5  C          5.4030    1.7350   -0.2190 C.3     1  UNL1        0.0430
      6  C          6.5680    1.0340   -0.7870 C.2     1  UNL1       -0.0440
      7  C          7.8750    1.4690   -0.5440 C.2     1  UNL1        0.0080
      8  C          6.3770   -0.0790   -1.5740 C.2     1  UNL1        0.0540
      9  C          8.9300    0.7700   -1.1030 C.2     1  UNL1        0.0510
     10  C          7.4460   -0.7830   -2.1360 C.2     1  UNL1        0.1660
     11  C          8.7330   -0.3540   -1.8990 C.2     1  UNL1        0.1650
     12  O          7.5170   -1.8990   -2.9410 O.2     1  UNL1       -0.4540
     13  O          9.5760   -1.2260   -2.5690 O.2     1  UNL1       -0.4540
     14  C          8.8510   -2.2740   -3.1690 C.3     1  UNL1        0.4680
@<TRIPOS>BOND
     1    14    12    1
     2    14    13    1
     3    12    10    1
     4    13    11    1
     5    10    11    2
     6    10     8    1
     7    11     9    1
     8     8     6    2
     9     9     7    2
    10     6     7    1
    11     6     5    1
    12     5     1    1
    13     1     2    1
    14     2     3    1
    15     2     4    2
