MODEL 1
REMARK VINA RESULT:      -7.6      0.000      0.000
REMARK SMILES CC(=O)CCc1ccc2c(c1)OCO2
REMARK SMILES IDX 4 1 2 2 1 3 3 4 5 5 6 6 7 7 11 8 8 9 10 10 9 11 12 12 14 13
REMARK SMILES IDX 13 14
REMARK H PARENT
REMARK Flexibility Score: inf
ROOT
ATOM      1  C   UNL     1       5.525   1.903   1.283  1.00  0.00     0.080 C 
ENDROOT
BRANCH   1   2
ATOM      2  C   UNL     1       5.051   0.689   2.003  1.00  0.00     0.130 C 
ATOM      3  C   UNL     1       5.904  -0.521   2.139  1.00  0.00     0.087 C 
ATOM      4  O   UNL     1       3.939   0.653   2.507  1.00  0.00    -0.300 OA
ENDBRANCH   1   2
BRANCH   1   5
ATOM      5  C   UNL     1       5.403   1.735  -0.219  1.00  0.00     0.043 C 
BRANCH   5   6
ATOM      6  C   UNL     1       6.568   1.034  -0.787  1.00  0.00    -0.044 A 
ATOM      7  C   UNL     1       7.875   1.469  -0.544  1.00  0.00     0.008 A 
ATOM      8  C   UNL     1       6.377  -0.079  -1.574  1.00  0.00     0.054 A 
ATOM      9  C   UNL     1       8.930   0.770  -1.103  1.00  0.00     0.051 A 
ATOM     10  C   UNL     1       7.446  -0.783  -2.136  1.00  0.00     0.166 A 
ATOM     11  C   UNL     1       8.733  -0.354  -1.899  1.00  0.00     0.165 A 
ATOM     12  O   UNL     1       7.517  -1.899  -2.941  1.00  0.00    -0.454 OA
ATOM     13  O   UNL     1       9.576  -1.226  -2.569  1.00  0.00    -0.454 OA
ATOM     14  C   UNL     1       8.851  -2.274  -3.169  1.00  0.00     0.468 C 
ENDBRANCH   5   6
ENDBRANCH   1   5
TORSDOF 3
ENDMDL
MODEL 2
REMARK VINA RESULT:      -7.3      1.894      2.385
REMARK SMILES CC(=O)CCc1ccc2c(c1)OCO2
REMARK SMILES IDX 4 1 2 2 1 3 3 4 5 5 6 6 7 7 11 8 8 9 10 10 9 11 12 12 14 13
REMARK SMILES IDX 13 14
REMARK H PARENT
REMARK Flexibility Score: inf
ROOT
ATOM      1  C   UNL     1       5.816   1.385  -0.294  1.00  0.00     0.080 C 
ENDROOT
BRANCH   1   2
ATOM      2  C   UNL     1       5.235   1.269   1.072  1.00  0.00     0.130 C 
ATOM      3  C   UNL     1       5.493   0.082   1.932  1.00  0.00     0.087 C 
ATOM      4  O   UNL     1       4.525   2.150   1.529  1.00  0.00    -0.300 OA
ENDBRANCH   1   2
BRANCH   1   5
ATOM      5  C   UNL     1       7.308   1.120  -0.283  1.00  0.00     0.043 C 
BRANCH   5   6
ATOM      6  C   UNL     1       7.638  -0.176  -0.904  1.00  0.00    -0.044 A 
ATOM      7  C   UNL     1       7.641  -0.343  -2.293  1.00  0.00     0.008 A 
ATOM      8  C   UNL     1       7.953  -1.253  -0.107  1.00  0.00     0.054 A 
ATOM      9  C   UNL     1       7.959  -1.582  -2.819  1.00  0.00     0.051 A 
ATOM     10  C   UNL     1       8.275  -2.504  -0.644  1.00  0.00     0.166 A 
ATOM     11  C   UNL     1       8.277  -2.669  -2.011  1.00  0.00     0.165 A 
ATOM     12  O   UNL     1       8.617  -3.711  -0.074  1.00  0.00    -0.454 OA
ATOM     13  O   UNL     1       8.626  -3.988  -2.255  1.00  0.00    -0.454 OA
ATOM     14  C   UNL     1       8.939  -4.660  -1.058  1.00  0.00     0.468 C 
ENDBRANCH   5   6
ENDBRANCH   1   5
TORSDOF 3
ENDMDL
MODEL 3
REMARK VINA RESULT:      -7.1      2.085      2.619
REMARK SMILES CC(=O)CCc1ccc2c(c1)OCO2
REMARK SMILES IDX 4 1 2 2 1 3 3 4 5 5 6 6 7 7 11 8 8 9 10 10 9 11 12 12 14 13
REMARK SMILES IDX 13 14
REMARK H PARENT
REMARK Flexibility Score: inf
ROOT
ATOM      1  C   UNL     1       5.547   0.017   1.984  1.00  0.00     0.080 C 
ENDROOT
BRANCH   1   2
ATOM      2  C   UNL     1       4.653   1.162   1.655  1.00  0.00     0.130 C 
ATOM      3  C   UNL     1       4.971   2.108   0.552  1.00  0.00     0.087 C 
ATOM      4  O   UNL     1       3.628   1.358   2.286  1.00  0.00    -0.300 OA
ENDBRANCH   1   2
BRANCH   1   5
ATOM      5  C   UNL     1       6.964   0.269   1.507  1.00  0.00     0.043 C 
BRANCH   5   6
ATOM      6  C   UNL     1       7.368  -0.690   0.464  1.00  0.00    -0.044 A 
ATOM      7  C   UNL     1       7.255  -0.383  -0.897  1.00  0.00     0.008 A 
ATOM      8  C   UNL     1       7.872  -1.919   0.825  1.00  0.00     0.054 A 
ATOM      9  C   UNL     1       7.652  -1.322  -1.832  1.00  0.00     0.051 A 
ATOM     10  C   UNL     1       8.272  -2.865  -0.124  1.00  0.00     0.166 A 
ATOM     11  C   UNL     1       8.161  -2.564  -1.463  1.00  0.00     0.165 A 
ATOM     12  O   UNL     1       8.796  -4.136  -0.021  1.00  0.00    -0.454 OA
ATOM     13  O   UNL     1       8.624  -3.668  -2.162  1.00  0.00    -0.454 OA
ATOM     14  C   UNL     1       9.121  -4.652  -1.286  1.00  0.00     0.468 C 
ENDBRANCH   5   6
ENDBRANCH   1   5
TORSDOF 3
ENDMDL
MODEL 4
REMARK VINA RESULT:      -7.0      1.247      1.440
REMARK SMILES CC(=O)CCc1ccc2c(c1)OCO2
REMARK SMILES IDX 4 1 2 2 1 3 3 4 5 5 6 6 7 7 11 8 8 9 10 10 9 11 12 12 14 13
REMARK SMILES IDX 13 14
REMARK H PARENT
REMARK Flexibility Score: inf
ROOT
ATOM      1  C   UNL     1       6.337   1.220   0.957  1.00  0.00     0.080 C 
ENDROOT
BRANCH   1   2
ATOM      2  C   UNL     1       5.662   0.356   1.965  1.00  0.00     0.130 C 
ATOM      3  C   UNL     1       6.316  -0.861   2.514  1.00  0.00     0.087 C 
ATOM      4  O   UNL     1       4.543   0.626   2.371  1.00  0.00    -0.300 OA
ENDBRANCH   1   2
BRANCH   1   5
ATOM      5  C   UNL     1       5.822   0.940  -0.441  1.00  0.00     0.043 C 
BRANCH   5   6
ATOM      6  C   UNL     1       6.772   0.126  -1.221  1.00  0.00    -0.044 A 
ATOM      7  C   UNL     1       7.453   0.652  -2.326  1.00  0.00     0.008 A 
ATOM      8  C   UNL     1       7.005  -1.182  -0.862  1.00  0.00     0.054 A 
ATOM      9  C   UNL     1       8.333  -0.159  -3.019  1.00  0.00     0.051 A 
ATOM     10  C   UNL     1       7.897  -1.997  -1.566  1.00  0.00     0.166 A 
ATOM     11  C   UNL     1       8.566  -1.481  -2.653  1.00  0.00     0.165 A 
ATOM     12  O   UNL     1       8.294  -3.308  -1.410  1.00  0.00    -0.454 OA
ATOM     13  O   UNL     1       9.369  -2.497  -3.148  1.00  0.00    -0.454 OA
ATOM     14  C   UNL     1       9.296  -3.644  -2.336  1.00  0.00     0.468 C 
ENDBRANCH   5   6
ENDBRANCH   1   5
TORSDOF 3
ENDMDL
MODEL 5
REMARK VINA RESULT:      -6.9      2.006      2.594
REMARK SMILES CC(=O)CCc1ccc2c(c1)OCO2
REMARK SMILES IDX 4 1 2 2 1 3 3 4 5 5 6 6 7 7 11 8 8 9 10 10 9 11 12 12 14 13
REMARK SMILES IDX 13 14
REMARK H PARENT
REMARK Flexibility Score: inf
ROOT
ATOM      1  C   UNL     1       6.855   0.647   1.251  1.00  0.00     0.080 C 
ENDROOT
BRANCH   1   2
ATOM      2  C   UNL     1       5.455   1.133   1.408  1.00  0.00     0.130 C 
ATOM      3  C   UNL     1       4.875   2.150   0.490  1.00  0.00     0.087 C 
ATOM      4  O   UNL     1       4.740   0.707   2.300  1.00  0.00    -0.300 OA
ENDBRANCH   1   2
BRANCH   1   5
ATOM      5  C   UNL     1       7.359   0.867  -0.161  1.00  0.00     0.043 C 
BRANCH   5   6
ATOM      6  C   UNL     1       7.760  -0.398  -0.802  1.00  0.00    -0.044 A 
ATOM      7  C   UNL     1       7.944  -0.493  -2.186  1.00  0.00     0.008 A 
ATOM      8  C   UNL     1       7.964  -1.519  -0.030  1.00  0.00     0.054 A 
ATOM      9  C   UNL     1       8.321  -1.706  -2.732  1.00  0.00     0.051 A 
ATOM     10  C   UNL     1       8.347  -2.743  -0.586  1.00  0.00     0.166 A 
ATOM     11  C   UNL     1       8.526  -2.838  -1.948  1.00  0.00     0.165 A 
ATOM     12  O   UNL     1       8.607  -3.983  -0.041  1.00  0.00    -0.454 OA
ATOM     13  O   UNL     1       8.897  -4.147  -2.214  1.00  0.00    -0.454 OA
ATOM     14  C   UNL     1       9.049  -4.883  -1.024  1.00  0.00     0.468 C 
ENDBRANCH   5   6
ENDBRANCH   1   5
TORSDOF 3
ENDMDL
