@<TRIPOS>MOLECULE
/home/cewinharhar/GITHUB/reincatalyze/data/processed/docking_pred/2023-May-25-1902_sub9_nm5_bs15_s42_ex16_mel10_mts10000_k50_ec01_g099_lra3e-4_lrc3e-3/88c4e0f8a026884e113c16f062f94e0c253125d7_ligand_9.pdbqt
 14 15 0 0 0
SMALL
GASTEIGER

@<TRIPOS>ATOM
      1  C          6.3370    1.2200    0.9570 C.3     1  UNL1        0.0800
      2  C          5.6620    0.3560    1.9650 C.2     1  UNL1        0.1300
      3  C          6.3160   -0.8610    2.5140 C.3     1  UNL1        0.0870
      4  O          4.5430    0.6260    2.3710 O.2     1  UNL1       -0.3000
      5  C          5.8220    0.9400   -0.4410 C.3     1  UNL1        0.0430
      6  C          6.7720    0.1260   -1.2210 C.2     1  UNL1       -0.0440
      7  C          7.4530    0.6520   -2.3260 C.2     1  UNL1        0.0080
      8  C          7.0050   -1.1820   -0.8620 C.2     1  UNL1        0.0540
      9  C          8.3330   -0.1590   -3.0190 C.2     1  UNL1        0.0510
     10  C          7.8970   -1.9970   -1.5660 C.2     1  UNL1        0.1660
     11  C          8.5660   -1.4810   -2.6530 C.2     1  UNL1        0.1650
     12  O          8.2940   -3.3080   -1.4100 O.2     1  UNL1       -0.4540
     13  O          9.3690   -2.4970   -3.1480 O.2     1  UNL1       -0.4540
     14  C          9.2960   -3.6440   -2.3360 C.3     1  UNL1        0.4680
@<TRIPOS>BOND
     1    13    11    1
     2    13    14    1
     3     9    11    2
     4     9     7    1
     5    11    10    1
     6    14    12    1
     7     7     6    2
     8    10    12    1
     9    10     8    2
    10     6     8    1
    11     6     5    1
    12     5     1    1
    13     1     2    1
    14     2     4    2
    15     2     3    1
