@<TRIPOS>MOLECULE
/home/cewinharhar/GITHUB/reincatalyze/data/processed/docking_pred/2023-May-25-1902_sub9_nm5_bs15_s42_ex16_mel10_mts10000_k50_ec01_g099_lra3e-4_lrc3e-3/895ea28dab147140afd805a2e235fc395d2e1c3a_ligand_9.pdbqt
 14 15 0 0 0
SMALL
GASTEIGER

@<TRIPOS>ATOM
      1  C          6.8150    1.0130    0.9900 C.3     1  UNL1        0.0800
      2  C          5.4340    1.5440    0.8190 C.2     1  UNL1        0.1300
      3  C          4.9850    2.1500   -0.4630 C.3     1  UNL1        0.0870
      4  O          4.6270    1.4970    1.7320 O.2     1  UNL1       -0.3000
      5  C          7.6130    1.1260   -0.2940 C.3     1  UNL1        0.0430
      6  C          7.8760   -0.1950   -0.8920 C.2     1  UNL1       -0.0440
      7  C          7.9230   -0.3750   -2.2800 C.2     1  UNL1        0.0080
      8  C          8.0840   -1.2840   -0.0770 C.2     1  UNL1        0.0540
      9  C          8.1750   -1.6380   -2.7840 C.2     1  UNL1        0.0510
     10  C          8.3390   -2.5580   -0.5920 C.2     1  UNL1        0.1660
     11  C          8.3840   -2.7370   -1.9570 C.2     1  UNL1        0.1650
     12  O          8.5750   -3.7810   -0.0000 O.2     1  UNL1       -0.4540
     13  O          8.6510   -4.0790   -2.1770 O.2     1  UNL1       -0.4540
     14  C          8.8690   -4.7590   -0.9640 C.3     1  UNL1        0.4680
@<TRIPOS>BOND
     1     9     7    1
     2     9    11    2
     3     7     6    2
     4    13    11    1
     5    13    14    1
     6    11    10    1
     7    14    12    1
     8     6     5    1
     9     6     8    1
    10    10     8    2
    11    10    12    1
    12     3     2    1
    13     5     1    1
    14     2     1    1
    15     2     4    2
