MODEL 1
REMARK VINA RESULT:      -7.6      0.000      0.000
REMARK SMILES CC(=O)CCc1ccc2c(c1)OCO2
REMARK SMILES IDX 4 1 2 2 1 3 3 4 5 5 6 6 7 7 11 8 8 9 10 10 9 11 12 12 14 13
REMARK SMILES IDX 13 14
REMARK H PARENT
REMARK Flexibility Score: inf
ROOT
ATOM      1  C   UNL     1       5.559   1.886   1.284  1.00  0.00     0.080 C 
ENDROOT
BRANCH   1   2
ATOM      2  C   UNL     1       5.118   0.668   2.019  1.00  0.00     0.130 C 
ATOM      3  C   UNL     1       6.011  -0.509   2.187  1.00  0.00     0.087 C 
ATOM      4  O   UNL     1       4.001   0.601   2.507  1.00  0.00    -0.300 OA
ENDBRANCH   1   2
BRANCH   1   5
ATOM      5  C   UNL     1       5.423   1.704  -0.215  1.00  0.00     0.043 C 
BRANCH   5   6
ATOM      6  C   UNL     1       6.586   1.005  -0.789  1.00  0.00    -0.044 A 
ATOM      7  C   UNL     1       7.895   1.438  -0.546  1.00  0.00     0.008 A 
ATOM      8  C   UNL     1       6.393  -0.103  -1.582  1.00  0.00     0.054 A 
ATOM      9  C   UNL     1       8.948   0.742  -1.111  1.00  0.00     0.051 A 
ATOM     10  C   UNL     1       7.461  -0.804  -2.150  1.00  0.00     0.166 A 
ATOM     11  C   UNL     1       8.749  -0.378  -1.913  1.00  0.00     0.165 A 
ATOM     12  O   UNL     1       7.529  -1.916  -2.962  1.00  0.00    -0.454 OA
ATOM     13  O   UNL     1       9.590  -1.247  -2.590  1.00  0.00    -0.454 OA
ATOM     14  C   UNL     1       8.863  -2.290  -3.194  1.00  0.00     0.468 C 
ENDBRANCH   5   6
ENDBRANCH   1   5
TORSDOF 3
ENDMDL
MODEL 2
REMARK VINA RESULT:      -7.5      1.928      2.380
REMARK SMILES CC(=O)CCc1ccc2c(c1)OCO2
REMARK SMILES IDX 4 1 2 2 1 3 3 4 5 5 6 6 7 7 11 8 8 9 10 10 9 11 12 12 14 13
REMARK SMILES IDX 13 14
REMARK H PARENT
REMARK Flexibility Score: inf
ROOT
ATOM      1  C   UNL     1       5.709   1.352  -0.300  1.00  0.00     0.080 C 
ENDROOT
BRANCH   1   2
ATOM      2  C   UNL     1       5.090   1.267   1.052  1.00  0.00     0.130 C 
ATOM      3  C   UNL     1       5.363   0.125   1.965  1.00  0.00     0.087 C 
ATOM      4  O   UNL     1       4.334   2.139   1.451  1.00  0.00    -0.300 OA
ENDBRANCH   1   2
BRANCH   1   5
ATOM      5  C   UNL     1       7.205   1.114  -0.236  1.00  0.00     0.043 C 
BRANCH   5   6
ATOM      6  C   UNL     1       7.579  -0.177  -0.841  1.00  0.00    -0.044 A 
ATOM      7  C   UNL     1       7.631  -0.349  -2.229  1.00  0.00     0.008 A 
ATOM      8  C   UNL     1       7.889  -1.245  -0.030  1.00  0.00     0.054 A 
ATOM      9  C   UNL     1       7.989  -1.583  -2.739  1.00  0.00     0.051 A 
ATOM     10  C   UNL     1       8.252  -2.491  -0.551  1.00  0.00     0.166 A 
ATOM     11  C   UNL     1       8.302  -2.661  -1.916  1.00  0.00     0.165 A 
ATOM     12  O   UNL     1       8.599  -3.689   0.036  1.00  0.00    -0.454 OA
ATOM     13  O   UNL     1       8.684  -3.974  -2.143  1.00  0.00    -0.454 OA
ATOM     14  C   UNL     1       8.971  -4.636  -0.933  1.00  0.00     0.468 C 
ENDBRANCH   5   6
ENDBRANCH   1   5
TORSDOF 3
ENDMDL
MODEL 3
REMARK VINA RESULT:      -7.2      2.049      2.604
REMARK SMILES CC(=O)CCc1ccc2c(c1)OCO2
REMARK SMILES IDX 4 1 2 2 1 3 3 4 5 5 6 6 7 7 11 8 8 9 10 10 9 11 12 12 14 13
REMARK SMILES IDX 13 14
REMARK H PARENT
REMARK Flexibility Score: inf
ROOT
ATOM      1  C   UNL     1       5.441  -0.023   2.023  1.00  0.00     0.080 C 
ENDROOT
BRANCH   1   2
ATOM      2  C   UNL     1       4.565   1.154   1.766  1.00  0.00     0.130 C 
ATOM      3  C   UNL     1       4.881   2.146   0.704  1.00  0.00     0.087 C 
ATOM      4  O   UNL     1       3.554   1.338   2.425  1.00  0.00    -0.300 OA
ENDBRANCH   1   2
BRANCH   1   5
ATOM      5  C   UNL     1       6.865   0.243   1.577  1.00  0.00     0.043 C 
BRANCH   5   6
ATOM      6  C   UNL     1       7.290  -0.690   0.519  1.00  0.00    -0.044 A 
ATOM      7  C   UNL     1       7.175  -0.363  -0.837  1.00  0.00     0.008 A 
ATOM      8  C   UNL     1       7.815  -1.916   0.861  1.00  0.00     0.054 A 
ATOM      9  C   UNL     1       7.591  -1.279  -1.786  1.00  0.00     0.051 A 
ATOM     10  C   UNL     1       8.235  -2.838  -0.103  1.00  0.00     0.166 A 
ATOM     11  C   UNL     1       8.121  -2.517  -1.437  1.00  0.00     0.165 A 
ATOM     12  O   UNL     1       8.781  -4.101  -0.019  1.00  0.00    -0.454 OA
ATOM     13  O   UNL     1       8.606  -3.601  -2.152  1.00  0.00    -0.454 OA
ATOM     14  C   UNL     1       9.118  -4.590  -1.292  1.00  0.00     0.468 C 
ENDBRANCH   5   6
ENDBRANCH   1   5
TORSDOF 3
ENDMDL
MODEL 4
REMARK VINA RESULT:      -7.1      1.241      1.440
REMARK SMILES CC(=O)CCc1ccc2c(c1)OCO2
REMARK SMILES IDX 4 1 2 2 1 3 3 4 5 5 6 6 7 7 11 8 8 9 10 10 9 11 12 12 14 13
REMARK SMILES IDX 13 14
REMARK H PARENT
REMARK Flexibility Score: inf
ROOT
ATOM      1  C   UNL     1       6.370   1.223   0.920  1.00  0.00     0.080 C 
ENDROOT
BRANCH   1   2
ATOM      2  C   UNL     1       5.661   0.392   1.933  1.00  0.00     0.130 C 
ATOM      3  C   UNL     1       6.277  -0.835   2.506  1.00  0.00     0.087 C 
ATOM      4  O   UNL     1       4.547   0.697   2.326  1.00  0.00    -0.300 OA
ENDBRANCH   1   2
BRANCH   1   5
ATOM      5  C   UNL     1       5.861   0.936  -0.479  1.00  0.00     0.043 C 
BRANCH   5   6
ATOM      6  C   UNL     1       6.811   0.113  -1.248  1.00  0.00    -0.044 A 
ATOM      7  C   UNL     1       7.500   0.627  -2.352  1.00  0.00     0.008 A 
ATOM      8  C   UNL     1       7.034  -1.194  -0.880  1.00  0.00     0.054 A 
ATOM      9  C   UNL     1       8.380  -0.192  -3.035  1.00  0.00     0.051 A 
ATOM     10  C   UNL     1       7.926  -2.018  -1.573  1.00  0.00     0.166 A 
ATOM     11  C   UNL     1       8.604  -1.513  -2.660  1.00  0.00     0.165 A 
ATOM     12  O   UNL     1       8.315  -3.331  -1.408  1.00  0.00    -0.454 OA
ATOM     13  O   UNL     1       9.404  -2.536  -3.144  1.00  0.00    -0.454 OA
ATOM     14  C   UNL     1       9.320  -3.678  -2.325  1.00  0.00     0.468 C 
ENDBRANCH   5   6
ENDBRANCH   1   5
TORSDOF 3
ENDMDL
MODEL 5
REMARK VINA RESULT:      -7.0      1.935      2.636
REMARK SMILES CC(=O)CCc1ccc2c(c1)OCO2
REMARK SMILES IDX 4 1 2 2 1 3 3 4 5 5 6 6 7 7 11 8 8 9 10 10 9 11 12 12 14 13
REMARK SMILES IDX 13 14
REMARK H PARENT
REMARK Flexibility Score: inf
ROOT
ATOM      1  C   UNL     1       6.815   1.013   0.990  1.00  0.00     0.080 C 
ENDROOT
BRANCH   1   2
ATOM      2  C   UNL     1       5.434   1.544   0.819  1.00  0.00     0.130 C 
ATOM      3  C   UNL     1       4.985   2.150  -0.463  1.00  0.00     0.087 C 
ATOM      4  O   UNL     1       4.627   1.497   1.732  1.00  0.00    -0.300 OA
ENDBRANCH   1   2
BRANCH   1   5
ATOM      5  C   UNL     1       7.613   1.126  -0.294  1.00  0.00     0.043 C 
BRANCH   5   6
ATOM      6  C   UNL     1       7.876  -0.195  -0.892  1.00  0.00    -0.044 A 
ATOM      7  C   UNL     1       7.923  -0.375  -2.280  1.00  0.00     0.008 A 
ATOM      8  C   UNL     1       8.084  -1.284  -0.077  1.00  0.00     0.054 A 
ATOM      9  C   UNL     1       8.175  -1.638  -2.784  1.00  0.00     0.051 A 
ATOM     10  C   UNL     1       8.339  -2.558  -0.592  1.00  0.00     0.166 A 
ATOM     11  C   UNL     1       8.384  -2.737  -1.957  1.00  0.00     0.165 A 
ATOM     12  O   UNL     1       8.575  -3.781  -0.000  1.00  0.00    -0.454 OA
ATOM     13  O   UNL     1       8.651  -4.079  -2.177  1.00  0.00    -0.454 OA
ATOM     14  C   UNL     1       8.869  -4.759  -0.964  1.00  0.00     0.468 C 
ENDBRANCH   5   6
ENDBRANCH   1   5
TORSDOF 3
ENDMDL
