@<TRIPOS>MOLECULE
/home/cewinharhar/GITHUB/reincatalyze/data/processed/docking_pred/2023-May-25-1902_sub9_nm5_bs15_s42_ex16_mel10_mts10000_k50_ec01_g099_lra3e-4_lrc3e-3/895ea28dab147140afd805a2e235fc395d2e1c3a_ligand_9.pdbqt
 14 15 0 0 0
SMALL
GASTEIGER

@<TRIPOS>ATOM
      1  C          6.3700    1.2230    0.9200 C.3     1  UNL1        0.0800
      2  C          5.6610    0.3920    1.9330 C.2     1  UNL1        0.1300
      3  C          6.2770   -0.8350    2.5060 C.3     1  UNL1        0.0870
      4  O          4.5470    0.6970    2.3260 O.2     1  UNL1       -0.3000
      5  C          5.8610    0.9360   -0.4790 C.3     1  UNL1        0.0430
      6  C          6.8110    0.1130   -1.2480 C.2     1  UNL1       -0.0440
      7  C          7.5000    0.6270   -2.3520 C.2     1  UNL1        0.0080
      8  C          7.0340   -1.1940   -0.8800 C.2     1  UNL1        0.0540
      9  C          8.3800   -0.1920   -3.0350 C.2     1  UNL1        0.0510
     10  C          7.9260   -2.0180   -1.5730 C.2     1  UNL1        0.1660
     11  C          8.6040   -1.5130   -2.6600 C.2     1  UNL1        0.1650
     12  O          8.3150   -3.3310   -1.4080 O.2     1  UNL1       -0.4540
     13  O          9.4040   -2.5360   -3.1440 O.2     1  UNL1       -0.4540
     14  C          9.3200   -3.6780   -2.3250 C.3     1  UNL1        0.4680
@<TRIPOS>BOND
     1    13    11    1
     2    13    14    1
     3     9    11    2
     4     9     7    1
     5    11    10    1
     6     7     6    2
     7    14    12    1
     8    10    12    1
     9    10     8    2
    10     6     8    1
    11     6     5    1
    12     5     1    1
    13     1     2    1
    14     2     4    2
    15     2     3    1
