@<TRIPOS>MOLECULE
/home/cewinharhar/GITHUB/reincatalyze/data/processed/docking_pred/2023-May-25-1902_sub9_nm5_bs15_s42_ex16_mel10_mts10000_k50_ec01_g099_lra3e-4_lrc3e-3/895ea28dab147140afd805a2e235fc395d2e1c3a_ligand_9.pdbqt
 14 15 0 0 0
SMALL
GASTEIGER

@<TRIPOS>ATOM
      1  C          5.4410   -0.0230    2.0230 C.3     1  UNL1        0.0800
      2  C          4.5650    1.1540    1.7660 C.2     1  UNL1        0.1300
      3  C          4.8810    2.1460    0.7040 C.3     1  UNL1        0.0870
      4  O          3.5540    1.3380    2.4250 O.2     1  UNL1       -0.3000
      5  C          6.8650    0.2430    1.5770 C.3     1  UNL1        0.0430
      6  C          7.2900   -0.6900    0.5190 C.2     1  UNL1       -0.0440
      7  C          7.1750   -0.3630   -0.8370 C.2     1  UNL1        0.0080
      8  C          7.8150   -1.9160    0.8610 C.2     1  UNL1        0.0540
      9  C          7.5910   -1.2790   -1.7860 C.2     1  UNL1        0.0510
     10  C          8.2350   -2.8380   -0.1030 C.2     1  UNL1        0.1660
     11  C          8.1210   -2.5170   -1.4370 C.2     1  UNL1        0.1650
     12  O          8.7810   -4.1010   -0.0190 O.2     1  UNL1       -0.4540
     13  O          8.6060   -3.6010   -2.1520 O.2     1  UNL1       -0.4540
     14  C          9.1180   -4.5900   -1.2920 C.3     1  UNL1        0.4680
@<TRIPOS>BOND
     1    13    11    1
     2    13    14    1
     3     9    11    2
     4     9     7    1
     5    11    10    1
     6    14    12    1
     7     7     6    2
     8    10    12    1
     9    10     8    2
    10     6     8    1
    11     6     5    1
    12     3     2    1
    13     5     1    1
    14     2     1    1
    15     2     4    2
