@<TRIPOS>MOLECULE
/home/cewinharhar/GITHUB/reincatalyze/data/processed/docking_pred/2023-May-25-1902_sub9_nm5_bs15_s42_ex16_mel10_mts10000_k50_ec01_g099_lra3e-4_lrc3e-3/895ea28dab147140afd805a2e235fc395d2e1c3a_ligand_9.pdbqt
 14 15 0 0 0
SMALL
GASTEIGER

@<TRIPOS>ATOM
      1  C          5.5590    1.8860    1.2840 C.3     1  UNL1        0.0800
      2  C          5.1180    0.6680    2.0190 C.2     1  UNL1        0.1300
      3  C          6.0110   -0.5090    2.1870 C.3     1  UNL1        0.0870
      4  O          4.0010    0.6010    2.5070 O.2     1  UNL1       -0.3000
      5  C          5.4230    1.7040   -0.2150 C.3     1  UNL1        0.0430
      6  C          6.5860    1.0050   -0.7890 C.2     1  UNL1       -0.0440
      7  C          7.8950    1.4380   -0.5460 C.2     1  UNL1        0.0080
      8  C          6.3930   -0.1030   -1.5820 C.2     1  UNL1        0.0540
      9  C          8.9480    0.7420   -1.1110 C.2     1  UNL1        0.0510
     10  C          7.4610   -0.8040   -2.1500 C.2     1  UNL1        0.1660
     11  C          8.7490   -0.3780   -1.9130 C.2     1  UNL1        0.1650
     12  O          7.5290   -1.9160   -2.9620 O.2     1  UNL1       -0.4540
     13  O          9.5900   -1.2470   -2.5900 O.2     1  UNL1       -0.4540
     14  C          8.8630   -2.2900   -3.1940 C.3     1  UNL1        0.4680
@<TRIPOS>BOND
     1    14    12    1
     2    14    13    1
     3    12    10    1
     4    13    11    1
     5    10    11    2
     6    10     8    1
     7    11     9    1
     8     8     6    2
     9     9     7    2
    10     6     7    1
    11     6     5    1
    12     5     1    1
    13     1     2    1
    14     2     3    1
    15     2     4    2
