@<TRIPOS>MOLECULE
/home/cewinharhar/GITHUB/reincatalyze/data/processed/docking_pred/2023-May-25-1902_sub9_nm5_bs15_s42_ex16_mel10_mts10000_k50_ec01_g099_lra3e-4_lrc3e-3/8a11bcf53d23875e79cb17a52aa7b3de0dc85e7d_ligand_9.pdbqt
 14 15 0 0 0
SMALL
GASTEIGER

@<TRIPOS>ATOM
      1  C          5.3160   -0.0760    1.9710 C.3     1  UNL1        0.0800
      2  C          4.4520    1.1240    1.7960 C.2     1  UNL1        0.1300
      3  C          4.7410    2.1500    0.7590 C.3     1  UNL1        0.0870
      4  O          3.4750    1.3020    2.5060 O.2     1  UNL1       -0.3000
      5  C          6.7860    0.2880    1.9000 C.3     1  UNL1        0.0430
      6  C          7.3780   -0.0800    0.6020 C.2     1  UNL1       -0.0440
      7  C          7.8320    0.8910   -0.2980 C.2     1  UNL1        0.0080
      8  C          7.4940   -1.4070    0.2570 C.2     1  UNL1        0.0540
      9  C          8.3800    0.4870   -1.5020 C.2     1  UNL1        0.0510
     10  C          8.0490   -1.8110   -0.9610 C.2     1  UNL1        0.1660
     11  C          8.4950   -0.8560   -1.8480 C.2     1  UNL1        0.1650
     12  O          8.2720   -3.0480   -1.5290 O.2     1  UNL1       -0.4540
     13  O          8.9880   -1.5330   -2.9520 O.2     1  UNL1       -0.4540
     14  C          8.9490   -2.9260   -2.7530 C.3     1  UNL1        0.4680
@<TRIPOS>BOND
     1    13    14    1
     2    13    11    1
     3    14    12    1
     4    11     9    2
     5    11    10    1
     6    12    10    1
     7     9     7    1
     8    10     8    2
     9     7     6    2
    10     8     6    1
    11     6     5    1
    12     3     2    1
    13     2     1    1
    14     2     4    2
    15     5     1    1
