@<TRIPOS>MOLECULE
/home/cewinharhar/GITHUB/reincatalyze/data/processed/docking_pred/2023-May-25-1902_sub9_nm5_bs15_s42_ex16_mel10_mts10000_k50_ec01_g099_lra3e-4_lrc3e-3/8a11bcf53d23875e79cb17a52aa7b3de0dc85e7d_ligand_9.pdbqt
 14 15 0 0 0
SMALL
GASTEIGER

@<TRIPOS>ATOM
      1  C          8.5410    0.2220   -2.6140 C.3     1  UNL1        0.0800
      2  C          8.4860   -1.2570   -2.7810 C.2     1  UNL1        0.1300
      3  C          7.1930   -1.9820   -2.9010 C.3     1  UNL1        0.0870
      4  O          9.5100   -1.9210   -2.8250 O.2     1  UNL1       -0.3000
      5  C          9.0100    0.6020   -1.2230 C.3     1  UNL1        0.0430
      6  C          7.9420    0.4350   -0.2220 C.2     1  UNL1       -0.0440
      7  C          8.0020   -0.5670    0.7540 C.2     1  UNL1        0.0080
      8  C          6.8560    1.2810   -0.2350 C.2     1  UNL1        0.0540
      9  C          6.9700   -0.6750    1.6680 C.2     1  UNL1        0.0510
     10  C          5.8160    1.1680    0.6920 C.2     1  UNL1        0.1660
     11  C          5.8730    0.1820    1.6520 C.2     1  UNL1        0.1650
     12  O          4.6480    1.8740    0.8840 O.2     1  UNL1       -0.4540
     13  O          4.7280    0.3050    2.4220 O.2     1  UNL1       -0.4540
     14  C          3.9670    1.4210    2.0270 C.3     1  UNL1        0.4680
@<TRIPOS>BOND
     1     3     2    1
     2     4     2    2
     3     2     1    1
     4     1     5    1
     5     5     6    1
     6     8     6    2
     7     8    10    1
     8     6     7    1
     9    10    12    1
    10    10    11    2
    11     7     9    2
    12    12    14    1
    13    11     9    1
    14    11    13    1
    15    14    13    1
