MODEL 1
REMARK VINA RESULT:      -7.6      0.000      0.000
REMARK SMILES CC(=O)CCc1ccc2c(c1)OCO2
REMARK SMILES IDX 4 1 2 2 1 3 3 4 5 5 6 6 7 7 11 8 8 9 10 10 9 11 12 12 14 13
REMARK SMILES IDX 13 14
REMARK H PARENT
REMARK Flexibility Score: inf
ROOT
ATOM      1  C   UNL     1       5.550   1.917   1.279  1.00  0.00     0.080 C 
ENDROOT
BRANCH   1   2
ATOM      2  C   UNL     1       5.120   0.698   2.019  1.00  0.00     0.130 C 
ATOM      3  C   UNL     1       6.027  -0.466   2.200  1.00  0.00     0.087 C 
ATOM      4  O   UNL     1       4.001   0.620   2.500  1.00  0.00    -0.300 OA
ENDBRANCH   1   2
BRANCH   1   5
ATOM      5  C   UNL     1       5.416   1.728  -0.219  1.00  0.00     0.043 C 
BRANCH   5   6
ATOM      6  C   UNL     1       6.581   1.027  -0.788  1.00  0.00    -0.044 A 
ATOM      7  C   UNL     1       7.889   1.458  -0.540  1.00  0.00     0.008 A 
ATOM      8  C   UNL     1       6.389  -0.081  -1.582  1.00  0.00     0.054 A 
ATOM      9  C   UNL     1       8.943   0.759  -1.100  1.00  0.00     0.051 A 
ATOM     10  C   UNL     1       7.458  -0.784  -2.146  1.00  0.00     0.166 A 
ATOM     11  C   UNL     1       8.745  -0.360  -1.903  1.00  0.00     0.165 A 
ATOM     12  O   UNL     1       7.527  -1.896  -2.958  1.00  0.00    -0.454 OA
ATOM     13  O   UNL     1       9.588  -1.230  -2.577  1.00  0.00    -0.454 OA
ATOM     14  C   UNL     1       8.861  -2.272  -3.184  1.00  0.00     0.468 C 
ENDBRANCH   5   6
ENDBRANCH   1   5
TORSDOF 3
ENDMDL
MODEL 2
REMARK VINA RESULT:      -7.4      1.886      2.342
REMARK SMILES CC(=O)CCc1ccc2c(c1)OCO2
REMARK SMILES IDX 4 1 2 2 1 3 3 4 5 5 6 6 7 7 11 8 8 9 10 10 9 11 12 12 14 13
REMARK SMILES IDX 13 14
REMARK H PARENT
REMARK Flexibility Score: inf
ROOT
ATOM      1  C   UNL     1       5.769   1.418  -0.287  1.00  0.00     0.080 C 
ENDROOT
BRANCH   1   2
ATOM      2  C   UNL     1       5.199   1.287   1.083  1.00  0.00     0.130 C 
ATOM      3  C   UNL     1       5.493   0.109   1.941  1.00  0.00     0.087 C 
ATOM      4  O   UNL     1       4.469   2.150   1.543  1.00  0.00    -0.300 OA
ENDBRANCH   1   2
BRANCH   1   5
ATOM      5  C   UNL     1       7.267   1.190  -0.285  1.00  0.00     0.043 C 
BRANCH   5   6
ATOM      6  C   UNL     1       7.624  -0.103  -0.894  1.00  0.00    -0.044 A 
ATOM      7  C   UNL     1       7.685  -0.268  -2.282  1.00  0.00     0.008 A 
ATOM      8  C   UNL     1       7.909  -1.182  -0.087  1.00  0.00     0.054 A 
ATOM      9  C   UNL     1       8.026  -1.506  -2.797  1.00  0.00     0.051 A 
ATOM     10  C   UNL     1       8.255  -2.430  -0.612  1.00  0.00     0.166 A 
ATOM     11  C   UNL     1       8.313  -2.594  -1.978  1.00  0.00     0.165 A 
ATOM     12  O   UNL     1       8.576  -3.638  -0.030  1.00  0.00    -0.454 OA
ATOM     13  O   UNL     1       8.675  -3.912  -2.209  1.00  0.00    -0.454 OA
ATOM     14  C   UNL     1       8.940  -4.585  -1.002  1.00  0.00     0.468 C 
ENDBRANCH   5   6
ENDBRANCH   1   5
TORSDOF 3
ENDMDL
MODEL 3
REMARK VINA RESULT:      -7.2      2.097      2.647
REMARK SMILES CC(=O)CCc1ccc2c(c1)OCO2
REMARK SMILES IDX 4 1 2 2 1 3 3 4 5 5 6 6 7 7 11 8 8 9 10 10 9 11 12 12 14 13
REMARK SMILES IDX 13 14
REMARK H PARENT
REMARK Flexibility Score: inf
ROOT
ATOM      1  C   UNL     1       5.536  -0.022   1.940  1.00  0.00     0.080 C 
ENDROOT
BRANCH   1   2
ATOM      2  C   UNL     1       4.659   1.145   1.644  1.00  0.00     0.130 C 
ATOM      3  C   UNL     1       4.969   2.096   0.543  1.00  0.00     0.087 C 
ATOM      4  O   UNL     1       3.653   1.356   2.303  1.00  0.00    -0.300 OA
ENDBRANCH   1   2
BRANCH   1   5
ATOM      5  C   UNL     1       6.956   0.223   1.469  1.00  0.00     0.043 C 
BRANCH   5   6
ATOM      6  C   UNL     1       7.360  -0.739   0.430  1.00  0.00    -0.044 A 
ATOM      7  C   UNL     1       7.228  -0.446  -0.933  1.00  0.00     0.008 A 
ATOM      8  C   UNL     1       7.885  -1.958   0.795  1.00  0.00     0.054 A 
ATOM      9  C   UNL     1       7.625  -1.388  -1.864  1.00  0.00     0.051 A 
ATOM     10  C   UNL     1       8.286  -2.907  -0.150  1.00  0.00     0.166 A 
ATOM     11  C   UNL     1       8.155  -2.620  -1.491  1.00  0.00     0.165 A 
ATOM     12  O   UNL     1       8.827  -4.171  -0.042  1.00  0.00    -0.454 OA
ATOM     13  O   UNL     1       8.624  -3.724  -2.185  1.00  0.00    -0.454 OA
ATOM     14  C   UNL     1       9.144  -4.693  -1.307  1.00  0.00     0.468 C 
ENDBRANCH   5   6
ENDBRANCH   1   5
TORSDOF 3
ENDMDL
MODEL 4
REMARK VINA RESULT:      -7.1      1.258      1.488
REMARK SMILES CC(=O)CCc1ccc2c(c1)OCO2
REMARK SMILES IDX 4 1 2 2 1 3 3 4 5 5 6 6 7 7 11 8 8 9 10 10 9 11 12 12 14 13
REMARK SMILES IDX 13 14
REMARK H PARENT
REMARK Flexibility Score: inf
ROOT
ATOM      1  C   UNL     1       6.383   1.204   0.862  1.00  0.00     0.080 C 
ENDROOT
BRANCH   1   2
ATOM      2  C   UNL     1       5.710   0.368   1.896  1.00  0.00     0.130 C 
ATOM      3  C   UNL     1       6.344  -0.864   2.438  1.00  0.00     0.087 C 
ATOM      4  O   UNL     1       4.612   0.674   2.331  1.00  0.00    -0.300 OA
ENDBRANCH   1   2
BRANCH   1   5
ATOM      5  C   UNL     1       5.873   0.876  -0.527  1.00  0.00     0.043 C 
BRANCH   5   6
ATOM      6  C   UNL     1       6.836   0.056  -1.284  1.00  0.00    -0.044 A 
ATOM      7  C   UNL     1       7.553   0.579  -2.366  1.00  0.00     0.008 A 
ATOM      8  C   UNL     1       7.046  -1.256  -0.924  1.00  0.00     0.054 A 
ATOM      9  C   UNL     1       8.445  -0.237  -3.038  1.00  0.00     0.051 A 
ATOM     10  C   UNL     1       7.949  -2.077  -1.606  1.00  0.00     0.166 A 
ATOM     11  C   UNL     1       8.654  -1.563  -2.672  1.00  0.00     0.165 A 
ATOM     12  O   UNL     1       8.328  -3.393  -1.446  1.00  0.00    -0.454 OA
ATOM     13  O   UNL     1       9.461  -2.584  -3.148  1.00  0.00    -0.454 OA
ATOM     14  C   UNL     1       9.353  -3.735  -2.344  1.00  0.00     0.468 C 
ENDBRANCH   5   6
ENDBRANCH   1   5
TORSDOF 3
ENDMDL
MODEL 5
REMARK VINA RESULT:      -6.7      1.282      1.762
REMARK SMILES CC(=O)CCc1ccc2c(c1)OCO2
REMARK SMILES IDX 4 1 2 2 1 3 3 4 5 5 6 6 7 7 11 8 8 9 10 10 9 11 12 12 14 13
REMARK SMILES IDX 13 14
REMARK H PARENT
REMARK Flexibility Score: inf
ROOT
ATOM      1  C   UNL     1       5.359  -0.042   1.981  1.00  0.00     0.080 C 
ENDROOT
BRANCH   1   2
ATOM      2  C   UNL     1       4.464   1.134   1.790  1.00  0.00     0.130 C 
ATOM      3  C   UNL     1       4.724   2.150   0.735  1.00  0.00     0.087 C 
ATOM      4  O   UNL     1       3.485   1.298   2.500  1.00  0.00    -0.300 OA
ENDBRANCH   1   2
BRANCH   1   5
ATOM      5  C   UNL     1       6.818   0.356   1.884  1.00  0.00     0.043 C 
BRANCH   5   6
ATOM      6  C   UNL     1       7.403  -0.022   0.585  1.00  0.00    -0.044 A 
ATOM      7  C   UNL     1       7.852   0.941  -0.326  1.00  0.00     0.008 A 
ATOM      8  C   UNL     1       7.516  -1.352   0.249  1.00  0.00     0.054 A 
ATOM      9  C   UNL     1       8.392   0.527  -1.529  1.00  0.00     0.051 A 
ATOM     10  C   UNL     1       8.064  -1.766  -0.969  1.00  0.00     0.166 A 
ATOM     11  C   UNL     1       8.505  -0.818  -1.866  1.00  0.00     0.165 A 
ATOM     12  O   UNL     1       8.282  -3.007  -1.528  1.00  0.00    -0.454 OA
ATOM     13  O   UNL     1       8.991  -1.505  -2.967  1.00  0.00    -0.454 OA
ATOM     14  C   UNL     1       8.952  -2.896  -2.757  1.00  0.00     0.468 C 
ENDBRANCH   5   6
ENDBRANCH   1   5
TORSDOF 3
ENDMDL
