@<TRIPOS>MOLECULE
/home/cewinharhar/GITHUB/reincatalyze/data/processed/docking_pred/2023-May-25-1902_sub9_nm5_bs15_s42_ex16_mel10_mts10000_k50_ec01_g099_lra3e-4_lrc3e-3/8f258178c278a1f8efc989ef7d8625b520fa90c8_ligand_9.pdbqt
 14 15 0 0 0
SMALL
GASTEIGER

@<TRIPOS>ATOM
      1  C          5.3590   -0.0420    1.9810 C.3     1  UNL1        0.0800
      2  C          4.4640    1.1340    1.7900 C.2     1  UNL1        0.1300
      3  C          4.7240    2.1500    0.7350 C.3     1  UNL1        0.0870
      4  O          3.4850    1.2980    2.5000 O.2     1  UNL1       -0.3000
      5  C          6.8180    0.3560    1.8840 C.3     1  UNL1        0.0430
      6  C          7.4030   -0.0220    0.5850 C.2     1  UNL1       -0.0440
      7  C          7.8520    0.9410   -0.3260 C.2     1  UNL1        0.0080
      8  C          7.5160   -1.3520    0.2490 C.2     1  UNL1        0.0540
      9  C          8.3920    0.5270   -1.5290 C.2     1  UNL1        0.0510
     10  C          8.0640   -1.7660   -0.9690 C.2     1  UNL1        0.1660
     11  C          8.5050   -0.8180   -1.8660 C.2     1  UNL1        0.1650
     12  O          8.2820   -3.0070   -1.5280 O.2     1  UNL1       -0.4540
     13  O          8.9910   -1.5050   -2.9670 O.2     1  UNL1       -0.4540
     14  C          8.9520   -2.8960   -2.7570 C.3     1  UNL1        0.4680
@<TRIPOS>BOND
     1    13    14    1
     2    13    11    1
     3    14    12    1
     4    11     9    2
     5    11    10    1
     6     9     7    1
     7    12    10    1
     8    10     8    2
     9     7     6    2
    10     8     6    1
    11     6     5    1
    12     3     2    1
    13     2     1    1
    14     2     4    2
    15     5     1    1
