@<TRIPOS>MOLECULE
/home/cewinharhar/GITHUB/reincatalyze/data/processed/docking_pred/2023-May-25-1902_sub9_nm5_bs15_s42_ex16_mel10_mts10000_k50_ec01_g099_lra3e-4_lrc3e-3/8f258178c278a1f8efc989ef7d8625b520fa90c8_ligand_9.pdbqt
 14 15 0 0 0
SMALL
GASTEIGER

@<TRIPOS>ATOM
      1  C          6.3830    1.2040    0.8620 C.3     1  UNL1        0.0800
      2  C          5.7100    0.3680    1.8960 C.2     1  UNL1        0.1300
      3  C          6.3440   -0.8640    2.4380 C.3     1  UNL1        0.0870
      4  O          4.6120    0.6740    2.3310 O.2     1  UNL1       -0.3000
      5  C          5.8730    0.8760   -0.5270 C.3     1  UNL1        0.0430
      6  C          6.8360    0.0560   -1.2840 C.2     1  UNL1       -0.0440
      7  C          7.5530    0.5790   -2.3660 C.2     1  UNL1        0.0080
      8  C          7.0460   -1.2560   -0.9240 C.2     1  UNL1        0.0540
      9  C          8.4450   -0.2370   -3.0380 C.2     1  UNL1        0.0510
     10  C          7.9490   -2.0770   -1.6060 C.2     1  UNL1        0.1660
     11  C          8.6540   -1.5630   -2.6720 C.2     1  UNL1        0.1650
     12  O          8.3280   -3.3930   -1.4460 O.2     1  UNL1       -0.4540
     13  O          9.4610   -2.5840   -3.1480 O.2     1  UNL1       -0.4540
     14  C          9.3530   -3.7350   -2.3440 C.3     1  UNL1        0.4680
@<TRIPOS>BOND
     1    13    11    1
     2    13    14    1
     3     9    11    2
     4     9     7    1
     5    11    10    1
     6     7     6    2
     7    14    12    1
     8    10    12    1
     9    10     8    2
    10     6     8    1
    11     6     5    1
    12     5     1    1
    13     1     2    1
    14     2     4    2
    15     2     3    1
