@<TRIPOS>MOLECULE
/home/cewinharhar/GITHUB/reincatalyze/data/processed/docking_pred/2023-May-25-1902_sub9_nm5_bs15_s42_ex16_mel10_mts10000_k50_ec01_g099_lra3e-4_lrc3e-3/8f258178c278a1f8efc989ef7d8625b520fa90c8_ligand_9.pdbqt
 14 15 0 0 0
SMALL
GASTEIGER

@<TRIPOS>ATOM
      1  C          5.7690    1.4180   -0.2870 C.3     1  UNL1        0.0800
      2  C          5.1990    1.2870    1.0830 C.2     1  UNL1        0.1300
      3  C          5.4930    0.1090    1.9410 C.3     1  UNL1        0.0870
      4  O          4.4690    2.1500    1.5430 O.2     1  UNL1       -0.3000
      5  C          7.2670    1.1900   -0.2850 C.3     1  UNL1        0.0430
      6  C          7.6240   -0.1030   -0.8940 C.2     1  UNL1       -0.0440
      7  C          7.6850   -0.2680   -2.2820 C.2     1  UNL1        0.0080
      8  C          7.9090   -1.1820   -0.0870 C.2     1  UNL1        0.0540
      9  C          8.0260   -1.5060   -2.7970 C.2     1  UNL1        0.0510
     10  C          8.2550   -2.4300   -0.6120 C.2     1  UNL1        0.1660
     11  C          8.3130   -2.5940   -1.9780 C.2     1  UNL1        0.1650
     12  O          8.5760   -3.6380   -0.0300 O.2     1  UNL1       -0.4540
     13  O          8.6750   -3.9120   -2.2090 O.2     1  UNL1       -0.4540
     14  C          8.9400   -4.5850   -1.0020 C.3     1  UNL1        0.4680
@<TRIPOS>BOND
     1     9     7    1
     2     9    11    2
     3     7     6    2
     4    13    11    1
     5    13    14    1
     6    11    10    1
     7    14    12    1
     8     6     5    1
     9     6     8    1
    10    10     8    2
    11    10    12    1
    12     1     5    1
    13     1     2    1
    14     2     4    2
    15     2     3    1
