@<TRIPOS>MOLECULE
/home/cewinharhar/GITHUB/reincatalyze/data/processed/docking_pred/2023-May-25-1902_sub9_nm5_bs15_s42_ex16_mel10_mts10000_k50_ec01_g099_lra3e-4_lrc3e-3/8f258178c278a1f8efc989ef7d8625b520fa90c8_ligand_9.pdbqt
 14 15 0 0 0
SMALL
GASTEIGER

@<TRIPOS>ATOM
      1  C          5.5500    1.9170    1.2790 C.3     1  UNL1        0.0800
      2  C          5.1200    0.6980    2.0190 C.2     1  UNL1        0.1300
      3  C          6.0270   -0.4660    2.2000 C.3     1  UNL1        0.0870
      4  O          4.0010    0.6200    2.5000 O.2     1  UNL1       -0.3000
      5  C          5.4160    1.7280   -0.2190 C.3     1  UNL1        0.0430
      6  C          6.5810    1.0270   -0.7880 C.2     1  UNL1       -0.0440
      7  C          7.8890    1.4580   -0.5400 C.2     1  UNL1        0.0080
      8  C          6.3890   -0.0810   -1.5820 C.2     1  UNL1        0.0540
      9  C          8.9430    0.7590   -1.1000 C.2     1  UNL1        0.0510
     10  C          7.4580   -0.7840   -2.1460 C.2     1  UNL1        0.1660
     11  C          8.7450   -0.3600   -1.9030 C.2     1  UNL1        0.1650
     12  O          7.5270   -1.8960   -2.9580 O.2     1  UNL1       -0.4540
     13  O          9.5880   -1.2300   -2.5770 O.2     1  UNL1       -0.4540
     14  C          8.8610   -2.2720   -3.1840 C.3     1  UNL1        0.4680
@<TRIPOS>BOND
     1    14    12    1
     2    14    13    1
     3    12    10    1
     4    13    11    1
     5    10    11    2
     6    10     8    1
     7    11     9    1
     8     8     6    2
     9     9     7    2
    10     6     7    1
    11     6     5    1
    12     5     1    1
    13     1     2    1
    14     2     3    1
    15     2     4    2
