@<TRIPOS>MOLECULE
/home/cewinharhar/GITHUB/reincatalyze/data/processed/docking_pred/2023-May-25-1902_sub9_nm5_bs15_s42_ex16_mel10_mts10000_k50_ec01_g099_lra3e-4_lrc3e-3/8f258178c278a1f8efc989ef7d8625b520fa90c8_ligand_9.pdbqt
 14 15 0 0 0
SMALL
GASTEIGER

@<TRIPOS>ATOM
      1  C          5.5360   -0.0220    1.9400 C.3     1  UNL1        0.0800
      2  C          4.6590    1.1450    1.6440 C.2     1  UNL1        0.1300
      3  C          4.9690    2.0960    0.5430 C.3     1  UNL1        0.0870
      4  O          3.6530    1.3560    2.3030 O.2     1  UNL1       -0.3000
      5  C          6.9560    0.2230    1.4690 C.3     1  UNL1        0.0430
      6  C          7.3600   -0.7390    0.4300 C.2     1  UNL1       -0.0440
      7  C          7.2280   -0.4460   -0.9330 C.2     1  UNL1        0.0080
      8  C          7.8850   -1.9580    0.7950 C.2     1  UNL1        0.0540
      9  C          7.6250   -1.3880   -1.8640 C.2     1  UNL1        0.0510
     10  C          8.2860   -2.9070   -0.1500 C.2     1  UNL1        0.1660
     11  C          8.1550   -2.6200   -1.4910 C.2     1  UNL1        0.1650
     12  O          8.8270   -4.1710   -0.0420 O.2     1  UNL1       -0.4540
     13  O          8.6240   -3.7240   -2.1850 O.2     1  UNL1       -0.4540
     14  C          9.1440   -4.6930   -1.3070 C.3     1  UNL1        0.4680
@<TRIPOS>BOND
     1    13    11    1
     2    13    14    1
     3     9    11    2
     4     9     7    1
     5    11    10    1
     6    14    12    1
     7     7     6    2
     8    10    12    1
     9    10     8    2
    10     6     8    1
    11     6     5    1
    12     3     2    1
    13     5     1    1
    14     2     1    1
    15     2     4    2
