MODEL 1
REMARK VINA RESULT:      -7.6      0.000      0.000
REMARK SMILES CC(=O)CCc1ccc2c(c1)OCO2
REMARK SMILES IDX 4 1 2 2 1 3 3 4 5 5 6 6 7 7 11 8 8 9 10 10 9 11 12 12 14 13
REMARK SMILES IDX 13 14
REMARK H PARENT
REMARK Flexibility Score: inf
ROOT
ATOM      1  C   UNL     1       5.550   1.895   1.291  1.00  0.00     0.080 C 
ENDROOT
BRANCH   1   2
ATOM      2  C   UNL     1       5.118   0.670   2.022  1.00  0.00     0.130 C 
ATOM      3  C   UNL     1       6.023  -0.498   2.189  1.00  0.00     0.087 C 
ATOM      4  O   UNL     1       4.001   0.591   2.506  1.00  0.00    -0.300 OA
ENDBRANCH   1   2
BRANCH   1   5
ATOM      5  C   UNL     1       5.413   1.718  -0.208  1.00  0.00     0.043 C 
BRANCH   5   6
ATOM      6  C   UNL     1       6.577   1.023  -0.785  1.00  0.00    -0.044 A 
ATOM      7  C   UNL     1       7.885   1.463  -0.549  1.00  0.00     0.008 A 
ATOM      8  C   UNL     1       6.386  -0.088  -1.574  1.00  0.00     0.054 A 
ATOM      9  C   UNL     1       8.939   0.770  -1.116  1.00  0.00     0.051 A 
ATOM     10  C   UNL     1       7.455  -0.786  -2.145  1.00  0.00     0.166 A 
ATOM     11  C   UNL     1       8.742  -0.352  -1.914  1.00  0.00     0.165 A 
ATOM     12  O   UNL     1       7.526  -1.900  -2.954  1.00  0.00    -0.454 OA
ATOM     13  O   UNL     1       9.585  -1.219  -2.593  1.00  0.00    -0.454 OA
ATOM     14  C   UNL     1       8.861  -2.268  -3.190  1.00  0.00     0.468 C 
ENDBRANCH   5   6
ENDBRANCH   1   5
TORSDOF 3
ENDMDL
MODEL 2
REMARK VINA RESULT:      -7.4      1.939      2.398
REMARK SMILES CC(=O)CCc1ccc2c(c1)OCO2
REMARK SMILES IDX 4 1 2 2 1 3 3 4 5 5 6 6 7 7 11 8 8 9 10 10 9 11 12 12 14 13
REMARK SMILES IDX 13 14
REMARK H PARENT
REMARK Flexibility Score: inf
ROOT
ATOM      1  C   UNL     1       5.713   1.314  -0.274  1.00  0.00     0.080 C 
ENDROOT
BRANCH   1   2
ATOM      2  C   UNL     1       5.125   1.260   1.093  1.00  0.00     0.130 C 
ATOM      3  C   UNL     1       5.404   0.130   2.019  1.00  0.00     0.087 C 
ATOM      4  O   UNL     1       4.391   2.149   1.495  1.00  0.00    -0.300 OA
ENDBRANCH   1   2
BRANCH   1   5
ATOM      5  C   UNL     1       7.212   1.092  -0.238  1.00  0.00     0.043 C 
BRANCH   5   6
ATOM      6  C   UNL     1       7.588  -0.197  -0.845  1.00  0.00    -0.044 A 
ATOM      7  C   UNL     1       7.643  -0.366  -2.233  1.00  0.00     0.008 A 
ATOM      8  C   UNL     1       7.898  -1.267  -0.036  1.00  0.00     0.054 A 
ATOM      9  C   UNL     1       8.003  -1.599  -2.745  1.00  0.00     0.051 A 
ATOM     10  C   UNL     1       8.263  -2.512  -0.559  1.00  0.00     0.166 A 
ATOM     11  C   UNL     1       8.315  -2.679  -1.925  1.00  0.00     0.165 A 
ATOM     12  O   UNL     1       8.610  -3.711   0.025  1.00  0.00    -0.454 OA
ATOM     13  O   UNL     1       8.699  -3.991  -2.154  1.00  0.00    -0.454 OA
ATOM     14  C   UNL     1       8.984  -4.655  -0.946  1.00  0.00     0.468 C 
ENDBRANCH   5   6
ENDBRANCH   1   5
TORSDOF 3
ENDMDL
MODEL 3
REMARK VINA RESULT:      -7.1      2.092      2.650
REMARK SMILES CC(=O)CCc1ccc2c(c1)OCO2
REMARK SMILES IDX 4 1 2 2 1 3 3 4 5 5 6 6 7 7 11 8 8 9 10 10 9 11 12 12 14 13
REMARK SMILES IDX 13 14
REMARK H PARENT
REMARK Flexibility Score: inf
ROOT
ATOM      1  C   UNL     1       5.499  -0.036   1.950  1.00  0.00     0.080 C 
ENDROOT
BRANCH   1   2
ATOM      2  C   UNL     1       4.663   1.159   1.644  1.00  0.00     0.130 C 
ATOM      3  C   UNL     1       5.023   2.105   0.555  1.00  0.00     0.087 C 
ATOM      4  O   UNL     1       3.653   1.397   2.285  1.00  0.00    -0.300 OA
ENDBRANCH   1   2
BRANCH   1   5
ATOM      5  C   UNL     1       6.942   0.182   1.538  1.00  0.00     0.043 C 
BRANCH   5   6
ATOM      6  C   UNL     1       7.357  -0.759   0.483  1.00  0.00    -0.044 A 
ATOM      7  C   UNL     1       7.245  -0.435  -0.874  1.00  0.00     0.008 A 
ATOM      8  C   UNL     1       7.870  -1.989   0.828  1.00  0.00     0.054 A 
ATOM      9  C   UNL     1       7.651  -1.358  -1.820  1.00  0.00     0.051 A 
ATOM     10  C   UNL     1       8.280  -2.918  -0.132  1.00  0.00     0.166 A 
ATOM     11  C   UNL     1       8.169  -2.600  -1.468  1.00  0.00     0.165 A 
ATOM     12  O   UNL     1       8.814  -4.187  -0.045  1.00  0.00    -0.454 OA
ATOM     13  O   UNL     1       8.643  -3.691  -2.180  1.00  0.00    -0.454 OA
ATOM     14  C   UNL     1       9.146  -4.682  -1.316  1.00  0.00     0.468 C 
ENDBRANCH   5   6
ENDBRANCH   1   5
TORSDOF 3
ENDMDL
MODEL 4
REMARK VINA RESULT:      -7.0      1.246      1.447
REMARK SMILES CC(=O)CCc1ccc2c(c1)OCO2
REMARK SMILES IDX 4 1 2 2 1 3 3 4 5 5 6 6 7 7 11 8 8 9 10 10 9 11 12 12 14 13
REMARK SMILES IDX 13 14
REMARK H PARENT
REMARK Flexibility Score: inf
ROOT
ATOM      1  C   UNL     1       6.362   1.221   0.942  1.00  0.00     0.080 C 
ENDROOT
BRANCH   1   2
ATOM      2  C   UNL     1       5.635   0.387   1.939  1.00  0.00     0.130 C 
ATOM      3  C   UNL     1       6.244  -0.836   2.528  1.00  0.00     0.087 C 
ATOM      4  O   UNL     1       4.509   0.685   2.304  1.00  0.00    -0.300 OA
ENDBRANCH   1   2
BRANCH   1   5
ATOM      5  C   UNL     1       5.861   0.960  -0.464  1.00  0.00     0.043 C 
BRANCH   5   6
ATOM      6  C   UNL     1       6.803   0.129  -1.235  1.00  0.00    -0.044 A 
ATOM      7  C   UNL     1       7.481   0.633  -2.351  1.00  0.00     0.008 A 
ATOM      8  C   UNL     1       7.032  -1.174  -0.855  1.00  0.00     0.054 A 
ATOM      9  C   UNL     1       8.354  -0.193  -3.035  1.00  0.00     0.051 A 
ATOM     10  C   UNL     1       7.916  -2.005  -1.550  1.00  0.00     0.166 A 
ATOM     11  C   UNL     1       8.583  -1.510  -2.649  1.00  0.00     0.165 A 
ATOM     12  O   UNL     1       8.308  -3.315  -1.375  1.00  0.00    -0.454 OA
ATOM     13  O   UNL     1       9.379  -2.538  -3.130  1.00  0.00    -0.454 OA
ATOM     14  C   UNL     1       9.304  -3.671  -2.299  1.00  0.00     0.468 C 
ENDBRANCH   5   6
ENDBRANCH   1   5
TORSDOF 3
ENDMDL
MODEL 5
REMARK VINA RESULT:      -7.0      1.960      2.529
REMARK SMILES CC(=O)CCc1ccc2c(c1)OCO2
REMARK SMILES IDX 4 1 2 2 1 3 3 4 5 5 6 6 7 7 11 8 8 9 10 10 9 11 12 12 14 13
REMARK SMILES IDX 13 14
REMARK H PARENT
REMARK Flexibility Score: inf
ROOT
ATOM      1  C   UNL     1       6.929   0.975   1.178  1.00  0.00     0.080 C 
ENDROOT
BRANCH   1   2
ATOM      2  C   UNL     1       5.463   1.168   1.356  1.00  0.00     0.130 C 
ATOM      3  C   UNL     1       4.699   2.150   0.541  1.00  0.00     0.087 C 
ATOM      4  O   UNL     1       4.841   0.520   2.183  1.00  0.00    -0.300 OA
ENDBRANCH   1   2
BRANCH   1   5
ATOM      5  C   UNL     1       7.329   1.107  -0.278  1.00  0.00     0.043 C 
BRANCH   5   6
ATOM      6  C   UNL     1       7.682  -0.196  -0.868  1.00  0.00    -0.044 A 
ATOM      7  C   UNL     1       7.771  -0.375  -2.253  1.00  0.00     0.008 A 
ATOM      8  C   UNL     1       7.937  -1.271  -0.046  1.00  0.00     0.054 A 
ATOM      9  C   UNL     1       8.108  -1.621  -2.749  1.00  0.00     0.051 A 
ATOM     10  C   UNL     1       8.278  -2.528  -0.552  1.00  0.00     0.166 A 
ATOM     11  C   UNL     1       8.364  -2.705  -1.915  1.00  0.00     0.165 A 
ATOM     12  O   UNL     1       8.572  -3.735   0.047  1.00  0.00    -0.454 OA
ATOM     13  O   UNL     1       8.714  -4.029  -2.127  1.00  0.00    -0.454 OA
ATOM     14  C   UNL     1       8.944  -4.695  -0.908  1.00  0.00     0.468 C 
ENDBRANCH   5   6
ENDBRANCH   1   5
TORSDOF 3
ENDMDL
