@<TRIPOS>MOLECULE
/home/cewinharhar/GITHUB/reincatalyze/data/processed/docking_pred/2023-May-25-1902_sub9_nm5_bs15_s42_ex16_mel10_mts10000_k50_ec01_g099_lra3e-4_lrc3e-3/8f3f3cc121b2e0b9b67c9595347d7d2b0dd21437_ligand_9.pdbqt
 14 15 0 0 0
SMALL
GASTEIGER

@<TRIPOS>ATOM
      1  C          5.5500    1.8950    1.2910 C.3     1  UNL1        0.0800
      2  C          5.1180    0.6700    2.0220 C.2     1  UNL1        0.1300
      3  C          6.0230   -0.4980    2.1890 C.3     1  UNL1        0.0870
      4  O          4.0010    0.5910    2.5060 O.2     1  UNL1       -0.3000
      5  C          5.4130    1.7180   -0.2080 C.3     1  UNL1        0.0430
      6  C          6.5770    1.0230   -0.7850 C.2     1  UNL1       -0.0440
      7  C          7.8850    1.4630   -0.5490 C.2     1  UNL1        0.0080
      8  C          6.3860   -0.0880   -1.5740 C.2     1  UNL1        0.0540
      9  C          8.9390    0.7700   -1.1160 C.2     1  UNL1        0.0510
     10  C          7.4550   -0.7860   -2.1450 C.2     1  UNL1        0.1660
     11  C          8.7420   -0.3520   -1.9140 C.2     1  UNL1        0.1650
     12  O          7.5260   -1.9000   -2.9540 O.2     1  UNL1       -0.4540
     13  O          9.5850   -1.2190   -2.5930 O.2     1  UNL1       -0.4540
     14  C          8.8610   -2.2680   -3.1900 C.3     1  UNL1        0.4680
@<TRIPOS>BOND
     1    14    12    1
     2    14    13    1
     3    12    10    1
     4    13    11    1
     5    10    11    2
     6    10     8    1
     7    11     9    1
     8     8     6    2
     9     9     7    2
    10     6     7    1
    11     6     5    1
    12     5     1    1
    13     1     2    1
    14     2     3    1
    15     2     4    2
