@<TRIPOS>MOLECULE
/home/cewinharhar/GITHUB/reincatalyze/data/processed/docking_pred/2023-May-25-1902_sub9_nm5_bs15_s42_ex16_mel10_mts10000_k50_ec01_g099_lra3e-4_lrc3e-3/8f7e92428ebbeefdf44ae8ea1c0956f20f305f25_ligand_9.pdbqt
 14 15 0 0 0
SMALL
GASTEIGER

@<TRIPOS>ATOM
      1  C          6.0780    1.3560    1.0910 C.3     1  UNL1        0.0800
      2  C          5.5420    0.3100    2.0060 C.2     1  UNL1        0.1300
      3  C          6.3230   -0.9130    2.3370 C.3     1  UNL1        0.0870
      4  O          4.4390    0.4270    2.5140 O.2     1  UNL1       -0.3000
      5  C          5.6960    1.0760   -0.3490 C.3     1  UNL1        0.0430
      6  C          6.8150    0.4860   -1.1070 C.2     1  UNL1       -0.0440
      7  C          6.6680   -0.7100   -1.8180 C.2     1  UNL1        0.0080
      8  C          8.0360    1.1210   -1.1240 C.2     1  UNL1        0.0540
      9  C          7.7530   -1.2150   -2.5110 C.2     1  UNL1        0.0510
     10  C          9.1290    0.6060   -1.8270 C.2     1  UNL1        0.1660
     11  C          8.9870   -0.5720   -2.5260 C.2     1  UNL1        0.1650
     12  O         10.4270    1.0410   -1.9960 O.2     1  UNL1       -0.4540
     13  O         10.2120   -0.8380   -3.1170 O.2     1  UNL1       -0.4540
     14  C         11.1270    0.2050   -2.8820 C.3     1  UNL1        0.4680
@<TRIPOS>BOND
     1    13    14    1
     2    13    11    1
     3    14    12    1
     4    11     9    2
     5    11    10    1
     6     9     7    1
     7    12    10    1
     8    10     8    2
     9     7     6    2
    10     8     6    1
    11     6     5    1
    12     5     1    1
    13     1     2    1
    14     2     3    1
    15     2     4    2
