@<TRIPOS>MOLECULE
/home/cewinharhar/GITHUB/reincatalyze/data/processed/docking_pred/2023-May-25-1902_sub9_nm5_bs15_s42_ex16_mel10_mts10000_k50_ec01_g099_lra3e-4_lrc3e-3/8f7e92428ebbeefdf44ae8ea1c0956f20f305f25_ligand_9.pdbqt
 14 15 0 0 0
SMALL
GASTEIGER

@<TRIPOS>ATOM
      1  C          5.7830   -0.5140    1.7260 C.3     1  UNL1        0.0800
      2  C          4.9490    0.7200    1.7550 C.2     1  UNL1        0.1300
      3  C          5.1960    1.8520    0.8220 C.3     1  UNL1        0.0870
      4  O          4.0330    0.8380    2.5530 O.2     1  UNL1       -0.3000
      5  C          7.2390   -0.1880    1.4590 C.3     1  UNL1        0.0430
      6  C          7.5790   -0.3300    0.0320 C.2     1  UNL1       -0.0440
      7  C          6.9220   -1.2530   -0.7890 C.2     1  UNL1        0.0080
      8  C          8.5640    0.4600   -0.5170 C.2     1  UNL1        0.0540
      9  C          7.2820   -1.3420   -2.1210 C.2     1  UNL1        0.0510
     10  C          8.9240    0.3670   -1.8640 C.2     1  UNL1        0.1660
     11  C          8.2790   -0.5420   -2.6730 C.2     1  UNL1        0.1650
     12  O          9.8560    1.0290   -2.6350 O.2     1  UNL1       -0.4540
     13  O          8.8320   -0.4170   -3.9380 O.2     1  UNL1       -0.4540
     14  C          9.7720    0.6300   -3.9800 C.3     1  UNL1        0.4680
@<TRIPOS>BOND
     1    14    13    1
     2    14    12    1
     3    13    11    1
     4    11     9    2
     5    11    10    1
     6    12    10    1
     7     9     7    1
     8    10     8    2
     9     7     6    2
    10     8     6    1
    11     6     5    1
    12     3     2    1
    13     5     1    1
    14     1     2    1
    15     2     4    2
