MODEL 1
REMARK VINA RESULT:      -7.6      0.000      0.000
REMARK SMILES CC(=O)CCc1ccc2c(c1)OCO2
REMARK SMILES IDX 4 1 2 2 1 3 3 4 5 5 6 6 7 7 11 8 8 9 10 10 9 11 12 12 14 13
REMARK SMILES IDX 13 14
REMARK H PARENT
REMARK Flexibility Score: inf
ROOT
ATOM      1  C   UNL     1       5.581   1.714   1.149  1.00  0.00     0.080 C 
ENDROOT
BRANCH   1   2
ATOM      2  C   UNL     1       5.048   0.544   1.902  1.00  0.00     0.130 C 
ATOM      3  C   UNL     1       5.754  -0.765   1.912  1.00  0.00     0.087 C 
ATOM      4  O   UNL     1       4.009   0.628   2.536  1.00  0.00    -0.300 OA
ENDBRANCH   1   2
BRANCH   1   5
ATOM      5  C   UNL     1       5.479   1.498  -0.348  1.00  0.00     0.043 C 
BRANCH   5   6
ATOM      6  C   UNL     1       6.728   0.952  -0.908  1.00  0.00    -0.044 A 
ATOM      7  C   UNL     1       7.981   1.442  -0.521  1.00  0.00     0.008 A 
ATOM      8  C   UNL     1       6.674  -0.067  -1.832  1.00  0.00     0.054 A 
ATOM      9  C   UNL     1       9.119   0.890  -1.080  1.00  0.00     0.051 A 
ATOM     10  C   UNL     1       7.828  -0.622  -2.394  1.00  0.00     0.166 A 
ATOM     11  C   UNL     1       9.060  -0.139  -2.014  1.00  0.00     0.165 A 
ATOM     12  O   UNL     1       8.035  -1.624  -3.317  1.00  0.00    -0.454 OA
ATOM     13  O   UNL     1      10.009  -0.863  -2.720  1.00  0.00    -0.454 OA
ATOM     14  C   UNL     1       9.406  -1.876  -3.489  1.00  0.00     0.468 C 
ENDBRANCH   5   6
ENDBRANCH   1   5
TORSDOF 3
ENDMDL
MODEL 2
REMARK VINA RESULT:      -7.4      0.996      1.861
REMARK SMILES CC(=O)CCc1ccc2c(c1)OCO2
REMARK SMILES IDX 4 1 2 2 1 3 3 4 5 5 6 6 7 7 11 8 8 9 10 10 9 11 12 12 14 13
REMARK SMILES IDX 13 14
REMARK H PARENT
REMARK Flexibility Score: inf
ROOT
ATOM      1  C   UNL     1       6.078   1.356   1.091  1.00  0.00     0.080 C 
ENDROOT
BRANCH   1   2
ATOM      2  C   UNL     1       5.542   0.310   2.006  1.00  0.00     0.130 C 
ATOM      3  C   UNL     1       6.323  -0.913   2.337  1.00  0.00     0.087 C 
ATOM      4  O   UNL     1       4.439   0.427   2.514  1.00  0.00    -0.300 OA
ENDBRANCH   1   2
BRANCH   1   5
ATOM      5  C   UNL     1       5.696   1.076  -0.349  1.00  0.00     0.043 C 
BRANCH   5   6
ATOM      6  C   UNL     1       6.815   0.486  -1.107  1.00  0.00    -0.044 A 
ATOM      7  C   UNL     1       6.668  -0.710  -1.818  1.00  0.00     0.008 A 
ATOM      8  C   UNL     1       8.036   1.121  -1.124  1.00  0.00     0.054 A 
ATOM      9  C   UNL     1       7.753  -1.215  -2.511  1.00  0.00     0.051 A 
ATOM     10  C   UNL     1       9.129   0.606  -1.827  1.00  0.00     0.166 A 
ATOM     11  C   UNL     1       8.987  -0.572  -2.526  1.00  0.00     0.165 A 
ATOM     12  O   UNL     1      10.427   1.041  -1.996  1.00  0.00    -0.454 OA
ATOM     13  O   UNL     1      10.212  -0.838  -3.117  1.00  0.00    -0.454 OA
ATOM     14  C   UNL     1      11.127   0.205  -2.882  1.00  0.00     0.468 C 
ENDBRANCH   5   6
ENDBRANCH   1   5
TORSDOF 3
ENDMDL
MODEL 3
REMARK VINA RESULT:      -7.3      2.106      2.565
REMARK SMILES CC(=O)CCc1ccc2c(c1)OCO2
REMARK SMILES IDX 4 1 2 2 1 3 3 4 5 5 6 6 7 7 11 8 8 9 10 10 9 11 12 12 14 13
REMARK SMILES IDX 13 14
REMARK H PARENT
REMARK Flexibility Score: inf
ROOT
ATOM      1  C   UNL     1       5.683   1.290  -0.317  1.00  0.00     0.080 C 
ENDROOT
BRANCH   1   2
ATOM      2  C   UNL     1       5.097   1.233   1.051  1.00  0.00     0.130 C 
ATOM      3  C   UNL     1       5.324   0.069   1.949  1.00  0.00     0.087 C 
ATOM      4  O   UNL     1       4.408   2.146   1.476  1.00  0.00    -0.300 OA
ENDBRANCH   1   2
BRANCH   1   5
ATOM      5  C   UNL     1       7.183   1.072  -0.283  1.00  0.00     0.043 C 
BRANCH   5   6
ATOM      6  C   UNL     1       7.562  -0.216  -0.890  1.00  0.00    -0.044 A 
ATOM      7  C   UNL     1       7.596  -0.390  -2.279  1.00  0.00     0.008 A 
ATOM      8  C   UNL     1       7.896  -1.279  -0.083  1.00  0.00     0.054 A 
ATOM      9  C   UNL     1       7.960  -1.622  -2.792  1.00  0.00     0.051 A 
ATOM     10  C   UNL     1       8.264  -2.522  -0.606  1.00  0.00     0.166 A 
ATOM     11  C   UNL     1       8.296  -2.695  -1.972  1.00  0.00     0.165 A 
ATOM     12  O   UNL     1       8.633  -3.716  -0.023  1.00  0.00    -0.454 OA
ATOM     13  O   UNL     1       8.689  -4.004  -2.201  1.00  0.00    -0.454 OA
ATOM     14  C   UNL     1       9.001  -4.660  -0.995  1.00  0.00     0.468 C 
ENDBRANCH   5   6
ENDBRANCH   1   5
TORSDOF 3
ENDMDL
MODEL 4
REMARK VINA RESULT:      -7.3      1.264      2.298
REMARK SMILES CC(=O)CCc1ccc2c(c1)OCO2
REMARK SMILES IDX 4 1 2 2 1 3 3 4 5 5 6 6 7 7 11 8 8 9 10 10 9 11 12 12 14 13
REMARK SMILES IDX 13 14
REMARK H PARENT
REMARK Flexibility Score: inf
ROOT
ATOM      1  C   UNL     1       5.783  -0.514   1.726  1.00  0.00     0.080 C 
ENDROOT
BRANCH   1   2
ATOM      2  C   UNL     1       4.949   0.720   1.755  1.00  0.00     0.130 C 
ATOM      3  C   UNL     1       5.196   1.852   0.822  1.00  0.00     0.087 C 
ATOM      4  O   UNL     1       4.033   0.838   2.553  1.00  0.00    -0.300 OA
ENDBRANCH   1   2
BRANCH   1   5
ATOM      5  C   UNL     1       7.239  -0.188   1.459  1.00  0.00     0.043 C 
BRANCH   5   6
ATOM      6  C   UNL     1       7.579  -0.330   0.032  1.00  0.00    -0.044 A 
ATOM      7  C   UNL     1       6.922  -1.253  -0.789  1.00  0.00     0.008 A 
ATOM      8  C   UNL     1       8.564   0.460  -0.517  1.00  0.00     0.054 A 
ATOM      9  C   UNL     1       7.282  -1.342  -2.121  1.00  0.00     0.051 A 
ATOM     10  C   UNL     1       8.924   0.367  -1.864  1.00  0.00     0.166 A 
ATOM     11  C   UNL     1       8.279  -0.542  -2.673  1.00  0.00     0.165 A 
ATOM     12  O   UNL     1       9.856   1.029  -2.635  1.00  0.00    -0.454 OA
ATOM     13  O   UNL     1       8.832  -0.417  -3.938  1.00  0.00    -0.454 OA
ATOM     14  C   UNL     1       9.772   0.630  -3.980  1.00  0.00     0.468 C 
ENDBRANCH   5   6
ENDBRANCH   1   5
TORSDOF 3
ENDMDL
MODEL 5
REMARK VINA RESULT:      -7.1      1.462      1.840
REMARK SMILES CC(=O)CCc1ccc2c(c1)OCO2
REMARK SMILES IDX 4 1 2 2 1 3 3 4 5 5 6 6 7 7 11 8 8 9 10 10 9 11 12 12 14 13
REMARK SMILES IDX 13 14
REMARK H PARENT
REMARK Flexibility Score: inf
ROOT
ATOM      1  C   UNL     1       6.563   1.352   0.127  1.00  0.00     0.080 C 
ENDROOT
BRANCH   1   2
ATOM      2  C   UNL     1       5.507   1.105   1.148  1.00  0.00     0.130 C 
ATOM      3  C   UNL     1       5.496  -0.128   1.979  1.00  0.00     0.087 C 
ATOM      4  O   UNL     1       4.612   1.915   1.332  1.00  0.00    -0.300 OA
ENDBRANCH   1   2
BRANCH   1   5
ATOM      5  C   UNL     1       6.140   0.845  -1.237  1.00  0.00     0.043 C 
BRANCH   5   6
ATOM      6  C   UNL     1       7.166  -0.025  -1.840  1.00  0.00    -0.044 A 
ATOM      7  C   UNL     1       8.081   0.463  -2.780  1.00  0.00     0.008 A 
ATOM      8  C   UNL     1       7.236  -1.350  -1.475  1.00  0.00     0.054 A 
ATOM      9  C   UNL     1       9.022  -0.400  -3.311  1.00  0.00     0.051 A 
ATOM     10  C   UNL     1       8.190  -2.219  -2.014  1.00  0.00     0.166 A 
ATOM     11  C   UNL     1       9.090  -1.739  -2.940  1.00  0.00     0.165 A 
ATOM     12  O   UNL     1       8.460  -3.556  -1.818  1.00  0.00    -0.454 OA
ATOM     13  O   UNL     1       9.904  -2.804  -3.296  1.00  0.00    -0.454 OA
ATOM     14  C   UNL     1       9.598  -3.952  -2.541  1.00  0.00     0.468 C 
ENDBRANCH   5   6
ENDBRANCH   1   5
TORSDOF 3
ENDMDL
