@<TRIPOS>MOLECULE
/home/cewinharhar/GITHUB/reincatalyze/data/processed/docking_pred/2023-May-25-1902_sub9_nm5_bs15_s42_ex16_mel10_mts10000_k50_ec01_g099_lra3e-4_lrc3e-3/90bec1d2941dc3e2c4ee946d92d9c3e8ec331448_ligand_9.pdbqt
 14 15 0 0 0
SMALL
GASTEIGER

@<TRIPOS>ATOM
      1  C          5.3920   -0.0830    2.0140 C.3     1  UNL1        0.0800
      2  C          4.5620    1.1290    1.7700 C.2     1  UNL1        0.1300
      3  C          4.9210    2.1240    0.7240 C.3     1  UNL1        0.0870
      4  O          3.5560    1.3420    2.4270 O.2     1  UNL1       -0.3000
      5  C          6.8380    0.1520    1.6240 C.3     1  UNL1        0.0430
      6  C          7.2700   -0.7620    0.5520 C.2     1  UNL1       -0.0440
      7  C          7.1470   -0.4180   -0.7990 C.2     1  UNL1        0.0080
      8  C          7.8120   -1.9850    0.8760 C.2     1  UNL1        0.0540
      9  C          7.5700   -1.3160   -1.7620 C.2     1  UNL1        0.0510
     10  C          8.2400   -2.8890   -0.1010 C.2     1  UNL1        0.1660
     11  C          8.1170   -2.5520   -1.4310 C.2     1  UNL1        0.1650
     12  O          8.8020   -4.1470   -0.0370 O.2     1  UNL1       -0.4540
     13  O          8.6130   -3.6200   -2.1630 O.2     1  UNL1       -0.4540
     14  C          9.1410   -4.6140   -1.3170 C.3     1  UNL1        0.4680
@<TRIPOS>BOND
     1    13    11    1
     2    13    14    1
     3     9    11    2
     4     9     7    1
     5    11    10    1
     6    14    12    1
     7     7     6    2
     8    10    12    1
     9    10     8    2
    10     6     8    1
    11     6     5    1
    12     3     2    1
    13     5     1    1
    14     2     1    1
    15     2     4    2
