@<TRIPOS>MOLECULE
/home/cewinharhar/GITHUB/reincatalyze/data/processed/docking_pred/2023-May-25-1902_sub9_nm5_bs15_s42_ex16_mel10_mts10000_k50_ec01_g099_lra3e-4_lrc3e-3/90bec1d2941dc3e2c4ee946d92d9c3e8ec331448_ligand_9.pdbqt
 14 15 0 0 0
SMALL
GASTEIGER

@<TRIPOS>ATOM
      1  C          5.5410    1.8450    1.3280 C.3     1  UNL1        0.0800
      2  C          5.0750    0.6220    2.0400 C.2     1  UNL1        0.1300
      3  C          5.9430   -0.5770    2.1820 C.3     1  UNL1        0.0870
      4  O          3.9590    0.5700    2.5300 O.2     1  UNL1       -0.3000
      5  C          5.4110    1.6900   -0.1740 C.3     1  UNL1        0.0430
      6  C          6.5820    1.0120   -0.7570 C.2     1  UNL1       -0.0440
      7  C          7.8840    1.4780   -0.5390 C.2     1  UNL1        0.0080
      8  C          6.4040   -0.1100   -1.5340 C.2     1  UNL1        0.0540
      9  C          8.9440    0.7990   -1.1110 C.2     1  UNL1        0.0510
     10  C          7.4790   -0.7930   -2.1100 C.2     1  UNL1        0.1660
     11  C          8.7600   -0.3340   -1.8970 C.2     1  UNL1        0.1650
     12  O          7.5620   -1.9130   -2.9100 O.2     1  UNL1       -0.4540
     13  O          9.6110   -1.1920   -2.5760 O.2     1  UNL1       -0.4540
     14  C          8.9010   -2.2590   -3.1570 C.3     1  UNL1        0.4680
@<TRIPOS>BOND
     1    14    12    1
     2    14    13    1
     3    12    10    1
     4    13    11    1
     5    10    11    2
     6    10     8    1
     7    11     9    1
     8     8     6    2
     9     9     7    2
    10     6     7    1
    11     6     5    1
    12     5     1    1
    13     1     2    1
    14     2     3    1
    15     2     4    2
