MODEL 1
REMARK VINA RESULT:      -7.6      0.000      0.000
REMARK SMILES CC(=O)CCc1ccc2c(c1)OCO2
REMARK SMILES IDX 4 1 2 2 1 3 3 4 5 5 6 6 7 7 11 8 8 9 10 10 9 11 12 12 14 13
REMARK SMILES IDX 13 14
REMARK H PARENT
REMARK Flexibility Score: inf
ROOT
ATOM      1  C   UNL     1       5.541   1.845   1.328  1.00  0.00     0.080 C 
ENDROOT
BRANCH   1   2
ATOM      2  C   UNL     1       5.075   0.622   2.040  1.00  0.00     0.130 C 
ATOM      3  C   UNL     1       5.943  -0.577   2.182  1.00  0.00     0.087 C 
ATOM      4  O   UNL     1       3.959   0.570   2.530  1.00  0.00    -0.300 OA
ENDBRANCH   1   2
BRANCH   1   5
ATOM      5  C   UNL     1       5.411   1.690  -0.174  1.00  0.00     0.043 C 
BRANCH   5   6
ATOM      6  C   UNL     1       6.582   1.012  -0.757  1.00  0.00    -0.044 A 
ATOM      7  C   UNL     1       7.884   1.478  -0.539  1.00  0.00     0.008 A 
ATOM      8  C   UNL     1       6.404  -0.110  -1.534  1.00  0.00     0.054 A 
ATOM      9  C   UNL     1       8.944   0.799  -1.111  1.00  0.00     0.051 A 
ATOM     10  C   UNL     1       7.479  -0.793  -2.110  1.00  0.00     0.166 A 
ATOM     11  C   UNL     1       8.760  -0.334  -1.897  1.00  0.00     0.165 A 
ATOM     12  O   UNL     1       7.562  -1.913  -2.910  1.00  0.00    -0.454 OA
ATOM     13  O   UNL     1       9.611  -1.192  -2.576  1.00  0.00    -0.454 OA
ATOM     14  C   UNL     1       8.901  -2.259  -3.157  1.00  0.00     0.468 C 
ENDBRANCH   5   6
ENDBRANCH   1   5
TORSDOF 3
ENDMDL
MODEL 2
REMARK VINA RESULT:      -7.4      1.903      2.382
REMARK SMILES CC(=O)CCc1ccc2c(c1)OCO2
REMARK SMILES IDX 4 1 2 2 1 3 3 4 5 5 6 6 7 7 11 8 8 9 10 10 9 11 12 12 14 13
REMARK SMILES IDX 13 14
REMARK H PARENT
REMARK Flexibility Score: inf
ROOT
ATOM      1  C   UNL     1       5.733   1.290  -0.284  1.00  0.00     0.080 C 
ENDROOT
BRANCH   1   2
ATOM      2  C   UNL     1       5.169   1.224   1.093  1.00  0.00     0.130 C 
ATOM      3  C   UNL     1       5.376   0.038   1.966  1.00  0.00     0.087 C 
ATOM      4  O   UNL     1       4.515   2.149   1.547  1.00  0.00    -0.300 OA
ENDBRANCH   1   2
BRANCH   1   5
ATOM      5  C   UNL     1       7.236   1.094  -0.274  1.00  0.00     0.043 C 
BRANCH   5   6
ATOM      6  C   UNL     1       7.624  -0.191  -0.883  1.00  0.00    -0.044 A 
ATOM      7  C   UNL     1       7.711  -0.347  -2.271  1.00  0.00     0.008 A 
ATOM      8  C   UNL     1       7.912  -1.269  -0.078  1.00  0.00     0.054 A 
ATOM      9  C   UNL     1       8.080  -1.576  -2.787  1.00  0.00     0.051 A 
ATOM     10  C   UNL     1       8.286  -2.509  -0.603  1.00  0.00     0.166 A 
ATOM     11  C   UNL     1       8.370  -2.664  -1.969  1.00  0.00     0.165 A 
ATOM     12  O   UNL     1       8.616  -3.715  -0.022  1.00  0.00    -0.454 OA
ATOM     13  O   UNL     1       8.756  -3.975  -2.201  1.00  0.00    -0.454 OA
ATOM     14  C   UNL     1       9.011  -4.651  -0.993  1.00  0.00     0.468 C 
ENDBRANCH   5   6
ENDBRANCH   1   5
TORSDOF 3
ENDMDL
MODEL 3
REMARK VINA RESULT:      -7.2      2.047      2.628
REMARK SMILES CC(=O)CCc1ccc2c(c1)OCO2
REMARK SMILES IDX 4 1 2 2 1 3 3 4 5 5 6 6 7 7 11 8 8 9 10 10 9 11 12 12 14 13
REMARK SMILES IDX 13 14
REMARK H PARENT
REMARK Flexibility Score: inf
ROOT
ATOM      1  C   UNL     1       5.392  -0.083   2.014  1.00  0.00     0.080 C 
ENDROOT
BRANCH   1   2
ATOM      2  C   UNL     1       4.562   1.129   1.770  1.00  0.00     0.130 C 
ATOM      3  C   UNL     1       4.921   2.124   0.724  1.00  0.00     0.087 C 
ATOM      4  O   UNL     1       3.556   1.342   2.427  1.00  0.00    -0.300 OA
ENDBRANCH   1   2
BRANCH   1   5
ATOM      5  C   UNL     1       6.838   0.152   1.624  1.00  0.00     0.043 C 
BRANCH   5   6
ATOM      6  C   UNL     1       7.270  -0.762   0.552  1.00  0.00    -0.044 A 
ATOM      7  C   UNL     1       7.147  -0.418  -0.799  1.00  0.00     0.008 A 
ATOM      8  C   UNL     1       7.812  -1.985   0.876  1.00  0.00     0.054 A 
ATOM      9  C   UNL     1       7.570  -1.316  -1.762  1.00  0.00     0.051 A 
ATOM     10  C   UNL     1       8.240  -2.889  -0.101  1.00  0.00     0.166 A 
ATOM     11  C   UNL     1       8.117  -2.552  -1.431  1.00  0.00     0.165 A 
ATOM     12  O   UNL     1       8.802  -4.147  -0.037  1.00  0.00    -0.454 OA
ATOM     13  O   UNL     1       8.613  -3.620  -2.163  1.00  0.00    -0.454 OA
ATOM     14  C   UNL     1       9.141  -4.614  -1.317  1.00  0.00     0.468 C 
ENDBRANCH   5   6
ENDBRANCH   1   5
TORSDOF 3
ENDMDL
MODEL 4
REMARK VINA RESULT:      -7.1      1.240      1.446
REMARK SMILES CC(=O)CCc1ccc2c(c1)OCO2
REMARK SMILES IDX 4 1 2 2 1 3 3 4 5 5 6 6 7 7 11 8 8 9 10 10 9 11 12 12 14 13
REMARK SMILES IDX 13 14
REMARK H PARENT
REMARK Flexibility Score: inf
ROOT
ATOM      1  C   UNL     1       6.363   1.250   0.896  1.00  0.00     0.080 C 
ENDROOT
BRANCH   1   2
ATOM      2  C   UNL     1       5.667   0.426   1.924  1.00  0.00     0.130 C 
ATOM      3  C   UNL     1       6.299  -0.784   2.514  1.00  0.00     0.087 C 
ATOM      4  O   UNL     1       4.549   0.724   2.313  1.00  0.00    -0.300 OA
ENDBRANCH   1   2
BRANCH   1   5
ATOM      5  C   UNL     1       5.850   0.940  -0.497  1.00  0.00     0.043 C 
BRANCH   5   6
ATOM      6  C   UNL     1       6.805   0.116  -1.260  1.00  0.00    -0.044 A 
ATOM      7  C   UNL     1       7.500   0.630  -2.361  1.00  0.00     0.008 A 
ATOM      8  C   UNL     1       7.029  -1.190  -0.888  1.00  0.00     0.054 A 
ATOM      9  C   UNL     1       8.384  -0.189  -3.039  1.00  0.00     0.051 A 
ATOM     10  C   UNL     1       7.925  -2.014  -1.576  1.00  0.00     0.166 A 
ATOM     11  C   UNL     1       8.608  -1.509  -2.661  1.00  0.00     0.165 A 
ATOM     12  O   UNL     1       8.315  -3.325  -1.407  1.00  0.00    -0.454 OA
ATOM     13  O   UNL     1       9.412  -2.531  -3.139  1.00  0.00    -0.454 OA
ATOM     14  C   UNL     1       9.326  -3.672  -2.318  1.00  0.00     0.468 C 
ENDBRANCH   5   6
ENDBRANCH   1   5
TORSDOF 3
ENDMDL
MODEL 5
REMARK VINA RESULT:      -6.8      1.193      5.162
REMARK SMILES CC(=O)CCc1ccc2c(c1)OCO2
REMARK SMILES IDX 4 1 2 2 1 3 3 4 5 5 6 6 7 7 11 8 8 9 10 10 9 11 12 12 14 13
REMARK SMILES IDX 13 14
REMARK H PARENT
REMARK Flexibility Score: inf
ROOT
ATOM      1  C   UNL     1       8.317   0.205  -2.671  1.00  0.00     0.080 C 
ENDROOT
BRANCH   1   2
ATOM      2  C   UNL     1       8.034  -1.256  -2.727  1.00  0.00     0.130 C 
ATOM      3  C   UNL     1       9.108  -2.249  -2.997  1.00  0.00     0.087 C 
ATOM      4  O   UNL     1       6.904  -1.683  -2.553  1.00  0.00    -0.300 OA
ENDBRANCH   1   2
BRANCH   1   5
ATOM      5  C   UNL     1       8.839   0.613  -1.308  1.00  0.00     0.043 C 
BRANCH   5   6
ATOM      6  C   UNL     1       7.814   0.456  -0.261  1.00  0.00    -0.044 A 
ATOM      7  C   UNL     1       7.940  -0.502   0.751  1.00  0.00     0.008 A 
ATOM      8  C   UNL     1       6.703   1.269  -0.267  1.00  0.00     0.054 A 
ATOM      9  C   UNL     1       6.947  -0.603   1.708  1.00  0.00     0.051 A 
ATOM     10  C   UNL     1       5.702   1.164   0.703  1.00  0.00     0.166 A 
ATOM     11  C   UNL     1       5.825   0.220   1.698  1.00  0.00     0.165 A 
ATOM     12  O   UNL     1       4.520   1.843   0.911  1.00  0.00    -0.454 OA
ATOM     13  O   UNL     1       4.705   0.341   2.506  1.00  0.00    -0.454 OA
ATOM     14  C   UNL     1       3.896   1.418   2.096  1.00  0.00     0.468 C 
ENDBRANCH   5   6
ENDBRANCH   1   5
TORSDOF 3
ENDMDL
