@<TRIPOS>MOLECULE
/home/cewinharhar/GITHUB/reincatalyze/data/processed/docking_pred/2023-May-25-1902_sub9_nm5_bs15_s42_ex16_mel10_mts10000_k50_ec01_g099_lra3e-4_lrc3e-3/90bec1d2941dc3e2c4ee946d92d9c3e8ec331448_ligand_9.pdbqt
 14 15 0 0 0
SMALL
GASTEIGER

@<TRIPOS>ATOM
      1  C          5.7330    1.2900   -0.2840 C.3     1  UNL1        0.0800
      2  C          5.1690    1.2240    1.0930 C.2     1  UNL1        0.1300
      3  C          5.3760    0.0380    1.9660 C.3     1  UNL1        0.0870
      4  O          4.5150    2.1490    1.5470 O.2     1  UNL1       -0.3000
      5  C          7.2360    1.0940   -0.2740 C.3     1  UNL1        0.0430
      6  C          7.6240   -0.1910   -0.8830 C.2     1  UNL1       -0.0440
      7  C          7.7110   -0.3470   -2.2710 C.2     1  UNL1        0.0080
      8  C          7.9120   -1.2690   -0.0780 C.2     1  UNL1        0.0540
      9  C          8.0800   -1.5760   -2.7870 C.2     1  UNL1        0.0510
     10  C          8.2860   -2.5090   -0.6030 C.2     1  UNL1        0.1660
     11  C          8.3700   -2.6640   -1.9690 C.2     1  UNL1        0.1650
     12  O          8.6160   -3.7150   -0.0220 O.2     1  UNL1       -0.4540
     13  O          8.7560   -3.9750   -2.2010 O.2     1  UNL1       -0.4540
     14  C          9.0110   -4.6510   -0.9930 C.3     1  UNL1        0.4680
@<TRIPOS>BOND
     1     9     7    1
     2     9    11    2
     3     7     6    2
     4    13    11    1
     5    13    14    1
     6    11    10    1
     7    14    12    1
     8     6     5    1
     9     6     8    1
    10    10     8    2
    11    10    12    1
    12     1     5    1
    13     1     2    1
    14     2     4    2
    15     2     3    1
