@<TRIPOS>MOLECULE
/home/cewinharhar/GITHUB/reincatalyze/data/processed/docking_pred/2023-May-25-1902_sub9_nm5_bs15_s42_ex16_mel10_mts10000_k50_ec01_g099_lra3e-4_lrc3e-3/90bec1d2941dc3e2c4ee946d92d9c3e8ec331448_ligand_9.pdbqt
 14 15 0 0 0
SMALL
GASTEIGER

@<TRIPOS>ATOM
      1  C          8.3170    0.2050   -2.6710 C.3     1  UNL1        0.0800
      2  C          8.0340   -1.2560   -2.7270 C.2     1  UNL1        0.1300
      3  C          9.1080   -2.2490   -2.9970 C.3     1  UNL1        0.0870
      4  O          6.9040   -1.6830   -2.5530 O.2     1  UNL1       -0.3000
      5  C          8.8390    0.6130   -1.3080 C.3     1  UNL1        0.0430
      6  C          7.8140    0.4560   -0.2610 C.2     1  UNL1       -0.0440
      7  C          7.9400   -0.5020    0.7510 C.2     1  UNL1        0.0080
      8  C          6.7030    1.2690   -0.2670 C.2     1  UNL1        0.0540
      9  C          6.9470   -0.6030    1.7080 C.2     1  UNL1        0.0510
     10  C          5.7020    1.1640    0.7030 C.2     1  UNL1        0.1660
     11  C          5.8250    0.2200    1.6980 C.2     1  UNL1        0.1650
     12  O          4.5200    1.8430    0.9110 O.2     1  UNL1       -0.4540
     13  O          4.7050    0.3410    2.5060 O.2     1  UNL1       -0.4540
     14  C          3.8960    1.4180    2.0960 C.3     1  UNL1        0.4680
@<TRIPOS>BOND
     1     3     2    1
     2     2     1    1
     3     2     4    2
     4     1     5    1
     5     5     6    1
     6     8     6    2
     7     8    10    1
     8     6     7    1
     9    10    12    1
    10    10    11    2
    11     7     9    2
    12    12    14    1
    13    11     9    1
    14    11    13    1
    15    14    13    1
