@<TRIPOS>MOLECULE
/home/cewinharhar/GITHUB/reincatalyze/data/processed/docking_pred/2023-May-25-1902_sub9_nm5_bs15_s42_ex16_mel10_mts10000_k50_ec01_g099_lra3e-4_lrc3e-3/91438d65c636cbfd2c8442c68b92b155f88758ee_ligand_9.pdbqt
 14 15 0 0 0
SMALL
GASTEIGER

@<TRIPOS>ATOM
      1  C          5.5420    1.9220    1.2680 C.3     1  UNL1        0.0800
      2  C          5.1080    0.7040    2.0070 C.2     1  UNL1        0.1300
      3  C          6.0120   -0.4630    2.1890 C.3     1  UNL1        0.0870
      4  O          3.9890    0.6280    2.4870 O.2     1  UNL1       -0.3000
      5  C          5.4120    1.7320   -0.2310 C.3     1  UNL1        0.0430
      6  C          6.5780    1.0300   -0.7960 C.2     1  UNL1       -0.0440
      7  C          7.8860    1.4620   -0.5450 C.2     1  UNL1        0.0080
      8  C          6.3890   -0.0780   -1.5890 C.2     1  UNL1        0.0540
      9  C          8.9410    0.7630   -1.1020 C.2     1  UNL1        0.0510
     10  C          7.4590   -0.7820   -2.1490 C.2     1  UNL1        0.1660
     11  C          8.7460   -0.3570   -1.9040 C.2     1  UNL1        0.1650
     12  O          7.5310   -1.8950   -2.9590 O.2     1  UNL1       -0.4540
     13  O          9.5900   -1.2290   -2.5740 O.2     1  UNL1       -0.4540
     14  C          8.8660   -2.2720   -3.1820 C.3     1  UNL1        0.4680
@<TRIPOS>BOND
     1    14    12    1
     2    14    13    1
     3    12    10    1
     4    13    11    1
     5    10    11    2
     6    10     8    1
     7    11     9    1
     8     8     6    2
     9     9     7    2
    10     6     7    1
    11     6     5    1
    12     5     1    1
    13     1     2    1
    14     2     3    1
    15     2     4    2
