@<TRIPOS>MOLECULE
/home/cewinharhar/GITHUB/reincatalyze/data/processed/docking_pred/2023-May-25-1902_sub9_nm5_bs15_s42_ex16_mel10_mts10000_k50_ec01_g099_lra3e-4_lrc3e-3/9282b18981f6708324b0af4486d36de930a99903_ligand_9.pdbqt
 14 15 0 0 0
SMALL
GASTEIGER

@<TRIPOS>ATOM
      1  C          1.9850   -7.6530   -0.5460 C.3     1  UNL1        0.0800
      2  C          2.2770   -6.2150   -0.2890 C.2     1  UNL1        0.1300
      3  C          2.1110   -5.1830   -1.3460 C.3     1  UNL1        0.0870
      4  O          2.6660   -5.8410    0.8060 O.2     1  UNL1       -0.3000
      5  C          2.6700   -8.5450    0.4700 C.3     1  UNL1        0.0430
      6  C          1.8290   -9.6970    0.8400 C.2     1  UNL1       -0.0440
      7  C          2.3860  -10.8830    1.3330 C.2     1  UNL1        0.0080
      8  C          0.4620   -9.6150    0.7060 C.2     1  UNL1        0.0540
      9  C          1.5480  -11.9310    1.6650 C.2     1  UNL1        0.0510
     10  C         -0.3820  -10.6780    1.0440 C.2     1  UNL1        0.1660
     11  C          0.1660  -11.8450    1.5270 C.2     1  UNL1        0.1650
     12  O         -1.7500  -10.8410    1.0010 O.2     1  UNL1       -0.4540
     13  O         -0.8890  -12.7100    1.7750 O.2     1  UNL1       -0.4540
     14  C         -2.1270  -12.0820    1.5410 C.3     1  UNL1        0.4680
@<TRIPOS>BOND
     1     3     2    1
     2     1     2    1
     3     1     5    1
     4     2     4    2
     5     5     6    1
     6     8     6    2
     7     8    10    1
     8     6     7    1
     9    12    10    1
    10    12    14    1
    11    10    11    2
    12     7     9    2
    13    11     9    1
    14    11    13    1
    15    14    13    1
