@<TRIPOS>MOLECULE
/home/cewinharhar/GITHUB/reincatalyze/data/processed/docking_pred/2023-May-25-1902_sub9_nm5_bs15_s42_ex16_mel10_mts10000_k50_ec01_g099_lra3e-4_lrc3e-3/9282b18981f6708324b0af4486d36de930a99903_ligand_9.pdbqt
 14 15 0 0 0
SMALL
GASTEIGER

@<TRIPOS>ATOM
      1  C          8.7880   -4.7880   -0.3750 C.3     1  UNL1        0.0800
      2  C          9.5160   -4.6870   -1.6710 C.2     1  UNL1        0.1300
      3  C         10.3560   -5.8020   -2.1830 C.3     1  UNL1        0.0870
      4  O          9.4440   -3.6780   -2.3530 O.2     1  UNL1       -0.3000
      5  C          9.5350   -4.0720    0.7330 C.3     1  UNL1        0.0430
      6  C          8.8770   -2.8070    1.1060 C.2     1  UNL1       -0.0440
      7  C          9.6000   -1.6150    1.2380 C.2     1  UNL1        0.0080
      8  C          7.5190   -2.7840    1.3300 C.2     1  UNL1        0.0540
      9  C          8.9290   -0.4590    1.5900 C.2     1  UNL1        0.0510
     10  C          6.8450   -1.6110    1.6850 C.2     1  UNL1        0.1660
     11  C          7.5560   -0.4390    1.8160 C.2     1  UNL1        0.1650
     12  O          5.5230   -1.3340    1.9570 O.2     1  UNL1       -0.4540
     13  O          6.6460    0.5440    2.1690 O.2     1  UNL1       -0.4540
     14  C          5.3320    0.0400    2.1810 C.3     1  UNL1        0.4680
@<TRIPOS>BOND
     1     4     2    2
     2     3     2    1
     3     2     1    1
     4     1     5    1
     5     5     6    1
     6     6     7    2
     7     6     8    1
     8     7     9    1
     9     8    10    2
    10     9    11    2
    11    10    11    1
    12    10    12    1
    13    11    13    1
    14    12    14    1
    15    13    14    1
