MODEL 1
REMARK VINA RESULT:      -7.6      0.000      0.000
REMARK SMILES CC(=O)CCc1ccc2c(c1)OCO2
REMARK SMILES IDX 4 1 2 2 1 3 3 4 5 5 6 6 7 7 11 8 8 9 10 10 9 11 12 12 14 13
REMARK SMILES IDX 13 14
REMARK H PARENT
REMARK Flexibility Score: inf
ROOT
ATOM      1  C   UNL     1       5.567   1.857   1.308  1.00  0.00     0.080 C 
ENDROOT
BRANCH   1   2
ATOM      2  C   UNL     1       5.114   0.637   2.034  1.00  0.00     0.130 C 
ATOM      3  C   UNL     1       5.997  -0.549   2.195  1.00  0.00     0.087 C 
ATOM      4  O   UNL     1       3.996   0.576   2.520  1.00  0.00    -0.300 OA
ENDBRANCH   1   2
BRANCH   1   5
ATOM      5  C   UNL     1       5.425   1.689  -0.192  1.00  0.00     0.043 C 
BRANCH   5   6
ATOM      6  C   UNL     1       6.588   0.997  -0.777  1.00  0.00    -0.044 A 
ATOM      7  C   UNL     1       7.895   1.447  -0.556  1.00  0.00     0.008 A 
ATOM      8  C   UNL     1       6.396  -0.119  -1.559  1.00  0.00     0.054 A 
ATOM      9  C   UNL     1       8.948   0.757  -1.130  1.00  0.00     0.051 A 
ATOM     10  C   UNL     1       7.464  -0.813  -2.136  1.00  0.00     0.166 A 
ATOM     11  C   UNL     1       8.750  -0.371  -1.920  1.00  0.00     0.165 A 
ATOM     12  O   UNL     1       7.533  -1.931  -2.940  1.00  0.00    -0.454 OA
ATOM     13  O   UNL     1       9.591  -1.236  -2.602  1.00  0.00    -0.454 OA
ATOM     14  C   UNL     1       8.867  -2.292  -3.188  1.00  0.00     0.468 C 
ENDBRANCH   5   6
ENDBRANCH   1   5
TORSDOF 3
ENDMDL
MODEL 2
REMARK VINA RESULT:      -7.4      1.891      2.338
REMARK SMILES CC(=O)CCc1ccc2c(c1)OCO2
REMARK SMILES IDX 4 1 2 2 1 3 3 4 5 5 6 6 7 7 11 8 8 9 10 10 9 11 12 12 14 13
REMARK SMILES IDX 13 14
REMARK H PARENT
REMARK Flexibility Score: inf
ROOT
ATOM      1  C   UNL     1       5.828   1.465  -0.232  1.00  0.00     0.080 C 
ENDROOT
BRANCH   1   2
ATOM      2  C   UNL     1       5.159   1.302   1.089  1.00  0.00     0.130 C 
ATOM      3  C   UNL     1       5.399   0.108   1.943  1.00  0.00     0.087 C 
ATOM      4  O   UNL     1       4.390   2.150   1.510  1.00  0.00    -0.300 OA
ENDBRANCH   1   2
BRANCH   1   5
ATOM      5  C   UNL     1       7.311   1.163  -0.139  1.00  0.00     0.043 C 
BRANCH   5   6
ATOM      6  C   UNL     1       7.648  -0.119  -0.785  1.00  0.00    -0.044 A 
ATOM      7  C   UNL     1       7.662  -0.256  -2.178  1.00  0.00     0.008 A 
ATOM      8  C   UNL     1       7.962  -1.211  -0.010  1.00  0.00     0.054 A 
ATOM      9  C   UNL     1       7.987  -1.483  -2.728  1.00  0.00     0.051 A 
ATOM     10  C   UNL     1       8.291  -2.449  -0.570  1.00  0.00     0.166 A 
ATOM     11  C   UNL     1       8.303  -2.586  -1.941  1.00  0.00     0.165 A 
ATOM     12  O   UNL     1       8.634  -3.667  -0.023  1.00  0.00    -0.454 OA
ATOM     13  O   UNL     1       8.658  -3.899  -2.209  1.00  0.00    -0.454 OA
ATOM     14  C   UNL     1       8.965  -4.595  -1.025  1.00  0.00     0.468 C 
ENDBRANCH   5   6
ENDBRANCH   1   5
TORSDOF 3
ENDMDL
MODEL 3
REMARK VINA RESULT:      -7.2      2.049      2.611
REMARK SMILES CC(=O)CCc1ccc2c(c1)OCO2
REMARK SMILES IDX 4 1 2 2 1 3 3 4 5 5 6 6 7 7 11 8 8 9 10 10 9 11 12 12 14 13
REMARK SMILES IDX 13 14
REMARK H PARENT
REMARK Flexibility Score: inf
ROOT
ATOM      1  C   UNL     1       5.437  -0.050   1.993  1.00  0.00     0.080 C 
ENDROOT
BRANCH   1   2
ATOM      2  C   UNL     1       4.581   1.145   1.751  1.00  0.00     0.130 C 
ATOM      3  C   UNL     1       4.887   2.117   0.667  1.00  0.00     0.087 C 
ATOM      4  O   UNL     1       3.598   1.363   2.441  1.00  0.00    -0.300 OA
ENDBRANCH   1   2
BRANCH   1   5
ATOM      5  C   UNL     1       6.868   0.201   1.562  1.00  0.00     0.043 C 
BRANCH   5   6
ATOM      6  C   UNL     1       7.290  -0.730   0.501  1.00  0.00    -0.044 A 
ATOM      7  C   UNL     1       7.157  -0.406  -0.854  1.00  0.00     0.008 A 
ATOM      8  C   UNL     1       7.833  -1.949   0.839  1.00  0.00     0.054 A 
ATOM      9  C   UNL     1       7.571  -1.320  -1.806  1.00  0.00     0.051 A 
ATOM     10  C   UNL     1       8.251  -2.869  -0.128  1.00  0.00     0.166 A 
ATOM     11  C   UNL     1       8.118  -2.552  -1.461  1.00  0.00     0.165 A 
ATOM     12  O   UNL     1       8.811  -4.126  -0.048  1.00  0.00    -0.454 OA
ATOM     13  O   UNL     1       8.606  -3.631  -2.180  1.00  0.00    -0.454 OA
ATOM     14  C   UNL     1       9.139  -4.613  -1.324  1.00  0.00     0.468 C 
ENDBRANCH   5   6
ENDBRANCH   1   5
TORSDOF 3
ENDMDL
MODEL 4
REMARK VINA RESULT:      -7.1      1.237      1.433
REMARK SMILES CC(=O)CCc1ccc2c(c1)OCO2
REMARK SMILES IDX 4 1 2 2 1 3 3 4 5 5 6 6 7 7 11 8 8 9 10 10 9 11 12 12 14 13
REMARK SMILES IDX 13 14
REMARK H PARENT
REMARK Flexibility Score: inf
ROOT
ATOM      1  C   UNL     1       6.371   1.231   0.924  1.00  0.00     0.080 C 
ENDROOT
BRANCH   1   2
ATOM      2  C   UNL     1       5.660   0.402   1.936  1.00  0.00     0.130 C 
ATOM      3  C   UNL     1       6.282  -0.813   2.527  1.00  0.00     0.087 C 
ATOM      4  O   UNL     1       4.537   0.698   2.311  1.00  0.00    -0.300 OA
ENDBRANCH   1   2
BRANCH   1   5
ATOM      5  C   UNL     1       5.865   0.946  -0.476  1.00  0.00     0.043 C 
BRANCH   5   6
ATOM      6  C   UNL     1       6.814   0.117  -1.242  1.00  0.00    -0.044 A 
ATOM      7  C   UNL     1       7.503   0.626  -2.349  1.00  0.00     0.008 A 
ATOM      8  C   UNL     1       7.037  -1.188  -0.867  1.00  0.00     0.054 A 
ATOM      9  C   UNL     1       8.382  -0.198  -3.028  1.00  0.00     0.051 A 
ATOM     10  C   UNL     1       7.927  -2.017  -1.556  1.00  0.00     0.166 A 
ATOM     11  C   UNL     1       8.604  -1.518  -2.647  1.00  0.00     0.165 A 
ATOM     12  O   UNL     1       8.315  -3.328  -1.384  1.00  0.00    -0.454 OA
ATOM     13  O   UNL     1       9.404  -2.544  -3.126  1.00  0.00    -0.454 OA
ATOM     14  C   UNL     1       9.319  -3.681  -2.300  1.00  0.00     0.468 C 
ENDBRANCH   5   6
ENDBRANCH   1   5
TORSDOF 3
ENDMDL
MODEL 5
REMARK VINA RESULT:      -6.8      1.191      5.168
REMARK SMILES CC(=O)CCc1ccc2c(c1)OCO2
REMARK SMILES IDX 4 1 2 2 1 3 3 4 5 5 6 6 7 7 11 8 8 9 10 10 9 11 12 12 14 13
REMARK SMILES IDX 13 14
REMARK H PARENT
REMARK Flexibility Score: inf
ROOT
ATOM      1  C   UNL     1       8.340   0.190  -2.672  1.00  0.00     0.080 C 
ENDROOT
BRANCH   1   2
ATOM      2  C   UNL     1       8.054  -1.269  -2.753  1.00  0.00     0.130 C 
ATOM      3  C   UNL     1       9.129  -2.262  -3.021  1.00  0.00     0.087 C 
ATOM      4  O   UNL     1       6.921  -1.695  -2.601  1.00  0.00    -0.300 OA
ENDBRANCH   1   2
BRANCH   1   5
ATOM      5  C   UNL     1       8.868   0.573  -1.304  1.00  0.00     0.043 C 
BRANCH   5   6
ATOM      6  C   UNL     1       7.837   0.429  -0.260  1.00  0.00    -0.044 A 
ATOM      7  C   UNL     1       7.952  -0.526   0.756  1.00  0.00     0.008 A 
ATOM      8  C   UNL     1       6.732   1.249  -0.275  1.00  0.00     0.054 A 
ATOM      9  C   UNL     1       6.954  -0.615   1.709  1.00  0.00     0.051 A 
ATOM     10  C   UNL     1       5.725   1.155   0.691  1.00  0.00     0.166 A 
ATOM     11  C   UNL     1       5.837   0.215   1.691  1.00  0.00     0.165 A 
ATOM     12  O   UNL     1       4.547   1.843   0.890  1.00  0.00    -0.454 OA
ATOM     13  O   UNL     1       4.714   0.347   2.493  1.00  0.00    -0.454 OA
ATOM     14  C   UNL     1       3.915   1.428   2.073  1.00  0.00     0.468 C 
ENDBRANCH   5   6
ENDBRANCH   1   5
TORSDOF 3
ENDMDL
