@<TRIPOS>MOLECULE
/home/cewinharhar/GITHUB/reincatalyze/data/processed/docking_pred/2023-May-25-1902_sub9_nm5_bs15_s42_ex16_mel10_mts10000_k50_ec01_g099_lra3e-4_lrc3e-3/939bd1e5684a89eea32cbd4f4170b12915347732_ligand_9.pdbqt
 14 15 0 0 0
SMALL
GASTEIGER

@<TRIPOS>ATOM
      1  C          5.5670    1.8570    1.3080 C.3     1  UNL1        0.0800
      2  C          5.1140    0.6370    2.0340 C.2     1  UNL1        0.1300
      3  C          5.9970   -0.5490    2.1950 C.3     1  UNL1        0.0870
      4  O          3.9960    0.5760    2.5200 O.2     1  UNL1       -0.3000
      5  C          5.4250    1.6890   -0.1920 C.3     1  UNL1        0.0430
      6  C          6.5880    0.9970   -0.7770 C.2     1  UNL1       -0.0440
      7  C          7.8950    1.4470   -0.5560 C.2     1  UNL1        0.0080
      8  C          6.3960   -0.1190   -1.5590 C.2     1  UNL1        0.0540
      9  C          8.9480    0.7570   -1.1300 C.2     1  UNL1        0.0510
     10  C          7.4640   -0.8130   -2.1360 C.2     1  UNL1        0.1660
     11  C          8.7500   -0.3710   -1.9200 C.2     1  UNL1        0.1650
     12  O          7.5330   -1.9310   -2.9400 O.2     1  UNL1       -0.4540
     13  O          9.5910   -1.2360   -2.6020 O.2     1  UNL1       -0.4540
     14  C          8.8670   -2.2920   -3.1880 C.3     1  UNL1        0.4680
@<TRIPOS>BOND
     1    14    12    1
     2    14    13    1
     3    12    10    1
     4    13    11    1
     5    10    11    2
     6    10     8    1
     7    11     9    1
     8     8     6    2
     9     9     7    2
    10     6     7    1
    11     6     5    1
    12     5     1    1
    13     1     2    1
    14     2     3    1
    15     2     4    2
