@<TRIPOS>MOLECULE
/home/cewinharhar/GITHUB/reincatalyze/data/processed/docking_pred/2023-May-25-1902_sub9_nm5_bs15_s42_ex16_mel10_mts10000_k50_ec01_g099_lra3e-4_lrc3e-3/939bd1e5684a89eea32cbd4f4170b12915347732_ligand_9.pdbqt
 14 15 0 0 0
SMALL
GASTEIGER

@<TRIPOS>ATOM
      1  C          8.3400    0.1900   -2.6720 C.3     1  UNL1        0.0800
      2  C          8.0540   -1.2690   -2.7530 C.2     1  UNL1        0.1300
      3  C          9.1290   -2.2620   -3.0210 C.3     1  UNL1        0.0870
      4  O          6.9210   -1.6950   -2.6010 O.2     1  UNL1       -0.3000
      5  C          8.8680    0.5730   -1.3040 C.3     1  UNL1        0.0430
      6  C          7.8370    0.4290   -0.2600 C.2     1  UNL1       -0.0440
      7  C          7.9520   -0.5260    0.7560 C.2     1  UNL1        0.0080
      8  C          6.7320    1.2490   -0.2750 C.2     1  UNL1        0.0540
      9  C          6.9540   -0.6150    1.7090 C.2     1  UNL1        0.0510
     10  C          5.7250    1.1550    0.6910 C.2     1  UNL1        0.1660
     11  C          5.8370    0.2150    1.6910 C.2     1  UNL1        0.1650
     12  O          4.5470    1.8430    0.8900 O.2     1  UNL1       -0.4540
     13  O          4.7140    0.3470    2.4930 O.2     1  UNL1       -0.4540
     14  C          3.9150    1.4280    2.0730 C.3     1  UNL1        0.4680
@<TRIPOS>BOND
     1     3     2    1
     2     2     1    1
     3     2     4    2
     4     1     5    1
     5     5     6    1
     6     8     6    2
     7     8    10    1
     8     6     7    1
     9    10    12    1
    10    10    11    2
    11     7     9    2
    12    12    14    1
    13    11     9    1
    14    11    13    1
    15    14    13    1
