@<TRIPOS>MOLECULE
/home/cewinharhar/GITHUB/reincatalyze/data/processed/docking_pred/2023-May-25-1902_sub9_nm5_bs15_s42_ex16_mel10_mts10000_k50_ec01_g099_lra3e-4_lrc3e-3/93b19c8378935853b44d27bbf459025f9fc44a5e_ligand_9.pdbqt
 14 15 0 0 0
SMALL
GASTEIGER

@<TRIPOS>ATOM
      1  C          6.8660    0.8240    0.9870 C.3     1  UNL1        0.0800
      2  C          5.4710    1.0900    1.4380 C.2     1  UNL1        0.1300
      3  C          4.6370    2.1500    0.8110 C.3     1  UNL1        0.0870
      4  O          4.9700    0.4400    2.3410 O.2     1  UNL1       -0.3000
      5  C          6.9750    0.8740   -0.5240 C.3     1  UNL1        0.0430
      6  C          7.5160   -0.3810   -1.0750 C.2     1  UNL1       -0.0440
      7  C          7.8340   -0.5100   -2.4320 C.2     1  UNL1        0.0080
      8  C          7.7200   -1.4590   -0.2430 C.2     1  UNL1        0.0540
      9  C          8.3400   -1.7120   -2.8910 C.2     1  UNL1        0.0510
     10  C          8.2330   -2.6720   -0.7130 C.2     1  UNL1        0.1660
     11  C          8.5450   -2.8000   -2.0480 C.2     1  UNL1        0.1650
     12  O          8.5210   -3.8710   -0.0970 O.2     1  UNL1       -0.4540
     13  O          9.0240   -4.0880   -2.2260 O.2     1  UNL1       -0.4540
     14  C          9.1120   -4.7720   -0.9990 C.3     1  UNL1        0.4680
@<TRIPOS>BOND
     1     9     7    1
     2     9    11    2
     3     7     6    2
     4    13    11    1
     5    13    14    1
     6    11    10    1
     7     6     5    1
     8     6     8    1
     9    14    12    1
    10    10     8    2
    11    10    12    1
    12     5     1    1
    13     3     2    1
    14     1     2    1
    15     2     4    2
