@<TRIPOS>MOLECULE
/home/cewinharhar/GITHUB/reincatalyze/data/processed/docking_pred/2023-May-25-1902_sub9_nm5_bs15_s42_ex16_mel10_mts10000_k50_ec01_g099_lra3e-4_lrc3e-3/93b19c8378935853b44d27bbf459025f9fc44a5e_ligand_9.pdbqt
 14 15 0 0 0
SMALL
GASTEIGER

@<TRIPOS>ATOM
      1  C          6.3410    1.2610    0.8940 C.3     1  UNL1        0.0800
      2  C          5.6620    0.4180    1.9180 C.2     1  UNL1        0.1300
      3  C          6.3150   -0.7880    2.4940 C.3     1  UNL1        0.0870
      4  O          4.5430    0.6960    2.3170 O.2     1  UNL1       -0.3000
      5  C          5.8270    0.9540   -0.4990 C.3     1  UNL1        0.0430
      6  C          6.7840    0.1390   -1.2670 C.2     1  UNL1       -0.0440
      7  C          7.4840    0.6650   -2.3590 C.2     1  UNL1        0.0080
      8  C          7.0060   -1.1720   -0.9090 C.2     1  UNL1        0.0540
      9  C          8.3700   -0.1480   -3.0420 C.2     1  UNL1        0.0510
     10  C          7.9030   -1.9890   -1.6020 C.2     1  UNL1        0.1660
     11  C          8.5910   -1.4730   -2.6780 C.2     1  UNL1        0.1650
     12  O          8.2920   -3.3020   -1.4460 O.2     1  UNL1       -0.4540
     13  O          9.3970   -2.4900   -3.1640 O.2     1  UNL1       -0.4540
     14  C          9.3060   -3.6400   -2.3570 C.3     1  UNL1        0.4680
@<TRIPOS>BOND
     1    13    11    1
     2    13    14    1
     3     9    11    2
     4     9     7    1
     5    11    10    1
     6     7     6    2
     7    14    12    1
     8    10    12    1
     9    10     8    2
    10     6     8    1
    11     6     5    1
    12     5     1    1
    13     1     2    1
    14     2     4    2
    15     2     3    1
