MODEL 1
REMARK VINA RESULT:      -7.7      0.000      0.000
REMARK SMILES CC(=O)CCc1ccc2c(c1)OCO2
REMARK SMILES IDX 4 1 2 2 1 3 3 4 5 5 6 6 7 7 11 8 8 9 10 10 9 11 12 12 14 13
REMARK SMILES IDX 13 14
REMARK H PARENT
REMARK Flexibility Score: inf
ROOT
ATOM      1  C   UNL     1       5.510   1.903   1.273  1.00  0.00     0.080 C 
ENDROOT
BRANCH   1   2
ATOM      2  C   UNL     1       5.063   0.682   2.000  1.00  0.00     0.130 C 
ATOM      3  C   UNL     1       5.942  -0.510   2.137  1.00  0.00     0.087 C 
ATOM      4  O   UNL     1       3.955   0.626   2.508  1.00  0.00    -0.300 OA
ENDBRANCH   1   2
BRANCH   1   5
ATOM      5  C   UNL     1       5.389   1.725  -0.228  1.00  0.00     0.043 C 
BRANCH   5   6
ATOM      6  C   UNL     1       6.558   1.027  -0.792  1.00  0.00    -0.044 A 
ATOM      7  C   UNL     1       7.864   1.469  -0.547  1.00  0.00     0.008 A 
ATOM      8  C   UNL     1       6.373  -0.088  -1.577  1.00  0.00     0.054 A 
ATOM      9  C   UNL     1       8.922   0.773  -1.102  1.00  0.00     0.051 A 
ATOM     10  C   UNL     1       7.447  -0.788  -2.136  1.00  0.00     0.166 A 
ATOM     11  C   UNL     1       8.732  -0.354  -1.896  1.00  0.00     0.165 A 
ATOM     12  O   UNL     1       7.524  -1.906  -2.939  1.00  0.00    -0.454 OA
ATOM     13  O   UNL     1       9.580  -1.224  -2.564  1.00  0.00    -0.454 OA
ATOM     14  C   UNL     1       8.860  -2.275  -3.162  1.00  0.00     0.468 C 
ENDBRANCH   5   6
ENDBRANCH   1   5
TORSDOF 3
ENDMDL
MODEL 2
REMARK VINA RESULT:      -7.4      1.858      2.311
REMARK SMILES CC(=O)CCc1ccc2c(c1)OCO2
REMARK SMILES IDX 4 1 2 2 1 3 3 4 5 5 6 6 7 7 11 8 8 9 10 10 9 11 12 12 14 13
REMARK SMILES IDX 13 14
REMARK H PARENT
REMARK Flexibility Score: inf
ROOT
ATOM      1  C   UNL     1       5.700   1.300  -0.309  1.00  0.00     0.080 C 
ENDROOT
BRANCH   1   2
ATOM      2  C   UNL     1       5.126   1.228   1.063  1.00  0.00     0.130 C 
ATOM      3  C   UNL     1       5.370   0.060   1.952  1.00  0.00     0.087 C 
ATOM      4  O   UNL     1       4.432   2.132   1.501  1.00  0.00    -0.300 OA
ENDBRANCH   1   2
BRANCH   1   5
ATOM      5  C   UNL     1       7.206   1.130  -0.285  1.00  0.00     0.043 C 
BRANCH   5   6
ATOM      6  C   UNL     1       7.623  -0.133  -0.920  1.00  0.00    -0.044 A 
ATOM      7  C   UNL     1       7.748  -0.249  -2.310  1.00  0.00     0.008 A 
ATOM      8  C   UNL     1       7.902  -1.230  -0.138  1.00  0.00     0.054 A 
ATOM      9  C   UNL     1       8.144  -1.459  -2.849  1.00  0.00     0.051 A 
ATOM     10  C   UNL     1       8.303  -2.452  -0.688  1.00  0.00     0.166 A 
ATOM     11  C   UNL     1       8.424  -2.567  -2.055  1.00  0.00     0.165 A 
ATOM     12  O   UNL     1       8.631  -3.670  -0.133  1.00  0.00    -0.454 OA
ATOM     13  O   UNL     1       8.831  -3.867  -2.313  1.00  0.00    -0.454 OA
ATOM     14  C   UNL     1       9.061  -4.574  -1.118  1.00  0.00     0.468 C 
ENDBRANCH   5   6
ENDBRANCH   1   5
TORSDOF 3
ENDMDL
MODEL 3
REMARK VINA RESULT:      -7.2      2.090      2.623
REMARK SMILES CC(=O)CCc1ccc2c(c1)OCO2
REMARK SMILES IDX 4 1 2 2 1 3 3 4 5 5 6 6 7 7 11 8 8 9 10 10 9 11 12 12 14 13
REMARK SMILES IDX 13 14
REMARK H PARENT
REMARK Flexibility Score: inf
ROOT
ATOM      1  C   UNL     1       5.620   0.003   1.970  1.00  0.00     0.080 C 
ENDROOT
BRANCH   1   2
ATOM      2  C   UNL     1       4.695   1.126   1.652  1.00  0.00     0.130 C 
ATOM      3  C   UNL     1       4.950   2.050   0.515  1.00  0.00     0.087 C 
ATOM      4  O   UNL     1       3.693   1.322   2.322  1.00  0.00    -0.300 OA
ENDBRANCH   1   2
BRANCH   1   5
ATOM      5  C   UNL     1       7.016   0.275   1.447  1.00  0.00     0.043 C 
BRANCH   5   6
ATOM      6  C   UNL     1       7.411  -0.698   0.413  1.00  0.00    -0.044 A 
ATOM      7  C   UNL     1       7.294  -0.406  -0.951  1.00  0.00     0.008 A 
ATOM      8  C   UNL     1       7.912  -1.925   0.786  1.00  0.00     0.054 A 
ATOM      9  C   UNL     1       7.681  -1.358  -1.877  1.00  0.00     0.051 A 
ATOM     10  C   UNL     1       8.303  -2.883  -0.154  1.00  0.00     0.166 A 
ATOM     11  C   UNL     1       8.186  -2.598  -1.496  1.00  0.00     0.165 A 
ATOM     12  O   UNL     1       8.821  -4.156  -0.039  1.00  0.00    -0.454 OA
ATOM     13  O   UNL     1       8.641  -3.712  -2.184  1.00  0.00    -0.454 OA
ATOM     14  C   UNL     1       9.137  -4.688  -1.299  1.00  0.00     0.468 C 
ENDBRANCH   5   6
ENDBRANCH   1   5
TORSDOF 3
ENDMDL
MODEL 4
REMARK VINA RESULT:      -7.1      1.239      1.430
REMARK SMILES CC(=O)CCc1ccc2c(c1)OCO2
REMARK SMILES IDX 4 1 2 2 1 3 3 4 5 5 6 6 7 7 11 8 8 9 10 10 9 11 12 12 14 13
REMARK SMILES IDX 13 14
REMARK H PARENT
REMARK Flexibility Score: inf
ROOT
ATOM      1  C   UNL     1       6.341   1.261   0.894  1.00  0.00     0.080 C 
ENDROOT
BRANCH   1   2
ATOM      2  C   UNL     1       5.662   0.418   1.918  1.00  0.00     0.130 C 
ATOM      3  C   UNL     1       6.315  -0.788   2.494  1.00  0.00     0.087 C 
ATOM      4  O   UNL     1       4.543   0.696   2.317  1.00  0.00    -0.300 OA
ENDBRANCH   1   2
BRANCH   1   5
ATOM      5  C   UNL     1       5.827   0.954  -0.499  1.00  0.00     0.043 C 
BRANCH   5   6
ATOM      6  C   UNL     1       6.784   0.139  -1.267  1.00  0.00    -0.044 A 
ATOM      7  C   UNL     1       7.484   0.665  -2.359  1.00  0.00     0.008 A 
ATOM      8  C   UNL     1       7.006  -1.172  -0.909  1.00  0.00     0.054 A 
ATOM      9  C   UNL     1       8.370  -0.148  -3.042  1.00  0.00     0.051 A 
ATOM     10  C   UNL     1       7.903  -1.989  -1.602  1.00  0.00     0.166 A 
ATOM     11  C   UNL     1       8.591  -1.473  -2.678  1.00  0.00     0.165 A 
ATOM     12  O   UNL     1       8.292  -3.302  -1.446  1.00  0.00    -0.454 OA
ATOM     13  O   UNL     1       9.397  -2.490  -3.164  1.00  0.00    -0.454 OA
ATOM     14  C   UNL     1       9.306  -3.640  -2.357  1.00  0.00     0.468 C 
ENDBRANCH   5   6
ENDBRANCH   1   5
TORSDOF 3
ENDMDL
MODEL 5
REMARK VINA RESULT:      -6.9      1.923      2.523
REMARK SMILES CC(=O)CCc1ccc2c(c1)OCO2
REMARK SMILES IDX 4 1 2 2 1 3 3 4 5 5 6 6 7 7 11 8 8 9 10 10 9 11 12 12 14 13
REMARK SMILES IDX 13 14
REMARK H PARENT
REMARK Flexibility Score: inf
ROOT
ATOM      1  C   UNL     1       6.866   0.824   0.987  1.00  0.00     0.080 C 
ENDROOT
BRANCH   1   2
ATOM      2  C   UNL     1       5.471   1.090   1.438  1.00  0.00     0.130 C 
ATOM      3  C   UNL     1       4.637   2.150   0.811  1.00  0.00     0.087 C 
ATOM      4  O   UNL     1       4.970   0.440   2.341  1.00  0.00    -0.300 OA
ENDBRANCH   1   2
BRANCH   1   5
ATOM      5  C   UNL     1       6.975   0.874  -0.524  1.00  0.00     0.043 C 
BRANCH   5   6
ATOM      6  C   UNL     1       7.516  -0.381  -1.075  1.00  0.00    -0.044 A 
ATOM      7  C   UNL     1       7.834  -0.510  -2.432  1.00  0.00     0.008 A 
ATOM      8  C   UNL     1       7.720  -1.459  -0.243  1.00  0.00     0.054 A 
ATOM      9  C   UNL     1       8.340  -1.712  -2.891  1.00  0.00     0.051 A 
ATOM     10  C   UNL     1       8.233  -2.672  -0.713  1.00  0.00     0.166 A 
ATOM     11  C   UNL     1       8.545  -2.800  -2.048  1.00  0.00     0.165 A 
ATOM     12  O   UNL     1       8.521  -3.871  -0.097  1.00  0.00    -0.454 OA
ATOM     13  O   UNL     1       9.024  -4.088  -2.226  1.00  0.00    -0.454 OA
ATOM     14  C   UNL     1       9.112  -4.772  -0.999  1.00  0.00     0.468 C 
ENDBRANCH   5   6
ENDBRANCH   1   5
TORSDOF 3
ENDMDL
