MODEL 1
REMARK VINA RESULT:      -7.7      0.000      0.000
REMARK SMILES CC(=O)CCc1ccc2c(c1)OCO2
REMARK SMILES IDX 4 1 2 2 1 3 3 4 5 5 6 6 7 7 11 8 8 9 10 10 9 11 12 12 14 13
REMARK SMILES IDX 13 14
REMARK H PARENT
REMARK Flexibility Score: inf
ROOT
ATOM      1  C   UNL     1       5.534   1.916   1.268  1.00  0.00     0.080 C 
ENDROOT
BRANCH   1   2
ATOM      2  C   UNL     1       5.089   0.700   2.005  1.00  0.00     0.130 C 
ATOM      3  C   UNL     1       5.979  -0.480   2.174  1.00  0.00     0.087 C 
ATOM      4  O   UNL     1       3.973   0.637   2.494  1.00  0.00    -0.300 OA
ENDBRANCH   1   2
BRANCH   1   5
ATOM      5  C   UNL     1       5.407   1.728  -0.231  1.00  0.00     0.043 C 
BRANCH   5   6
ATOM      6  C   UNL     1       6.575   1.028  -0.795  1.00  0.00    -0.044 A 
ATOM      7  C   UNL     1       7.882   1.462  -0.544  1.00  0.00     0.008 A 
ATOM      8  C   UNL     1       6.388  -0.082  -1.587  1.00  0.00     0.054 A 
ATOM      9  C   UNL     1       8.939   0.765  -1.099  1.00  0.00     0.051 A 
ATOM     10  C   UNL     1       7.461  -0.783  -2.146  1.00  0.00     0.166 A 
ATOM     11  C   UNL     1       8.747  -0.356  -1.900  1.00  0.00     0.165 A 
ATOM     12  O   UNL     1       7.535  -1.897  -2.955  1.00  0.00    -0.454 OA
ATOM     13  O   UNL     1       9.593  -1.226  -2.569  1.00  0.00    -0.454 OA
ATOM     14  C   UNL     1       8.871  -2.271  -3.176  1.00  0.00     0.468 C 
ENDBRANCH   5   6
ENDBRANCH   1   5
TORSDOF 3
ENDMDL
MODEL 2
REMARK VINA RESULT:      -7.4      1.886      2.305
REMARK SMILES CC(=O)CCc1ccc2c(c1)OCO2
REMARK SMILES IDX 4 1 2 2 1 3 3 4 5 5 6 6 7 7 11 8 8 9 10 10 9 11 12 12 14 13
REMARK SMILES IDX 13 14
REMARK H PARENT
REMARK Flexibility Score: inf
ROOT
ATOM      1  C   UNL     1       5.659   1.444  -0.210  1.00  0.00     0.080 C 
ENDROOT
BRANCH   1   2
ATOM      2  C   UNL     1       5.037   1.242   1.128  1.00  0.00     0.130 C 
ATOM      3  C   UNL     1       5.420   0.100   2.002  1.00  0.00     0.087 C 
ATOM      4  O   UNL     1       4.190   2.012   1.549  1.00  0.00    -0.300 OA
ENDBRANCH   1   2
BRANCH   1   5
ATOM      5  C   UNL     1       7.156   1.210  -0.163  1.00  0.00     0.043 C 
BRANCH   5   6
ATOM      6  C   UNL     1       7.527  -0.074  -0.784  1.00  0.00    -0.044 A 
ATOM      7  C   UNL     1       7.570  -0.232  -2.174  1.00  0.00     0.008 A 
ATOM      8  C   UNL     1       7.844  -1.151   0.013  1.00  0.00     0.054 A 
ATOM      9  C   UNL     1       7.926  -1.460  -2.699  1.00  0.00     0.051 A 
ATOM     10  C   UNL     1       8.205  -2.391  -0.523  1.00  0.00     0.166 A 
ATOM     11  C   UNL     1       8.246  -2.547  -1.891  1.00  0.00     0.165 A 
ATOM     12  O   UNL     1       8.558  -3.595   0.048  1.00  0.00    -0.454 OA
ATOM     13  O   UNL     1       8.628  -3.857  -2.133  1.00  0.00    -0.454 OA
ATOM     14  C   UNL     1       8.924  -4.530  -0.933  1.00  0.00     0.468 C 
ENDBRANCH   5   6
ENDBRANCH   1   5
TORSDOF 3
ENDMDL
MODEL 3
REMARK VINA RESULT:      -7.2      2.049      2.615
REMARK SMILES CC(=O)CCc1ccc2c(c1)OCO2
REMARK SMILES IDX 4 1 2 2 1 3 3 4 5 5 6 6 7 7 11 8 8 9 10 10 9 11 12 12 14 13
REMARK SMILES IDX 13 14
REMARK H PARENT
REMARK Flexibility Score: inf
ROOT
ATOM      1  C   UNL     1       5.443  -0.032   2.041  1.00  0.00     0.080 C 
ENDROOT
BRANCH   1   2
ATOM      2  C   UNL     1       4.569   1.145   1.775  1.00  0.00     0.130 C 
ATOM      3  C   UNL     1       4.892   2.133   0.712  1.00  0.00     0.087 C 
ATOM      4  O   UNL     1       3.556   1.333   2.429  1.00  0.00    -0.300 OA
ENDBRANCH   1   2
BRANCH   1   5
ATOM      5  C   UNL     1       6.869   0.231   1.598  1.00  0.00     0.043 C 
BRANCH   5   6
ATOM      6  C   UNL     1       7.290  -0.699   0.535  1.00  0.00    -0.044 A 
ATOM      7  C   UNL     1       7.168  -0.367  -0.820  1.00  0.00     0.008 A 
ATOM      8  C   UNL     1       7.820  -1.924   0.870  1.00  0.00     0.054 A 
ATOM      9  C   UNL     1       7.581  -1.280  -1.774  1.00  0.00     0.051 A 
ATOM     10  C   UNL     1       8.236  -2.843  -0.098  1.00  0.00     0.166 A 
ATOM     11  C   UNL     1       8.116  -2.518  -1.431  1.00  0.00     0.165 A 
ATOM     12  O   UNL     1       8.786  -4.105  -0.021  1.00  0.00    -0.454 OA
ATOM     13  O   UNL     1       8.599  -3.598  -2.152  1.00  0.00    -0.454 OA
ATOM     14  C   UNL     1       9.118  -4.589  -1.297  1.00  0.00     0.468 C 
ENDBRANCH   5   6
ENDBRANCH   1   5
TORSDOF 3
ENDMDL
MODEL 4
REMARK VINA RESULT:      -7.1      1.259      1.471
REMARK SMILES CC(=O)CCc1ccc2c(c1)OCO2
REMARK SMILES IDX 4 1 2 2 1 3 3 4 5 5 6 6 7 7 11 8 8 9 10 10 9 11 12 12 14 13
REMARK SMILES IDX 13 14
REMARK H PARENT
REMARK Flexibility Score: inf
ROOT
ATOM      1  C   UNL     1       6.379   1.179   0.955  1.00  0.00     0.080 C 
ENDROOT
BRANCH   1   2
ATOM      2  C   UNL     1       5.649   0.362   1.963  1.00  0.00     0.130 C 
ATOM      3  C   UNL     1       6.247  -0.865   2.555  1.00  0.00     0.087 C 
ATOM      4  O   UNL     1       4.530   0.677   2.335  1.00  0.00    -0.300 OA
ENDBRANCH   1   2
BRANCH   1   5
ATOM      5  C   UNL     1       5.866   0.912  -0.446  1.00  0.00     0.043 C 
BRANCH   5   6
ATOM      6  C   UNL     1       6.810   0.091  -1.226  1.00  0.00    -0.044 A 
ATOM      7  C   UNL     1       7.480   0.605  -2.342  1.00  0.00     0.008 A 
ATOM      8  C   UNL     1       7.048  -1.213  -0.855  1.00  0.00     0.054 A 
ATOM      9  C   UNL     1       8.355  -0.211  -3.035  1.00  0.00     0.051 A 
ATOM     10  C   UNL     1       7.934  -2.034  -1.559  1.00  0.00     0.166 A 
ATOM     11  C   UNL     1       8.593  -1.529  -2.658  1.00  0.00     0.165 A 
ATOM     12  O   UNL     1       8.334  -3.343  -1.394  1.00  0.00    -0.454 OA
ATOM     13  O   UNL     1       9.393  -2.549  -3.149  1.00  0.00    -0.454 OA
ATOM     14  C   UNL     1       9.328  -3.688  -2.324  1.00  0.00     0.468 C 
ENDBRANCH   5   6
ENDBRANCH   1   5
TORSDOF 3
ENDMDL
MODEL 5
REMARK VINA RESULT:      -7.1      1.995      2.546
REMARK SMILES CC(=O)CCc1ccc2c(c1)OCO2
REMARK SMILES IDX 4 1 2 2 1 3 3 4 5 5 6 6 7 7 11 8 8 9 10 10 9 11 12 12 14 13
REMARK SMILES IDX 13 14
REMARK H PARENT
REMARK Flexibility Score: inf
ROOT
ATOM      1  C   UNL     1       6.792   0.651   1.401  1.00  0.00     0.080 C 
ENDROOT
BRANCH   1   2
ATOM      2  C   UNL     1       5.378   1.106   1.506  1.00  0.00     0.130 C 
ATOM      3  C   UNL     1       4.824   2.149   0.601  1.00  0.00     0.087 C 
ATOM      4  O   UNL     1       4.627   0.632   2.344  1.00  0.00    -0.300 OA
ENDBRANCH   1   2
BRANCH   1   5
ATOM      5  C   UNL     1       7.354   0.914   0.018  1.00  0.00     0.043 C 
BRANCH   5   6
ATOM      6  C   UNL     1       7.724  -0.336  -0.669  1.00  0.00    -0.044 A 
ATOM      7  C   UNL     1       7.812  -0.408  -2.064  1.00  0.00     0.008 A 
ATOM      8  C   UNL     1       7.996  -1.465   0.070  1.00  0.00     0.054 A 
ATOM      9  C   UNL     1       8.165  -1.609  -2.653  1.00  0.00     0.051 A 
ATOM     10  C   UNL     1       8.353  -2.677  -0.530  1.00  0.00     0.166 A 
ATOM     11  C   UNL     1       8.437  -2.749  -1.903  1.00  0.00     0.165 A 
ATOM     12  O   UNL     1       8.665  -3.920  -0.024  1.00  0.00    -0.454 OA
ATOM     13  O   UNL     1       8.805  -4.049  -2.214  1.00  0.00    -0.454 OA
ATOM     14  C   UNL     1       9.048  -4.801  -1.049  1.00  0.00     0.468 C 
ENDBRANCH   5   6
ENDBRANCH   1   5
TORSDOF 3
ENDMDL
