@<TRIPOS>MOLECULE
/home/cewinharhar/GITHUB/reincatalyze/data/processed/docking_pred/2023-May-25-1902_sub9_nm5_bs15_s42_ex16_mel10_mts10000_k50_ec01_g099_lra3e-4_lrc3e-3/93f5b296c54773c487a3666b5d29638d3a74aef5_ligand_9.pdbqt
 14 15 0 0 0
SMALL
GASTEIGER

@<TRIPOS>ATOM
      1  C          5.6590    1.4440   -0.2100 C.3     1  UNL1        0.0800
      2  C          5.0370    1.2420    1.1280 C.2     1  UNL1        0.1300
      3  C          5.4200    0.1000    2.0020 C.3     1  UNL1        0.0870
      4  O          4.1900    2.0120    1.5490 O.2     1  UNL1       -0.3000
      5  C          7.1560    1.2100   -0.1630 C.3     1  UNL1        0.0430
      6  C          7.5270   -0.0740   -0.7840 C.2     1  UNL1       -0.0440
      7  C          7.5700   -0.2320   -2.1740 C.2     1  UNL1        0.0080
      8  C          7.8440   -1.1510    0.0130 C.2     1  UNL1        0.0540
      9  C          7.9260   -1.4600   -2.6990 C.2     1  UNL1        0.0510
     10  C          8.2050   -2.3910   -0.5230 C.2     1  UNL1        0.1660
     11  C          8.2460   -2.5470   -1.8910 C.2     1  UNL1        0.1650
     12  O          8.5580   -3.5950    0.0480 O.2     1  UNL1       -0.4540
     13  O          8.6280   -3.8570   -2.1330 O.2     1  UNL1       -0.4540
     14  C          8.9240   -4.5300   -0.9330 C.3     1  UNL1        0.4680
@<TRIPOS>BOND
     1     9     7    1
     2     9    11    2
     3     7     6    2
     4    13    11    1
     5    13    14    1
     6    11    10    1
     7    14    12    1
     8     6     5    1
     9     6     8    1
    10    10     8    2
    11    10    12    1
    12     1     5    1
    13     1     2    1
    14     2     4    2
    15     2     3    1
