MODEL 1
REMARK VINA RESULT:      -6.4      0.000      0.000
REMARK SMILES CC(=O)CCc1ccc2c(c1)OCO2
REMARK SMILES IDX 4 1 2 2 1 3 3 4 5 5 6 6 7 7 11 8 8 9 10 10 9 11 12 12 14 13
REMARK SMILES IDX 13 14
REMARK H PARENT
REMARK Flexibility Score: inf
ROOT
ATOM      1  C   UNL     1       5.376  -0.328   2.108  1.00  0.00     0.080 C 
ENDROOT
BRANCH   1   2
ATOM      2  C   UNL     1       4.480   0.845   1.910  1.00  0.00     0.130 C 
ATOM      3  C   UNL     1       4.712   1.829   0.818  1.00  0.00     0.087 C 
ATOM      4  O   UNL     1       3.524   1.034   2.644  1.00  0.00    -0.300 OA
ENDBRANCH   1   2
BRANCH   1   5
ATOM      5  C   UNL     1       6.795  -0.017   1.675  1.00  0.00     0.043 C 
BRANCH   5   6
ATOM      6  C   UNL     1       7.238  -0.899   0.580  1.00  0.00    -0.044 A 
ATOM      7  C   UNL     1       7.049  -0.552  -0.763  1.00  0.00     0.008 A 
ATOM      8  C   UNL     1       7.856  -2.093   0.874  1.00  0.00     0.054 A 
ATOM      9  C   UNL     1       7.487  -1.419  -1.748  1.00  0.00     0.051 A 
ATOM     10  C   UNL     1       8.297  -2.966  -0.126  1.00  0.00     0.166 A 
ATOM     11  C   UNL     1       8.110  -2.626  -1.447  1.00  0.00     0.165 A 
ATOM     12  O   UNL     1       8.928  -4.191  -0.092  1.00  0.00    -0.454 OA
ATOM     13  O   UNL     1       8.637  -3.660  -2.205  1.00  0.00    -0.454 OA
ATOM     14  C   UNL     1       9.246  -4.631  -1.388  1.00  0.00     0.468 C 
ENDBRANCH   5   6
ENDBRANCH   1   5
TORSDOF 3
ENDMDL
MODEL 2
REMARK VINA RESULT:      -5.8      1.139      2.078
REMARK SMILES CC(=O)CCc1ccc2c(c1)OCO2
REMARK SMILES IDX 4 1 2 2 1 3 3 4 5 5 6 6 7 7 11 8 8 9 10 10 9 11 12 12 14 13
REMARK SMILES IDX 13 14
REMARK H PARENT
REMARK Flexibility Score: inf
ROOT
ATOM      1  C   UNL     1       6.255   0.521   2.156  1.00  0.00     0.080 C 
ENDROOT
BRANCH   1   2
ATOM      2  C   UNL     1       4.872   0.996   1.873  1.00  0.00     0.130 C 
ATOM      3  C   UNL     1       4.583   1.942   0.762  1.00  0.00     0.087 C 
ATOM      4  O   UNL     1       3.929   0.618   2.550  1.00  0.00    -0.300 OA
ENDBRANCH   1   2
BRANCH   1   5
ATOM      5  C   UNL     1       6.320  -0.992   2.199  1.00  0.00     0.043 C 
BRANCH   5   6
ATOM      6  C   UNL     1       7.025  -1.543   1.027  1.00  0.00    -0.044 A 
ATOM      7  C   UNL     1       7.755  -2.734   1.104  1.00  0.00     0.008 A 
ATOM      8  C   UNL     1       6.967  -0.879  -0.177  1.00  0.00     0.054 A 
ATOM      9  C   UNL     1       8.396  -3.203  -0.029  1.00  0.00     0.051 A 
ATOM     10  C   UNL     1       7.616  -1.357  -1.320  1.00  0.00     0.166 A 
ATOM     11  C   UNL     1       8.336  -2.529  -1.245  1.00  0.00     0.165 A 
ATOM     12  O   UNL     1       7.709  -0.888  -2.613  1.00  0.00    -0.454 OA
ATOM     13  O   UNL     1       8.862  -2.757  -2.507  1.00  0.00    -0.454 OA
ATOM     14  C   UNL     1       8.415  -1.790  -3.426  1.00  0.00     0.468 C 
ENDBRANCH   5   6
ENDBRANCH   1   5
TORSDOF 3
ENDMDL
MODEL 3
REMARK VINA RESULT:      -5.6      1.850      2.132
REMARK SMILES CC(=O)CCc1ccc2c(c1)OCO2
REMARK SMILES IDX 4 1 2 2 1 3 3 4 5 5 6 6 7 7 11 8 8 9 10 10 9 11 12 12 14 13
REMARK SMILES IDX 13 14
REMARK H PARENT
REMARK Flexibility Score: inf
ROOT
ATOM      1  C   UNL     1       5.656   0.236   2.529  1.00  0.00     0.080 C 
ENDROOT
BRANCH   1   2
ATOM      2  C   UNL     1       4.525   1.052   2.004  1.00  0.00     0.130 C 
ATOM      3  C   UNL     1       4.642   1.825   0.738  1.00  0.00     0.087 C 
ATOM      4  O   UNL     1       3.463   1.110   2.602  1.00  0.00    -0.300 OA
ENDBRANCH   1   2
BRANCH   1   5
ATOM      5  C   UNL     1       5.793  -1.068   1.769  1.00  0.00     0.043 C 
BRANCH   5   6
ATOM      6  C   UNL     1       6.803  -0.973   0.699  1.00  0.00    -0.044 A 
ATOM      7  C   UNL     1       8.048  -0.372   0.918  1.00  0.00     0.008 A 
ATOM      8  C   UNL     1       6.527  -1.487  -0.547  1.00  0.00     0.054 A 
ATOM      9  C   UNL     1       8.956  -0.312  -0.123  1.00  0.00     0.051 A 
ATOM     10  C   UNL     1       7.449  -1.426  -1.596  1.00  0.00     0.166 A 
ATOM     11  C   UNL     1       8.674  -0.833  -1.382  1.00  0.00     0.165 A 
ATOM     12  O   UNL     1       7.414  -1.856  -2.905  1.00  0.00    -0.454 OA
ATOM     13  O   UNL     1       9.372  -0.913  -2.577  1.00  0.00    -0.454 OA
ATOM     14  C   UNL     1       8.646  -1.635  -3.543  1.00  0.00     0.468 C 
ENDBRANCH   5   6
ENDBRANCH   1   5
TORSDOF 3
ENDMDL
MODEL 4
REMARK VINA RESULT:      -5.6      1.349      6.121
REMARK SMILES CC(=O)CCc1ccc2c(c1)OCO2
REMARK SMILES IDX 4 1 2 2 1 3 3 4 5 5 6 6 7 7 11 8 8 9 10 10 9 11 12 12 14 13
REMARK SMILES IDX 13 14
REMARK H PARENT
REMARK Flexibility Score: inf
ROOT
ATOM      1  C   UNL     1       8.708  -4.018  -0.325  1.00  0.00     0.080 C 
ENDROOT
BRANCH   1   2
ATOM      2  C   UNL     1       9.269  -4.885  -1.398  1.00  0.00     0.130 C 
ATOM      3  C   UNL     1       8.906  -6.323  -1.509  1.00  0.00     0.087 C 
ATOM      4  O   UNL     1      10.049  -4.436  -2.223  1.00  0.00    -0.300 OA
ENDBRANCH   1   2
BRANCH   1   5
ATOM      5  C   UNL     1       8.357  -2.642  -0.856  1.00  0.00     0.043 C 
BRANCH   5   6
ATOM      6  C   UNL     1       7.499  -1.897   0.082  1.00  0.00    -0.044 A 
ATOM      7  C   UNL     1       7.387  -2.268   1.427  1.00  0.00     0.008 A 
ATOM      8  C   UNL     1       6.787  -0.806  -0.364  1.00  0.00     0.054 A 
ATOM      9  C   UNL     1       6.567  -1.531   2.261  1.00  0.00     0.051 A 
ATOM     10  C   UNL     1       5.960  -0.063   0.484  1.00  0.00     0.166 A 
ATOM     11  C   UNL     1       5.849  -0.429   1.807  1.00  0.00     0.165 A 
ATOM     12  O   UNL     1       5.162   1.044   0.285  1.00  0.00    -0.454 OA
ATOM     13  O   UNL     1       4.977   0.471   2.400  1.00  0.00    -0.454 OA
ATOM     14  C   UNL     1       4.588   1.475   1.493  1.00  0.00     0.468 C 
ENDBRANCH   5   6
ENDBRANCH   1   5
TORSDOF 3
ENDMDL
MODEL 5
REMARK VINA RESULT:      -5.6      1.841      5.449
REMARK SMILES CC(=O)CCc1ccc2c(c1)OCO2
REMARK SMILES IDX 4 1 2 2 1 3 3 4 5 5 6 6 7 7 11 8 8 9 10 10 9 11 12 12 14 13
REMARK SMILES IDX 13 14
REMARK H PARENT
REMARK Flexibility Score: inf
ROOT
ATOM      1  C   UNL     1       7.948  -1.728  -2.443  1.00  0.00     0.080 C 
ENDROOT
BRANCH   1   2
ATOM      2  C   UNL     1       8.712  -0.452  -2.524  1.00  0.00     0.130 C 
ATOM      3  C   UNL     1       8.246   0.686  -3.361  1.00  0.00     0.087 C 
ATOM      4  O   UNL     1       9.751  -0.303  -1.902  1.00  0.00    -0.300 OA
ENDBRANCH   1   2
BRANCH   1   5
ATOM      5  C   UNL     1       8.083  -2.364  -1.074  1.00  0.00     0.043 C 
BRANCH   5   6
ATOM      6  C   UNL     1       7.291  -1.649  -0.058  1.00  0.00    -0.044 A 
ATOM      7  C   UNL     1       7.275  -2.058   1.281  1.00  0.00     0.008 A 
ATOM      8  C   UNL     1       6.547  -0.550  -0.422  1.00  0.00     0.054 A 
ATOM      9  C   UNL     1       6.513  -1.348   2.190  1.00  0.00     0.051 A 
ATOM     10  C   UNL     1       5.779   0.165   0.502  1.00  0.00     0.166 A 
ATOM     11  C   UNL     1       5.761  -0.237   1.819  1.00  0.00     0.165 A 
ATOM     12  O   UNL     1       4.966   1.273   0.390  1.00  0.00    -0.454 OA
ATOM     13  O   UNL     1       4.930   0.642   2.495  1.00  0.00    -0.454 OA
ATOM     14  C   UNL     1       4.477   1.668   1.646  1.00  0.00     0.468 C 
ENDBRANCH   5   6
ENDBRANCH   1   5
TORSDOF 3
ENDMDL
