@<TRIPOS>MOLECULE
/home/cewinharhar/GITHUB/reincatalyze/data/processed/docking_pred/2023-May-25-1902_sub9_nm5_bs15_s42_ex16_mel10_mts10000_k50_ec01_g099_lra3e-4_lrc3e-3/9545d038953ad0bd3b50a81295f717fe73892d7b_ligand_9.pdbqt
 14 15 0 0 0
SMALL
GASTEIGER

@<TRIPOS>ATOM
      1  C          5.6560    0.2360    2.5290 C.3     1  UNL1        0.0800
      2  C          4.5250    1.0520    2.0040 C.2     1  UNL1        0.1300
      3  C          4.6420    1.8250    0.7380 C.3     1  UNL1        0.0870
      4  O          3.4630    1.1100    2.6020 O.2     1  UNL1       -0.3000
      5  C          5.7930   -1.0680    1.7690 C.3     1  UNL1        0.0430
      6  C          6.8030   -0.9730    0.6990 C.2     1  UNL1       -0.0440
      7  C          8.0480   -0.3720    0.9180 C.2     1  UNL1        0.0080
      8  C          6.5270   -1.4870   -0.5470 C.2     1  UNL1        0.0540
      9  C          8.9560   -0.3120   -0.1230 C.2     1  UNL1        0.0510
     10  C          7.4490   -1.4260   -1.5960 C.2     1  UNL1        0.1660
     11  C          8.6740   -0.8330   -1.3820 C.2     1  UNL1        0.1650
     12  O          7.4140   -1.8560   -2.9050 O.2     1  UNL1       -0.4540
     13  O          9.3720   -0.9130   -2.5770 O.2     1  UNL1       -0.4540
     14  C          8.6460   -1.6350   -3.5430 C.3     1  UNL1        0.4680
@<TRIPOS>BOND
     1    14    12    1
     2    14    13    1
     3    12    10    1
     4    13    11    1
     5    10    11    2
     6    10     8    1
     7    11     9    1
     8     8     6    2
     9     9     7    2
    10     6     7    1
    11     6     5    1
    12     3     2    1
    13     5     1    1
    14     2     1    1
    15     2     4    2
