@<TRIPOS>MOLECULE
/home/cewinharhar/GITHUB/reincatalyze/data/processed/docking_pred/2023-May-25-1902_sub9_nm5_bs15_s42_ex16_mel10_mts10000_k50_ec01_g099_lra3e-4_lrc3e-3/9545d038953ad0bd3b50a81295f717fe73892d7b_ligand_9.pdbqt
 14 15 0 0 0
SMALL
GASTEIGER

@<TRIPOS>ATOM
      1  C          5.3760   -0.3280    2.1080 C.3     1  UNL1        0.0800
      2  C          4.4800    0.8450    1.9100 C.2     1  UNL1        0.1300
      3  C          4.7120    1.8290    0.8180 C.3     1  UNL1        0.0870
      4  O          3.5240    1.0340    2.6440 O.2     1  UNL1       -0.3000
      5  C          6.7950   -0.0170    1.6750 C.3     1  UNL1        0.0430
      6  C          7.2380   -0.8990    0.5800 C.2     1  UNL1       -0.0440
      7  C          7.0490   -0.5520   -0.7630 C.2     1  UNL1        0.0080
      8  C          7.8560   -2.0930    0.8740 C.2     1  UNL1        0.0540
      9  C          7.4870   -1.4190   -1.7480 C.2     1  UNL1        0.0510
     10  C          8.2970   -2.9660   -0.1260 C.2     1  UNL1        0.1660
     11  C          8.1100   -2.6260   -1.4470 C.2     1  UNL1        0.1650
     12  O          8.9280   -4.1910   -0.0920 O.2     1  UNL1       -0.4540
     13  O          8.6370   -3.6600   -2.2050 O.2     1  UNL1       -0.4540
     14  C          9.2460   -4.6310   -1.3880 C.3     1  UNL1        0.4680
@<TRIPOS>BOND
     1    13    11    1
     2    13    14    1
     3     9    11    2
     4     9     7    1
     5    11    10    1
     6    14    12    1
     7     7     6    2
     8    10    12    1
     9    10     8    2
    10     6     8    1
    11     6     5    1
    12     3     2    1
    13     5     1    1
    14     2     1    1
    15     2     4    2
