@<TRIPOS>MOLECULE
/home/cewinharhar/GITHUB/reincatalyze/data/processed/docking_pred/2023-May-25-1902_sub9_nm5_bs15_s42_ex16_mel10_mts10000_k50_ec01_g099_lra3e-4_lrc3e-3/9545d038953ad0bd3b50a81295f717fe73892d7b_ligand_9.pdbqt
 14 15 0 0 0
SMALL
GASTEIGER

@<TRIPOS>ATOM
      1  C          6.2550    0.5210    2.1560 C.3     1  UNL1        0.0800
      2  C          4.8720    0.9960    1.8730 C.2     1  UNL1        0.1300
      3  C          4.5830    1.9420    0.7620 C.3     1  UNL1        0.0870
      4  O          3.9290    0.6180    2.5500 O.2     1  UNL1       -0.3000
      5  C          6.3200   -0.9920    2.1990 C.3     1  UNL1        0.0430
      6  C          7.0250   -1.5430    1.0270 C.2     1  UNL1       -0.0440
      7  C          7.7550   -2.7340    1.1040 C.2     1  UNL1        0.0080
      8  C          6.9670   -0.8790   -0.1770 C.2     1  UNL1        0.0540
      9  C          8.3960   -3.2030   -0.0290 C.2     1  UNL1        0.0510
     10  C          7.6160   -1.3570   -1.3200 C.2     1  UNL1        0.1660
     11  C          8.3360   -2.5290   -1.2450 C.2     1  UNL1        0.1650
     12  O          7.7090   -0.8880   -2.6130 O.2     1  UNL1       -0.4540
     13  O          8.8620   -2.7570   -2.5070 O.2     1  UNL1       -0.4540
     14  C          8.4150   -1.7900   -3.4260 C.3     1  UNL1        0.4680
@<TRIPOS>BOND
     1    14    12    1
     2    14    13    1
     3    12    10    1
     4    13    11    1
     5    10    11    2
     6    10     8    1
     7    11     9    1
     8     8     6    2
     9     9     7    2
    10     3     2    1
    11     6     7    1
    12     6     5    1
    13     2     1    1
    14     2     4    2
    15     1     5    1
