@<TRIPOS>MOLECULE
/home/cewinharhar/GITHUB/reincatalyze/data/processed/docking_pred/2023-May-25-1902_sub9_nm5_bs15_s42_ex16_mel10_mts10000_k50_ec01_g099_lra3e-4_lrc3e-3/9545d038953ad0bd3b50a81295f717fe73892d7b_ligand_9.pdbqt
 14 15 0 0 0
SMALL
GASTEIGER

@<TRIPOS>ATOM
      1  C          7.9480   -1.7280   -2.4430 C.3     1  UNL1        0.0800
      2  C          8.7120   -0.4520   -2.5240 C.2     1  UNL1        0.1300
      3  C          8.2460    0.6860   -3.3610 C.3     1  UNL1        0.0870
      4  O          9.7510   -0.3030   -1.9020 O.2     1  UNL1       -0.3000
      5  C          8.0830   -2.3640   -1.0740 C.3     1  UNL1        0.0430
      6  C          7.2910   -1.6490   -0.0580 C.2     1  UNL1       -0.0440
      7  C          7.2750   -2.0580    1.2810 C.2     1  UNL1        0.0080
      8  C          6.5470   -0.5500   -0.4220 C.2     1  UNL1        0.0540
      9  C          6.5130   -1.3480    2.1900 C.2     1  UNL1        0.0510
     10  C          5.7790    0.1650    0.5020 C.2     1  UNL1        0.1660
     11  C          5.7610   -0.2370    1.8190 C.2     1  UNL1        0.1650
     12  O          4.9660    1.2730    0.3900 O.2     1  UNL1       -0.4540
     13  O          4.9300    0.6420    2.4950 O.2     1  UNL1       -0.4540
     14  C          4.4770    1.6680    1.6460 C.3     1  UNL1        0.4680
@<TRIPOS>BOND
     1     3     2    1
     2     2     1    1
     3     2     4    2
     4     1     5    1
     5     5     6    1
     6     8     6    2
     7     8    10    1
     8     6     7    1
     9    12    10    1
    10    12    14    1
    11    10    11    2
    12     7     9    2
    13    14    13    1
    14    11     9    1
    15    11    13    1
