@<TRIPOS>MOLECULE
/home/cewinharhar/GITHUB/reincatalyze/data/processed/docking_pred/2023-May-25-1902_sub9_nm5_bs15_s42_ex16_mel10_mts10000_k50_ec01_g099_lra3e-4_lrc3e-3/9545d038953ad0bd3b50a81295f717fe73892d7b_ligand_9.pdbqt
 14 15 0 0 0
SMALL
GASTEIGER

@<TRIPOS>ATOM
      1  C          8.7080   -4.0180   -0.3250 C.3     1  UNL1        0.0800
      2  C          9.2690   -4.8850   -1.3980 C.2     1  UNL1        0.1300
      3  C          8.9060   -6.3230   -1.5090 C.3     1  UNL1        0.0870
      4  O         10.0490   -4.4360   -2.2230 O.2     1  UNL1       -0.3000
      5  C          8.3570   -2.6420   -0.8560 C.3     1  UNL1        0.0430
      6  C          7.4990   -1.8970    0.0820 C.2     1  UNL1       -0.0440
      7  C          7.3870   -2.2680    1.4270 C.2     1  UNL1        0.0080
      8  C          6.7870   -0.8060   -0.3640 C.2     1  UNL1        0.0540
      9  C          6.5670   -1.5310    2.2610 C.2     1  UNL1        0.0510
     10  C          5.9600   -0.0630    0.4840 C.2     1  UNL1        0.1660
     11  C          5.8490   -0.4290    1.8070 C.2     1  UNL1        0.1650
     12  O          5.1620    1.0440    0.2850 O.2     1  UNL1       -0.4540
     13  O          4.9770    0.4710    2.4000 O.2     1  UNL1       -0.4540
     14  C          4.5880    1.4750    1.4930 C.3     1  UNL1        0.4680
@<TRIPOS>BOND
     1     4     2    2
     2     3     2    1
     3     2     1    1
     4     5     1    1
     5     5     6    1
     6     8     6    2
     7     8    10    1
     8     6     7    1
     9    12    10    1
    10    12    14    1
    11    10    11    2
    12     7     9    2
    13    14    13    1
    14    11     9    1
    15    11    13    1
