@<TRIPOS>MOLECULE
/home/cewinharhar/GITHUB/reincatalyze/data/processed/docking_pred/2023-May-25-1902_sub9_nm5_bs15_s42_ex16_mel10_mts10000_k50_ec01_g099_lra3e-4_lrc3e-3/955e59fc22a1e87e2ab10a68f3a5c98643a236a4_ligand_9.pdbqt
 14 15 0 0 0
SMALL
GASTEIGER

@<TRIPOS>ATOM
      1  C          5.5130    1.9000    1.2560 C.3     1  UNL1        0.0800
      2  C          5.0400    0.6970    1.9960 C.2     1  UNL1        0.1300
      3  C          5.8830   -0.5220    2.1240 C.3     1  UNL1        0.0870
      4  O          3.9390    0.6770    2.5210 O.2     1  UNL1       -0.3000
      5  C          5.3900    1.7080   -0.2430 C.3     1  UNL1        0.0430
      6  C          6.5630    1.0120   -0.8030 C.2     1  UNL1       -0.0440
      7  C          7.8670    1.4520   -0.5480 C.2     1  UNL1        0.0080
      8  C          6.3830   -0.0990   -1.5950 C.2     1  UNL1        0.0540
      9  C          8.9280    0.7580   -1.0990 C.2     1  UNL1        0.0510
     10  C          7.4600   -0.7970   -2.1490 C.2     1  UNL1        0.1660
     11  C          8.7430   -0.3650   -1.9000 C.2     1  UNL1        0.1650
     12  O          7.5410   -1.9120   -2.9570 O.2     1  UNL1       -0.4540
     13  O          9.5950   -1.2320   -2.5650 O.2     1  UNL1       -0.4540
     14  C          8.8790   -2.2810   -3.1740 C.3     1  UNL1        0.4680
@<TRIPOS>BOND
     1    14    12    1
     2    14    13    1
     3    12    10    1
     4    13    11    1
     5    10    11    2
     6    10     8    1
     7    11     9    1
     8     8     6    2
     9     9     7    2
    10     6     7    1
    11     6     5    1
    12     5     1    1
    13     1     2    1
    14     2     3    1
    15     2     4    2
