@<TRIPOS>MOLECULE
/home/cewinharhar/GITHUB/reincatalyze/data/processed/docking_pred/2023-May-25-1902_sub9_nm5_bs15_s42_ex16_mel10_mts10000_k50_ec01_g099_lra3e-4_lrc3e-3/955e59fc22a1e87e2ab10a68f3a5c98643a236a4_ligand_9.pdbqt
 14 15 0 0 0
SMALL
GASTEIGER

@<TRIPOS>ATOM
      1  C          8.3190    0.2380   -2.6340 C.3     1  UNL1        0.0800
      2  C          7.9730   -1.2080   -2.7330 C.2     1  UNL1        0.1300
      3  C          9.0070   -2.2400   -3.0130 C.3     1  UNL1        0.0870
      4  O          6.8230   -1.5890   -2.5860 O.2     1  UNL1       -0.3000
      5  C          8.8460    0.5850   -1.2550 C.3     1  UNL1        0.0430
      6  C          7.8060    0.4430   -0.2210 C.2     1  UNL1       -0.0440
      7  C          7.9080   -0.5140    0.7950 C.2     1  UNL1        0.0080
      8  C          6.7050    1.2690   -0.2430 C.2     1  UNL1        0.0540
      9  C          6.9010   -0.6000    1.7390 C.2     1  UNL1        0.0510
     10  C          5.6900    1.1780    0.7140 C.2     1  UNL1        0.1660
     11  C          5.7890    0.2360    1.7130 C.2     1  UNL1        0.1650
     12  O          4.5140    1.8720    0.9050 O.2     1  UNL1       -0.4540
     13  O          4.6600    0.3720    2.5060 O.2     1  UNL1       -0.4540
     14  C          3.8700    1.4580    2.0830 C.3     1  UNL1        0.4680
@<TRIPOS>BOND
     1     3     2    1
     2     2     1    1
     3     2     4    2
     4     1     5    1
     5     5     6    1
     6     8     6    2
     7     8    10    1
     8     6     7    1
     9    10    12    1
    10    10    11    2
    11     7     9    2
    12    12    14    1
    13    11     9    1
    14    11    13    1
    15    14    13    1
