@<TRIPOS>MOLECULE
/home/cewinharhar/GITHUB/reincatalyze/data/processed/docking_pred/2023-May-25-1902_sub9_nm5_bs15_s42_ex16_mel10_mts10000_k50_ec01_g099_lra3e-4_lrc3e-3/955e59fc22a1e87e2ab10a68f3a5c98643a236a4_ligand_9.pdbqt
 14 15 0 0 0
SMALL
GASTEIGER

@<TRIPOS>ATOM
      1  C          6.3280    1.2590    0.8810 C.3     1  UNL1        0.0800
      2  C          5.6630    0.4390    1.9310 C.2     1  UNL1        0.1300
      3  C          6.3070   -0.7770    2.4970 C.3     1  UNL1        0.0870
      4  O          4.5620    0.7430    2.3610 O.2     1  UNL1       -0.3000
      5  C          5.8050    0.9140   -0.5000 C.3     1  UNL1        0.0430
      6  C          6.7730    0.1080   -1.2650 C.2     1  UNL1       -0.0440
      7  C          7.4770    0.6420   -2.3500 C.2     1  UNL1        0.0080
      8  C          7.0000   -1.2030   -0.9110 C.2     1  UNL1        0.0540
      9  C          8.3730   -0.1620   -3.0310 C.2     1  UNL1        0.0510
     10  C          7.9080   -2.0110   -1.6010 C.2     1  UNL1        0.1660
     11  C          8.5990   -1.4870   -2.6700 C.2     1  UNL1        0.1650
     12  O          8.3030   -3.3230   -1.4470 O.2     1  UNL1       -0.4540
     13  O          9.4150   -2.4970   -3.1550 O.2     1  UNL1       -0.4540
     14  C          9.3260   -3.6510   -2.3530 C.3     1  UNL1        0.4680
@<TRIPOS>BOND
     1    13    11    1
     2    13    14    1
     3     9    11    2
     4     9     7    1
     5    11    10    1
     6    14    12    1
     7     7     6    2
     8    10    12    1
     9    10     8    2
    10     6     8    1
    11     6     5    1
    12     5     1    1
    13     1     2    1
    14     2     4    2
    15     2     3    1
