MODEL 1
REMARK VINA RESULT:      -7.6      0.000      0.000
REMARK SMILES CC(=O)CCc1ccc2c(c1)OCO2
REMARK SMILES IDX 4 1 2 2 1 3 3 4 5 5 6 6 7 7 11 8 8 9 10 10 9 11 12 12 14 13
REMARK SMILES IDX 13 14
REMARK H PARENT
REMARK Flexibility Score: inf
ROOT
ATOM      1  C   UNL     1       5.513   1.900   1.256  1.00  0.00     0.080 C 
ENDROOT
BRANCH   1   2
ATOM      2  C   UNL     1       5.040   0.697   1.996  1.00  0.00     0.130 C 
ATOM      3  C   UNL     1       5.883  -0.522   2.124  1.00  0.00     0.087 C 
ATOM      4  O   UNL     1       3.939   0.677   2.521  1.00  0.00    -0.300 OA
ENDBRANCH   1   2
BRANCH   1   5
ATOM      5  C   UNL     1       5.390   1.708  -0.243  1.00  0.00     0.043 C 
BRANCH   5   6
ATOM      6  C   UNL     1       6.563   1.012  -0.803  1.00  0.00    -0.044 A 
ATOM      7  C   UNL     1       7.867   1.452  -0.548  1.00  0.00     0.008 A 
ATOM      8  C   UNL     1       6.383  -0.099  -1.595  1.00  0.00     0.054 A 
ATOM      9  C   UNL     1       8.928   0.758  -1.099  1.00  0.00     0.051 A 
ATOM     10  C   UNL     1       7.460  -0.797  -2.149  1.00  0.00     0.166 A 
ATOM     11  C   UNL     1       8.743  -0.365  -1.900  1.00  0.00     0.165 A 
ATOM     12  O   UNL     1       7.541  -1.912  -2.957  1.00  0.00    -0.454 OA
ATOM     13  O   UNL     1       9.595  -1.232  -2.565  1.00  0.00    -0.454 OA
ATOM     14  C   UNL     1       8.879  -2.281  -3.174  1.00  0.00     0.468 C 
ENDBRANCH   5   6
ENDBRANCH   1   5
TORSDOF 3
ENDMDL
MODEL 2
REMARK VINA RESULT:      -7.3      1.864      2.331
REMARK SMILES CC(=O)CCc1ccc2c(c1)OCO2
REMARK SMILES IDX 4 1 2 2 1 3 3 4 5 5 6 6 7 7 11 8 8 9 10 10 9 11 12 12 14 13
REMARK SMILES IDX 13 14
REMARK H PARENT
REMARK Flexibility Score: inf
ROOT
ATOM      1  C   UNL     1       5.696   1.288  -0.311  1.00  0.00     0.080 C 
ENDROOT
BRANCH   1   2
ATOM      2  C   UNL     1       5.122   1.170   1.058  1.00  0.00     0.130 C 
ATOM      3  C   UNL     1       5.459   0.028   1.950  1.00  0.00     0.087 C 
ATOM      4  O   UNL     1       4.353   2.012   1.490  1.00  0.00    -0.300 OA
ENDBRANCH   1   2
BRANCH   1   5
ATOM      5  C   UNL     1       7.200   1.095  -0.296  1.00  0.00     0.043 C 
BRANCH   5   6
ATOM      6  C   UNL     1       7.593  -0.178  -0.928  1.00  0.00    -0.044 A 
ATOM      7  C   UNL     1       7.662  -0.315  -2.319  1.00  0.00     0.008 A 
ATOM      8  C   UNL     1       7.905  -1.262  -0.140  1.00  0.00     0.054 A 
ATOM      9  C   UNL     1       8.038  -1.533  -2.855  1.00  0.00     0.051 A 
ATOM     10  C   UNL     1       8.285  -2.492  -0.687  1.00  0.00     0.166 A 
ATOM     11  C   UNL     1       8.352  -2.628  -2.056  1.00  0.00     0.165 A 
ATOM     12  O   UNL     1       8.637  -3.701  -0.127  1.00  0.00    -0.454 OA
ATOM     13  O   UNL     1       8.749  -3.931  -2.310  1.00  0.00    -0.454 OA
ATOM     14  C   UNL     1       9.029  -4.620  -1.114  1.00  0.00     0.468 C 
ENDBRANCH   5   6
ENDBRANCH   1   5
TORSDOF 3
ENDMDL
MODEL 3
REMARK VINA RESULT:      -7.1      2.084      2.618
REMARK SMILES CC(=O)CCc1ccc2c(c1)OCO2
REMARK SMILES IDX 4 1 2 2 1 3 3 4 5 5 6 6 7 7 11 8 8 9 10 10 9 11 12 12 14 13
REMARK SMILES IDX 13 14
REMARK H PARENT
REMARK Flexibility Score: inf
ROOT
ATOM      1  C   UNL     1       5.547   0.009   1.951  1.00  0.00     0.080 C 
ENDROOT
BRANCH   1   2
ATOM      2  C   UNL     1       4.666   1.170   1.644  1.00  0.00     0.130 C 
ATOM      3  C   UNL     1       4.993   2.133   0.558  1.00  0.00     0.087 C 
ATOM      4  O   UNL     1       3.643   1.366   2.280  1.00  0.00    -0.300 OA
ENDBRANCH   1   2
BRANCH   1   5
ATOM      5  C   UNL     1       6.967   0.256   1.479  1.00  0.00     0.043 C 
BRANCH   5   6
ATOM      6  C   UNL     1       7.370  -0.705   0.437  1.00  0.00    -0.044 A 
ATOM      7  C   UNL     1       7.253  -0.402  -0.924  1.00  0.00     0.008 A 
ATOM      8  C   UNL     1       7.879  -1.932   0.800  1.00  0.00     0.054 A 
ATOM      9  C   UNL     1       7.648  -1.343  -1.858  1.00  0.00     0.051 A 
ATOM     10  C   UNL     1       8.278  -2.879  -0.148  1.00  0.00     0.166 A 
ATOM     11  C   UNL     1       8.161  -2.582  -1.488  1.00  0.00     0.165 A 
ATOM     12  O   UNL     1       8.805  -4.149  -0.043  1.00  0.00    -0.454 OA
ATOM     13  O   UNL     1       8.625  -3.687  -2.185  1.00  0.00    -0.454 OA
ATOM     14  C   UNL     1       9.127  -4.667  -1.308  1.00  0.00     0.468 C 
ENDBRANCH   5   6
ENDBRANCH   1   5
TORSDOF 3
ENDMDL
MODEL 4
REMARK VINA RESULT:      -7.0      1.246      1.436
REMARK SMILES CC(=O)CCc1ccc2c(c1)OCO2
REMARK SMILES IDX 4 1 2 2 1 3 3 4 5 5 6 6 7 7 11 8 8 9 10 10 9 11 12 12 14 13
REMARK SMILES IDX 13 14
REMARK H PARENT
REMARK Flexibility Score: inf
ROOT
ATOM      1  C   UNL     1       6.328   1.259   0.881  1.00  0.00     0.080 C 
ENDROOT
BRANCH   1   2
ATOM      2  C   UNL     1       5.663   0.439   1.931  1.00  0.00     0.130 C 
ATOM      3  C   UNL     1       6.307  -0.777   2.497  1.00  0.00     0.087 C 
ATOM      4  O   UNL     1       4.562   0.743   2.361  1.00  0.00    -0.300 OA
ENDBRANCH   1   2
BRANCH   1   5
ATOM      5  C   UNL     1       5.805   0.914  -0.500  1.00  0.00     0.043 C 
BRANCH   5   6
ATOM      6  C   UNL     1       6.773   0.108  -1.265  1.00  0.00    -0.044 A 
ATOM      7  C   UNL     1       7.477   0.642  -2.350  1.00  0.00     0.008 A 
ATOM      8  C   UNL     1       7.000  -1.203  -0.911  1.00  0.00     0.054 A 
ATOM      9  C   UNL     1       8.373  -0.162  -3.031  1.00  0.00     0.051 A 
ATOM     10  C   UNL     1       7.908  -2.011  -1.601  1.00  0.00     0.166 A 
ATOM     11  C   UNL     1       8.599  -1.487  -2.670  1.00  0.00     0.165 A 
ATOM     12  O   UNL     1       8.303  -3.323  -1.447  1.00  0.00    -0.454 OA
ATOM     13  O   UNL     1       9.415  -2.497  -3.155  1.00  0.00    -0.454 OA
ATOM     14  C   UNL     1       9.326  -3.651  -2.353  1.00  0.00     0.468 C 
ENDBRANCH   5   6
ENDBRANCH   1   5
TORSDOF 3
ENDMDL
MODEL 5
REMARK VINA RESULT:      -6.7      1.201      5.169
REMARK SMILES CC(=O)CCc1ccc2c(c1)OCO2
REMARK SMILES IDX 4 1 2 2 1 3 3 4 5 5 6 6 7 7 11 8 8 9 10 10 9 11 12 12 14 13
REMARK SMILES IDX 13 14
REMARK H PARENT
REMARK Flexibility Score: inf
ROOT
ATOM      1  C   UNL     1       8.319   0.238  -2.634  1.00  0.00     0.080 C 
ENDROOT
BRANCH   1   2
ATOM      2  C   UNL     1       7.973  -1.208  -2.733  1.00  0.00     0.130 C 
ATOM      3  C   UNL     1       9.007  -2.240  -3.013  1.00  0.00     0.087 C 
ATOM      4  O   UNL     1       6.823  -1.589  -2.586  1.00  0.00    -0.300 OA
ENDBRANCH   1   2
BRANCH   1   5
ATOM      5  C   UNL     1       8.846   0.585  -1.255  1.00  0.00     0.043 C 
BRANCH   5   6
ATOM      6  C   UNL     1       7.806   0.443  -0.221  1.00  0.00    -0.044 A 
ATOM      7  C   UNL     1       7.908  -0.514   0.795  1.00  0.00     0.008 A 
ATOM      8  C   UNL     1       6.705   1.269  -0.243  1.00  0.00     0.054 A 
ATOM      9  C   UNL     1       6.901  -0.600   1.739  1.00  0.00     0.051 A 
ATOM     10  C   UNL     1       5.690   1.178   0.714  1.00  0.00     0.166 A 
ATOM     11  C   UNL     1       5.789   0.236   1.713  1.00  0.00     0.165 A 
ATOM     12  O   UNL     1       4.514   1.872   0.905  1.00  0.00    -0.454 OA
ATOM     13  O   UNL     1       4.660   0.372   2.506  1.00  0.00    -0.454 OA
ATOM     14  C   UNL     1       3.870   1.458   2.083  1.00  0.00     0.468 C 
ENDBRANCH   5   6
ENDBRANCH   1   5
TORSDOF 3
ENDMDL
