@<TRIPOS>MOLECULE
/home/cewinharhar/GITHUB/reincatalyze/data/processed/docking_pred/2023-May-25-1902_sub9_nm5_bs15_s42_ex16_mel10_mts10000_k50_ec01_g099_lra3e-4_lrc3e-3/96aa1335557473cc7235c71144735280de1f686e_ligand_9.pdbqt
 14 15 0 0 0
SMALL
GASTEIGER

@<TRIPOS>ATOM
      1  C          5.7340    1.2680   -0.3100 C.3     1  UNL1        0.0800
      2  C          5.2890    1.3120    1.1110 C.2     1  UNL1        0.1300
      3  C          6.0070    0.5640    2.1770 C.3     1  UNL1        0.0870
      4  O          4.3140    1.9670    1.4420 O.2     1  UNL1       -0.3000
      5  C          7.2380    1.1140   -0.4110 C.3     1  UNL1        0.0430
      6  C          7.6170   -0.1830   -0.9990 C.2     1  UNL1       -0.0440
      7  C          7.7360   -0.3540   -2.3830 C.2     1  UNL1        0.0080
      8  C          7.8630   -1.2590   -0.1760 C.2     1  UNL1        0.0540
      9  C          8.0950   -1.5950   -2.8770 C.2     1  UNL1        0.0510
     10  C          8.2270   -2.5110   -0.6810 C.2     1  UNL1        0.1660
     11  C          8.3430   -2.6800   -2.0420 C.2     1  UNL1        0.1650
     12  O          8.5190   -3.7170   -0.0800 O.2     1  UNL1       -0.4540
     13  O          8.7100   -4.0010   -2.2520 O.2     1  UNL1       -0.4540
     14  C          8.9200   -4.6700   -1.0320 C.3     1  UNL1        0.4680
@<TRIPOS>BOND
     1     9     7    1
     2     9    11    2
     3     7     6    2
     4    13    11    1
     5    13    14    1
     6    11    10    1
     7    14    12    1
     8     6     5    1
     9     6     8    1
    10    10     8    2
    11    10    12    1
    12     5     1    1
    13     1     2    1
    14     2     4    2
    15     2     3    1
