@<TRIPOS>MOLECULE
/home/cewinharhar/GITHUB/reincatalyze/data/processed/docking_pred/2023-May-25-1902_sub9_nm5_bs15_s42_ex16_mel10_mts10000_k50_ec01_g099_lra3e-4_lrc3e-3/96aa1335557473cc7235c71144735280de1f686e_ligand_9.pdbqt
 14 15 0 0 0
SMALL
GASTEIGER

@<TRIPOS>ATOM
      1  C          5.6370    2.1290    1.1340 C.3     1  UNL1        0.0800
      2  C          5.4140    0.9370    2.0000 C.2     1  UNL1        0.1300
      3  C          6.5200    0.0060    2.3480 C.3     1  UNL1        0.0870
      4  O          4.3070    0.6890    2.4500 O.2     1  UNL1       -0.3000
      5  C          5.4470    1.7890   -0.3310 C.3     1  UNL1        0.0430
      6  C          6.6040    1.0580   -0.8770 C.2     1  UNL1       -0.0440
      7  C          7.9160    1.4960   -0.6610 C.2     1  UNL1        0.0080
      8  C          6.4020   -0.0850   -1.6170 C.2     1  UNL1        0.0540
      9  C          8.9630    0.7690   -1.1980 C.2     1  UNL1        0.0510
     10  C          7.4640   -0.8170   -2.1570 C.2     1  UNL1        0.1660
     11  C          8.7550   -0.3860   -1.9460 C.2     1  UNL1        0.1650
     12  O          7.5230   -1.9660   -2.9170 O.2     1  UNL1       -0.4540
     13  O          9.5890   -1.2890   -2.5860 O.2     1  UNL1       -0.4540
     14  C          8.8540   -2.3560   -3.1370 C.3     1  UNL1        0.4680
@<TRIPOS>BOND
     1    14    12    1
     2    14    13    1
     3    12    10    1
     4    13    11    1
     5    10    11    2
     6    10     8    1
     7    11     9    1
     8     8     6    2
     9     9     7    2
    10     6     7    1
    11     6     5    1
    12     5     1    1
    13     1     2    1
    14     2     3    1
    15     2     4    2
