@<TRIPOS>MOLECULE
/home/cewinharhar/GITHUB/reincatalyze/data/processed/docking_pred/2023-May-25-1902_sub9_nm5_bs15_s42_ex16_mel10_mts10000_k50_ec01_g099_lra3e-4_lrc3e-3/96aa1335557473cc7235c71144735280de1f686e_ligand_9.pdbqt
 14 15 0 0 0
SMALL
GASTEIGER

@<TRIPOS>ATOM
      1  C          6.4280    0.8140    1.3890 C.3     1  UNL1        0.0800
      2  C          5.1830    1.5470    1.0260 C.2     1  UNL1        0.1300
      3  C          4.9980    2.1500   -0.3210 C.3     1  UNL1        0.0870
      4  O          4.2740    1.6740    1.8290 O.2     1  UNL1       -0.3000
      5  C          7.5140    1.0250    0.3530 C.3     1  UNL1        0.0430
      6  C          7.7930   -0.2080   -0.4050 C.2     1  UNL1       -0.0440
      7  C          7.7820   -0.2270   -1.8040 C.2     1  UNL1        0.0080
      8  C          8.0750   -1.3740    0.2700 C.2     1  UNL1        0.0540
      9  C          8.0530   -1.4140   -2.4610 C.2     1  UNL1        0.0510
     10  C          8.3480   -2.5710   -0.3990 C.2     1  UNL1        0.1660
     11  C          8.3360   -2.5910   -1.7760 C.2     1  UNL1        0.1650
     12  O          8.6510   -3.8430    0.0370 O.2     1  UNL1       -0.4540
     13  O          8.6370   -3.8880   -2.1600 O.2     1  UNL1       -0.4540
     14  C          8.9320   -4.6940   -1.0440 C.3     1  UNL1        0.4680
@<TRIPOS>BOND
     1     9     7    1
     2     9    11    2
     3    13    11    1
     4    13    14    1
     5     7     6    2
     6    11    10    1
     7    14    12    1
     8     6     8    1
     9     6     5    1
    10    10    12    1
    11    10     8    2
    12     3     2    1
    13     5     1    1
    14     2     1    1
    15     2     4    2
