@<TRIPOS>MOLECULE
/home/cewinharhar/GITHUB/reincatalyze/data/processed/docking_pred/2023-May-25-1902_sub9_nm5_bs15_s42_ex16_mel10_mts10000_k50_ec01_g099_lra3e-4_lrc3e-3/97b80f67ae9ab19215981068b7c743dd8d1e9d0d_ligand_9.pdbqt
 14 15 0 0 0
SMALL
GASTEIGER

@<TRIPOS>ATOM
      1  C          6.3830    1.1780    0.9530 C.3     1  UNL1        0.0800
      2  C          5.6410    0.3490    1.9430 C.2     1  UNL1        0.1300
      3  C          6.2400   -0.8730    2.5440 C.3     1  UNL1        0.0870
      4  O          4.5100    0.6500    2.2910 O.2     1  UNL1       -0.3000
      5  C          5.8860    0.9290   -0.4570 C.3     1  UNL1        0.0430
      6  C          6.8280    0.1000   -1.2300 C.2     1  UNL1       -0.0440
      7  C          7.5130    0.6090   -2.3390 C.2     1  UNL1        0.0080
      8  C          7.0500   -1.2070   -0.8590 C.2     1  UNL1        0.0540
      9  C          8.3860   -0.2150   -3.0250 C.2     1  UNL1        0.0510
     10  C          7.9340   -2.0360   -1.5550 C.2     1  UNL1        0.1660
     11  C          8.6070   -1.5360   -2.6480 C.2     1  UNL1        0.1650
     12  O          8.3200   -3.3490   -1.3880 O.2     1  UNL1       -0.4540
     13  O          9.4010   -2.5630   -3.1340 O.2     1  UNL1       -0.4540
     14  C          9.3190   -3.7020   -2.3110 C.3     1  UNL1        0.4680
@<TRIPOS>BOND
     1    13    11    1
     2    13    14    1
     3     9    11    2
     4     9     7    1
     5    11    10    1
     6     7     6    2
     7    14    12    1
     8    10    12    1
     9    10     8    2
    10     6     8    1
    11     6     5    1
    12     5     1    1
    13     1     2    1
    14     2     4    2
    15     2     3    1
