@<TRIPOS>MOLECULE
/home/cewinharhar/GITHUB/reincatalyze/data/processed/docking_pred/2023-May-25-1902_sub9_nm5_bs15_s42_ex16_mel10_mts10000_k50_ec01_g099_lra3e-4_lrc3e-3/97b80f67ae9ab19215981068b7c743dd8d1e9d0d_ligand_9.pdbqt
 14 15 0 0 0
SMALL
GASTEIGER

@<TRIPOS>ATOM
      1  C          5.6870    1.3840   -0.3270 C.3     1  UNL1        0.0800
      2  C          5.0580    1.2910    1.0200 C.2     1  UNL1        0.1300
      3  C          5.3440    0.1570    1.9390 C.3     1  UNL1        0.0870
      4  O          4.2830    2.1500    1.4110 O.2     1  UNL1       -0.3000
      5  C          7.1830    1.1530   -0.2530 C.3     1  UNL1        0.0430
      6  C          7.5690   -0.1280   -0.8710 C.2     1  UNL1       -0.0440
      7  C          7.6650   -0.2720   -2.2600 C.2     1  UNL1        0.0080
      8  C          7.8460   -1.2150   -0.0730 C.2     1  UNL1        0.0540
      9  C          8.0320   -1.4980   -2.7840 C.2     1  UNL1        0.0510
     10  C          8.2180   -2.4520   -0.6070 C.2     1  UNL1        0.1660
     11  C          8.3110   -2.5950   -1.9740 C.2     1  UNL1        0.1650
     12  O          8.5390   -3.6640   -0.0350 O.2     1  UNL1       -0.4540
     13  O          8.6930   -3.9060   -2.2150 O.2     1  UNL1       -0.4540
     14  C          8.9360   -4.5930   -1.0110 C.3     1  UNL1        0.4680
@<TRIPOS>BOND
     1     9     7    1
     2     9    11    2
     3     7     6    2
     4    13    11    1
     5    13    14    1
     6    11    10    1
     7    14    12    1
     8     6     5    1
     9     6     8    1
    10    10     8    2
    11    10    12    1
    12     1     5    1
    13     1     2    1
    14     2     4    2
    15     2     3    1
