@<TRIPOS>MOLECULE
/home/cewinharhar/GITHUB/reincatalyze/data/processed/docking_pred/2023-May-25-1902_sub9_nm5_bs15_s42_ex16_mel10_mts10000_k50_ec01_g099_lra3e-4_lrc3e-3/97b80f67ae9ab19215981068b7c743dd8d1e9d0d_ligand_9.pdbqt
 14 15 0 0 0
SMALL
GASTEIGER

@<TRIPOS>ATOM
      1  C          5.5010    1.8920    1.2930 C.3     1  UNL1        0.0800
      2  C          5.0320    0.6640    1.9930 C.2     1  UNL1        0.1300
      3  C          5.8990   -0.5380    2.1250 C.3     1  UNL1        0.0870
      4  O          3.9150    0.6080    2.4810 O.2     1  UNL1       -0.3000
      5  C          5.3910    1.7440   -0.2120 C.3     1  UNL1        0.0430
      6  C          6.5500    1.0290   -0.7760 C.2     1  UNL1       -0.0440
      7  C          7.8630    1.4340   -0.5070 C.2     1  UNL1        0.0080
      8  C          6.3490   -0.0650   -1.5860 C.2     1  UNL1        0.0540
      9  C          8.9110    0.7240   -1.0640 C.2     1  UNL1        0.0510
     10  C          7.4120   -0.7800   -2.1460 C.2     1  UNL1        0.1660
     11  C          8.7040   -0.3810   -1.8830 C.2     1  UNL1        0.1650
     12  O          7.4720   -1.8830   -2.9700 O.2     1  UNL1       -0.4540
     13  O          9.5390   -1.2580   -2.5580 O.2     1  UNL1       -0.4540
     14  C          8.8020   -2.2800   -3.1860 C.3     1  UNL1        0.4680
@<TRIPOS>BOND
     1    14    12    1
     2    14    13    1
     3    12    10    1
     4    13    11    1
     5    10    11    2
     6    10     8    1
     7    11     9    1
     8     8     6    2
     9     9     7    2
    10     6     7    1
    11     6     5    1
    12     5     1    1
    13     1     2    1
    14     2     3    1
    15     2     4    2
