@<TRIPOS>MOLECULE
/home/cewinharhar/GITHUB/reincatalyze/data/processed/docking_pred/2023-May-25-1902_sub9_nm5_bs15_s42_ex16_mel10_mts10000_k50_ec01_g099_lra3e-4_lrc3e-3/98ce2146f260201d1ebb2f82702d5d512d51d1e1_ligand_9.pdbqt
 14 15 0 0 0
SMALL
GASTEIGER

@<TRIPOS>ATOM
      1  C          6.3960    1.2070    0.9390 C.3     1  UNL1        0.0800
      2  C          5.6670    0.3670    1.9300 C.2     1  UNL1        0.1300
      3  C          6.2710   -0.8640    2.5060 C.3     1  UNL1        0.0870
      4  O          4.5430    0.6680    2.3000 O.2     1  UNL1       -0.3000
      5  C          5.8940    0.9570   -0.4690 C.3     1  UNL1        0.0430
      6  C          6.8280    0.1170   -1.2400 C.2     1  UNL1       -0.0440
      7  C          7.5100    0.6130   -2.3570 C.2     1  UNL1        0.0080
      8  C          7.0430   -1.1890   -0.8610 C.2     1  UNL1        0.0540
      9  C          8.3740   -0.2220   -3.0420 C.2     1  UNL1        0.0510
     10  C          7.9190   -2.0290   -1.5560 C.2     1  UNL1        0.1660
     11  C          8.5890   -1.5410   -2.6550 C.2     1  UNL1        0.1650
     12  O          8.2980   -3.3430   -1.3810 O.2     1  UNL1       -0.4540
     13  O          9.3750   -2.5760   -3.1370 O.2     1  UNL1       -0.4540
     14  C          9.2890   -3.7090   -2.3060 C.3     1  UNL1        0.4680
@<TRIPOS>BOND
     1    13    11    1
     2    13    14    1
     3     9    11    2
     4     9     7    1
     5    11    10    1
     6     7     6    2
     7    14    12    1
     8    10    12    1
     9    10     8    2
    10     6     8    1
    11     6     5    1
    12     5     1    1
    13     1     2    1
    14     2     4    2
    15     2     3    1
