MODEL 1
REMARK VINA RESULT:      -7.7      0.000      0.000
REMARK SMILES CC(=O)CCc1ccc2c(c1)OCO2
REMARK SMILES IDX 4 1 2 2 1 3 3 4 5 5 6 6 7 7 11 8 8 9 10 10 9 11 12 12 14 13
REMARK SMILES IDX 13 14
REMARK H PARENT
REMARK Flexibility Score: inf
ROOT
ATOM      1  C   UNL     1       5.504   1.907   1.267  1.00  0.00     0.080 C 
ENDROOT
BRANCH   1   2
ATOM      2  C   UNL     1       5.031   0.698   1.997  1.00  0.00     0.130 C 
ATOM      3  C   UNL     1       5.870  -0.524   2.109  1.00  0.00     0.087 C 
ATOM      4  O   UNL     1       3.932   0.677   2.528  1.00  0.00    -0.300 OA
ENDBRANCH   1   2
BRANCH   1   5
ATOM      5  C   UNL     1       5.384   1.726  -0.233  1.00  0.00     0.043 C 
BRANCH   5   6
ATOM      6  C   UNL     1       6.555   1.028  -0.794  1.00  0.00    -0.044 A 
ATOM      7  C   UNL     1       7.860   1.467  -0.542  1.00  0.00     0.008 A 
ATOM      8  C   UNL     1       6.373  -0.084  -1.584  1.00  0.00     0.054 A 
ATOM      9  C   UNL     1       8.920   0.771  -1.094  1.00  0.00     0.051 A 
ATOM     10  C   UNL     1       7.448  -0.784  -2.140  1.00  0.00     0.166 A 
ATOM     11  C   UNL     1       8.732  -0.352  -1.893  1.00  0.00     0.165 A 
ATOM     12  O   UNL     1       7.527  -1.899  -2.946  1.00  0.00    -0.454 OA
ATOM     13  O   UNL     1       9.582  -1.222  -2.559  1.00  0.00    -0.454 OA
ATOM     14  C   UNL     1       8.864  -2.270  -3.165  1.00  0.00     0.468 C 
ENDBRANCH   5   6
ENDBRANCH   1   5
TORSDOF 3
ENDMDL
MODEL 2
REMARK VINA RESULT:      -7.2      1.265      1.480
REMARK SMILES CC(=O)CCc1ccc2c(c1)OCO2
REMARK SMILES IDX 4 1 2 2 1 3 3 4 5 5 6 6 7 7 11 8 8 9 10 10 9 11 12 12 14 13
REMARK SMILES IDX 13 14
REMARK H PARENT
REMARK Flexibility Score: inf
ROOT
ATOM      1  C   UNL     1       6.396   1.207   0.939  1.00  0.00     0.080 C 
ENDROOT
BRANCH   1   2
ATOM      2  C   UNL     1       5.667   0.367   1.930  1.00  0.00     0.130 C 
ATOM      3  C   UNL     1       6.271  -0.864   2.506  1.00  0.00     0.087 C 
ATOM      4  O   UNL     1       4.543   0.668   2.300  1.00  0.00    -0.300 OA
ENDBRANCH   1   2
BRANCH   1   5
ATOM      5  C   UNL     1       5.894   0.957  -0.469  1.00  0.00     0.043 C 
BRANCH   5   6
ATOM      6  C   UNL     1       6.828   0.117  -1.240  1.00  0.00    -0.044 A 
ATOM      7  C   UNL     1       7.510   0.613  -2.357  1.00  0.00     0.008 A 
ATOM      8  C   UNL     1       7.043  -1.189  -0.861  1.00  0.00     0.054 A 
ATOM      9  C   UNL     1       8.374  -0.222  -3.042  1.00  0.00     0.051 A 
ATOM     10  C   UNL     1       7.919  -2.029  -1.556  1.00  0.00     0.166 A 
ATOM     11  C   UNL     1       8.589  -1.541  -2.655  1.00  0.00     0.165 A 
ATOM     12  O   UNL     1       8.298  -3.343  -1.381  1.00  0.00    -0.454 OA
ATOM     13  O   UNL     1       9.375  -2.576  -3.137  1.00  0.00    -0.454 OA
ATOM     14  C   UNL     1       9.289  -3.709  -2.306  1.00  0.00     0.468 C 
ENDBRANCH   5   6
ENDBRANCH   1   5
TORSDOF 3
ENDMDL
MODEL 3
REMARK VINA RESULT:      -7.0      1.655      2.068
REMARK SMILES CC(=O)CCc1ccc2c(c1)OCO2
REMARK SMILES IDX 4 1 2 2 1 3 3 4 5 5 6 6 7 7 11 8 8 9 10 10 9 11 12 12 14 13
REMARK SMILES IDX 13 14
REMARK H PARENT
REMARK Flexibility Score: inf
ROOT
ATOM      1  C   UNL     1       5.721   1.740  -0.130  1.00  0.00     0.080 C 
ENDROOT
BRANCH   1   2
ATOM      2  C   UNL     1       5.042   1.348   1.137  1.00  0.00     0.130 C 
ATOM      3  C   UNL     1       5.475   0.159   1.920  1.00  0.00     0.087 C 
ATOM      4  O   UNL     1       4.104   1.996   1.571  1.00  0.00    -0.300 OA
ENDBRANCH   1   2
BRANCH   1   5
ATOM      5  C   UNL     1       7.204   1.430  -0.078  1.00  0.00     0.043 C 
BRANCH   5   6
ATOM      6  C   UNL     1       7.532   0.200  -0.821  1.00  0.00    -0.044 A 
ATOM      7  C   UNL     1       7.533   0.167  -2.220  1.00  0.00     0.008 A 
ATOM      8  C   UNL     1       7.847  -0.949  -0.132  1.00  0.00     0.054 A 
ATOM      9  C   UNL     1       7.849  -1.016  -2.863  1.00  0.00     0.051 A 
ATOM     10  C   UNL     1       8.167  -2.143  -0.787  1.00  0.00     0.166 A 
ATOM     11  C   UNL     1       8.168  -2.176  -2.163  1.00  0.00     0.165 A 
ATOM     12  O   UNL     1       8.510  -3.399  -0.335  1.00  0.00    -0.454 OA
ATOM     13  O   UNL     1       8.515  -3.466  -2.533  1.00  0.00    -0.454 OA
ATOM     14  C   UNL     1       8.829  -4.250  -1.406  1.00  0.00     0.468 C 
ENDBRANCH   5   6
ENDBRANCH   1   5
TORSDOF 3
ENDMDL
MODEL 4
REMARK VINA RESULT:      -6.8      1.187      5.188
REMARK SMILES CC(=O)CCc1ccc2c(c1)OCO2
REMARK SMILES IDX 4 1 2 2 1 3 3 4 5 5 6 6 7 7 11 8 8 9 10 10 9 11 12 12 14 13
REMARK SMILES IDX 13 14
REMARK H PARENT
REMARK Flexibility Score: inf
ROOT
ATOM      1  C   UNL     1       8.323   0.202  -2.629  1.00  0.00     0.080 C 
ENDROOT
BRANCH   1   2
ATOM      2  C   UNL     1       8.049  -1.258  -2.739  1.00  0.00     0.130 C 
ATOM      3  C   UNL     1       9.130  -2.236  -3.034  1.00  0.00     0.087 C 
ATOM      4  O   UNL     1       6.919  -1.696  -2.590  1.00  0.00    -0.300 OA
ENDBRANCH   1   2
BRANCH   1   5
ATOM      5  C   UNL     1       8.837   0.563  -1.249  1.00  0.00     0.043 C 
BRANCH   5   6
ATOM      6  C   UNL     1       7.791   0.417  -0.222  1.00  0.00    -0.044 A 
ATOM      7  C   UNL     1       7.873  -0.564   0.773  1.00  0.00     0.008 A 
ATOM      8  C   UNL     1       6.705   1.262  -0.229  1.00  0.00     0.054 A 
ATOM      9  C   UNL     1       6.861  -0.653   1.713  1.00  0.00     0.051 A 
ATOM     10  C   UNL     1       5.685   1.169   0.723  1.00  0.00     0.166 A 
ATOM     11  C   UNL     1       5.764   0.203   1.702  1.00  0.00     0.165 A 
ATOM     12  O   UNL     1       4.521   1.878   0.926  1.00  0.00    -0.454 OA
ATOM     13  O   UNL     1       4.635   0.342   2.494  1.00  0.00    -0.454 OA
ATOM     14  C   UNL     1       3.866   1.450   2.092  1.00  0.00     0.468 C 
ENDBRANCH   5   6
ENDBRANCH   1   5
TORSDOF 3
ENDMDL
MODEL 5
REMARK VINA RESULT:      -6.7      1.688      2.196
REMARK SMILES CC(=O)CCc1ccc2c(c1)OCO2
REMARK SMILES IDX 4 1 2 2 1 3 3 4 5 5 6 6 7 7 11 8 8 9 10 10 9 11 12 12 14 13
REMARK SMILES IDX 13 14
REMARK H PARENT
REMARK Flexibility Score: inf
ROOT
ATOM      1  C   UNL     1       6.581   0.897   1.596  1.00  0.00     0.080 C 
ENDROOT
BRANCH   1   2
ATOM      2  C   UNL     1       5.137   1.259   1.525  1.00  0.00     0.130 C 
ATOM      3  C   UNL     1       4.607   2.150   0.459  1.00  0.00     0.087 C 
ATOM      4  O   UNL     1       4.343   0.832   2.348  1.00  0.00    -0.300 OA
ENDBRANCH   1   2
BRANCH   1   5
ATOM      5  C   UNL     1       7.311   1.298   0.329  1.00  0.00     0.043 C 
BRANCH   5   6
ATOM      6  C   UNL     1       7.594   0.134  -0.530  1.00  0.00    -0.044 A 
ATOM      7  C   UNL     1       7.543   0.223  -1.926  1.00  0.00     0.008 A 
ATOM      8  C   UNL     1       7.918  -1.075   0.044  1.00  0.00     0.054 A 
ATOM      9  C   UNL     1       7.819  -0.903  -2.680  1.00  0.00     0.051 A 
ATOM     10  C   UNL     1       8.197  -2.209  -0.723  1.00  0.00     0.166 A 
ATOM     11  C   UNL     1       8.147  -2.123  -2.097  1.00  0.00     0.165 A 
ATOM     12  O   UNL     1       8.539  -3.505  -0.396  1.00  0.00    -0.454 OA
ATOM     13  O   UNL     1       8.463  -3.379  -2.589  1.00  0.00    -0.454 OA
ATOM     14  C   UNL     1       8.807  -4.262  -1.548  1.00  0.00     0.468 C 
ENDBRANCH   5   6
ENDBRANCH   1   5
TORSDOF 3
ENDMDL
