@<TRIPOS>MOLECULE
/home/cewinharhar/GITHUB/reincatalyze/data/processed/docking_pred/2023-May-25-1902_sub9_nm5_bs15_s42_ex16_mel10_mts10000_k50_ec01_g099_lra3e-4_lrc3e-3/98ce2146f260201d1ebb2f82702d5d512d51d1e1_ligand_9.pdbqt
 14 15 0 0 0
SMALL
GASTEIGER

@<TRIPOS>ATOM
      1  C          5.7210    1.7400   -0.1300 C.3     1  UNL1        0.0800
      2  C          5.0420    1.3480    1.1370 C.2     1  UNL1        0.1300
      3  C          5.4750    0.1590    1.9200 C.3     1  UNL1        0.0870
      4  O          4.1040    1.9960    1.5710 O.2     1  UNL1       -0.3000
      5  C          7.2040    1.4300   -0.0780 C.3     1  UNL1        0.0430
      6  C          7.5320    0.2000   -0.8210 C.2     1  UNL1       -0.0440
      7  C          7.5330    0.1670   -2.2200 C.2     1  UNL1        0.0080
      8  C          7.8470   -0.9490   -0.1320 C.2     1  UNL1        0.0540
      9  C          7.8490   -1.0160   -2.8630 C.2     1  UNL1        0.0510
     10  C          8.1670   -2.1430   -0.7870 C.2     1  UNL1        0.1660
     11  C          8.1680   -2.1760   -2.1630 C.2     1  UNL1        0.1650
     12  O          8.5100   -3.3990   -0.3350 O.2     1  UNL1       -0.4540
     13  O          8.5150   -3.4660   -2.5330 O.2     1  UNL1       -0.4540
     14  C          8.8290   -4.2500   -1.4060 C.3     1  UNL1        0.4680
@<TRIPOS>BOND
     1     9     7    1
     2     9    11    2
     3    13    11    1
     4    13    14    1
     5     7     6    2
     6    11    10    1
     7    14    12    1
     8     6     8    1
     9     6     5    1
    10    10    12    1
    11    10     8    2
    12     1     5    1
    13     1     2    1
    14     2     4    2
    15     2     3    1
