@<TRIPOS>MOLECULE
/home/cewinharhar/GITHUB/reincatalyze/data/processed/docking_pred/2023-May-25-1902_sub9_nm5_bs15_s42_ex16_mel10_mts10000_k50_ec01_g099_lra3e-4_lrc3e-3/9a7d3f5f853688f06c0e35b58fb12e655ab1ce10_ligand_9.pdbqt
 14 15 0 0 0
SMALL
GASTEIGER

@<TRIPOS>ATOM
      1  C          5.3050   -0.0770    1.9550 C.3     1  UNL1        0.0800
      2  C          4.4380    1.1220    1.7830 C.2     1  UNL1        0.1300
      3  C          4.7230    2.1500    0.7460 C.3     1  UNL1        0.0870
      4  O          3.4610    1.2960    2.4940 O.2     1  UNL1       -0.3000
      5  C          6.7740    0.2940    1.9030 C.3     1  UNL1        0.0430
      6  C          7.3810   -0.0580    0.6080 C.2     1  UNL1       -0.0440
      7  C          7.8680    0.9220   -0.2650 C.2     1  UNL1        0.0080
      8  C          7.4790   -1.3810    0.2370 C.2     1  UNL1        0.0540
      9  C          8.4290    0.5310   -1.4670 C.2     1  UNL1        0.0510
     10  C          8.0470   -1.7700   -0.9790 C.2     1  UNL1        0.1660
     11  C          8.5260   -0.8070   -1.8390 C.2     1  UNL1        0.1650
     12  O          8.2560   -3.0000   -1.5670 O.2     1  UNL1       -0.4540
     13  O          9.0250   -1.4710   -2.9480 O.2     1  UNL1       -0.4540
     14  C          8.9560   -2.8670   -2.7780 C.3     1  UNL1        0.4680
@<TRIPOS>BOND
     1    13    14    1
     2    13    11    1
     3    14    12    1
     4    11     9    2
     5    11    10    1
     6    12    10    1
     7     9     7    1
     8    10     8    2
     9     7     6    2
    10     8     6    1
    11     6     5    1
    12     3     2    1
    13     2     1    1
    14     2     4    2
    15     5     1    1
