@<TRIPOS>MOLECULE
/home/cewinharhar/GITHUB/reincatalyze/data/processed/docking_pred/2023-May-25-1902_sub9_nm5_bs15_s42_ex16_mel10_mts10000_k50_ec01_g099_lra3e-4_lrc3e-3/9fad910e57fbde25b93c61ef9d3287f531a6e420_ligand_9.pdbqt
 14 15 0 0 0
SMALL
GASTEIGER

@<TRIPOS>ATOM
      1  C          5.8080    1.4020   -0.2530 C.3     1  UNL1        0.0800
      2  C          5.1540    1.2710    1.0790 C.2     1  UNL1        0.1300
      3  C          5.3610    0.0720    1.9350 C.3     1  UNL1        0.0870
      4  O          4.4250    2.1500    1.5090 O.2     1  UNL1       -0.3000
      5  C          7.2940    1.1140   -0.1680 C.3     1  UNL1        0.0430
      6  C          7.6380   -0.1710   -0.8020 C.2     1  UNL1       -0.0440
      7  C          7.6640   -0.3190   -2.1930 C.2     1  UNL1        0.0080
      8  C          7.9450   -1.2580   -0.0150 C.2     1  UNL1        0.0540
      9  C          7.9950   -1.5490   -2.7310 C.2     1  UNL1        0.0510
     10  C          8.2800   -2.5000   -0.5640 C.2     1  UNL1        0.1660
     11  C          8.3050   -2.6460   -1.9340 C.2     1  UNL1        0.1650
     12  O          8.6190   -3.7140   -0.0060 O.2     1  UNL1       -0.4540
     13  O          8.6630   -3.9610   -2.1900 O.2     1  UNL1       -0.4540
     14  C          8.9600   -4.6480   -0.9970 C.3     1  UNL1        0.4680
@<TRIPOS>BOND
     1     9     7    1
     2     9    11    2
     3     7     6    2
     4    13    11    1
     5    13    14    1
     6    11    10    1
     7    14    12    1
     8     6     5    1
     9     6     8    1
    10    10     8    2
    11    10    12    1
    12     1     5    1
    13     1     2    1
    14     2     4    2
    15     2     3    1
