@<TRIPOS>MOLECULE
/home/cewinharhar/GITHUB/reincatalyze/data/processed/docking_pred/2023-May-25-1902_sub9_nm5_bs15_s42_ex16_mel10_mts10000_k50_ec01_g099_lra3e-4_lrc3e-3/a2439765960c5bc5c67b1c70d0a6c03b56a49d49_ligand_9.pdbqt
 14 15 0 0 0
SMALL
GASTEIGER

@<TRIPOS>ATOM
      1  C          5.8770    1.5470   -0.3500 C.3     1  UNL1        0.0800
      2  C          5.1380    1.3710    0.9310 C.2     1  UNL1        0.1300
      3  C          5.4380    0.2470    1.8580 C.3     1  UNL1        0.0870
      4  O          4.2580    2.1500    1.2590 O.2     1  UNL1       -0.3000
      5  C          7.3420    1.1890   -0.1940 C.3     1  UNL1        0.0430
      6  C          7.6630   -0.0960   -0.8410 C.2     1  UNL1       -0.0440
      7  C          7.6490   -0.2390   -2.2330 C.2     1  UNL1        0.0080
      8  C          7.9880   -1.1870   -0.0670 C.2     1  UNL1        0.0540
      9  C          7.9600   -1.4680   -2.7840 C.2     1  UNL1        0.0510
     10  C          8.3020   -2.4280   -0.6300 C.2     1  UNL1        0.1660
     11  C          8.2870   -2.5700   -2.0000 C.2     1  UNL1        0.1650
     12  O          8.6510   -3.6450   -0.0850 O.2     1  UNL1       -0.4540
     13  O          8.6330   -3.8840   -2.2700 O.2     1  UNL1       -0.4540
     14  C          8.9600   -4.5770   -1.0890 C.3     1  UNL1        0.4680
@<TRIPOS>BOND
     1     9     7    1
     2     9    11    2
     3    13    11    1
     4    13    14    1
     5     7     6    2
     6    11    10    1
     7    14    12    1
     8     6     5    1
     9     6     8    1
    10    10    12    1
    11    10     8    2
    12     1     5    1
    13     1     2    1
    14     2     4    2
    15     2     3    1
