MODEL 1
REMARK VINA RESULT:      -7.6      0.000      0.000
REMARK SMILES CC(=O)CCc1ccc2c(c1)OCO2
REMARK SMILES IDX 4 1 2 2 1 3 3 4 5 5 6 6 7 7 11 8 8 9 10 10 9 11 12 12 14 13
REMARK SMILES IDX 13 14
REMARK H PARENT
REMARK Flexibility Score: inf
ROOT
ATOM      1  C   UNL     1       5.547   1.883   1.297  1.00  0.00     0.080 C 
ENDROOT
BRANCH   1   2
ATOM      2  C   UNL     1       5.113   0.659   2.027  1.00  0.00     0.130 C 
ATOM      3  C   UNL     1       6.011  -0.517   2.183  1.00  0.00     0.087 C 
ATOM      4  O   UNL     1       3.999   0.586   2.520  1.00  0.00    -0.300 OA
ENDBRANCH   1   2
BRANCH   1   5
ATOM      5  C   UNL     1       5.410   1.708  -0.202  1.00  0.00     0.043 C 
BRANCH   5   6
ATOM      6  C   UNL     1       6.573   1.012  -0.780  1.00  0.00    -0.044 A 
ATOM      7  C   UNL     1       7.881   1.449  -0.543  1.00  0.00     0.008 A 
ATOM      8  C   UNL     1       6.381  -0.098  -1.571  1.00  0.00     0.054 A 
ATOM      9  C   UNL     1       8.934   0.756  -1.111  1.00  0.00     0.051 A 
ATOM     10  C   UNL     1       7.449  -0.796  -2.143  1.00  0.00     0.166 A 
ATOM     11  C   UNL     1       8.736  -0.365  -1.911  1.00  0.00     0.165 A 
ATOM     12  O   UNL     1       7.517  -1.909  -2.954  1.00  0.00    -0.454 OA
ATOM     13  O   UNL     1       9.577  -1.232  -2.591  1.00  0.00    -0.454 OA
ATOM     14  C   UNL     1       8.852  -2.279  -3.191  1.00  0.00     0.468 C 
ENDBRANCH   5   6
ENDBRANCH   1   5
TORSDOF 3
ENDMDL
MODEL 2
REMARK VINA RESULT:      -7.4      1.878      2.356
REMARK SMILES CC(=O)CCc1ccc2c(c1)OCO2
REMARK SMILES IDX 4 1 2 2 1 3 3 4 5 5 6 6 7 7 11 8 8 9 10 10 9 11 12 12 14 13
REMARK SMILES IDX 13 14
REMARK H PARENT
REMARK Flexibility Score: inf
ROOT
ATOM      1  C   UNL     1       5.877   1.547  -0.350  1.00  0.00     0.080 C 
ENDROOT
BRANCH   1   2
ATOM      2  C   UNL     1       5.138   1.371   0.931  1.00  0.00     0.130 C 
ATOM      3  C   UNL     1       5.438   0.247   1.858  1.00  0.00     0.087 C 
ATOM      4  O   UNL     1       4.258   2.150   1.259  1.00  0.00    -0.300 OA
ENDBRANCH   1   2
BRANCH   1   5
ATOM      5  C   UNL     1       7.342   1.189  -0.194  1.00  0.00     0.043 C 
BRANCH   5   6
ATOM      6  C   UNL     1       7.663  -0.096  -0.841  1.00  0.00    -0.044 A 
ATOM      7  C   UNL     1       7.649  -0.239  -2.233  1.00  0.00     0.008 A 
ATOM      8  C   UNL     1       7.988  -1.187  -0.067  1.00  0.00     0.054 A 
ATOM      9  C   UNL     1       7.960  -1.468  -2.784  1.00  0.00     0.051 A 
ATOM     10  C   UNL     1       8.302  -2.428  -0.630  1.00  0.00     0.166 A 
ATOM     11  C   UNL     1       8.287  -2.570  -2.000  1.00  0.00     0.165 A 
ATOM     12  O   UNL     1       8.651  -3.645  -0.085  1.00  0.00    -0.454 OA
ATOM     13  O   UNL     1       8.633  -3.884  -2.270  1.00  0.00    -0.454 OA
ATOM     14  C   UNL     1       8.960  -4.577  -1.089  1.00  0.00     0.468 C 
ENDBRANCH   5   6
ENDBRANCH   1   5
TORSDOF 3
ENDMDL
MODEL 3
REMARK VINA RESULT:      -7.2      2.046      2.604
REMARK SMILES CC(=O)CCc1ccc2c(c1)OCO2
REMARK SMILES IDX 4 1 2 2 1 3 3 4 5 5 6 6 7 7 11 8 8 9 10 10 9 11 12 12 14 13
REMARK SMILES IDX 13 14
REMARK H PARENT
REMARK Flexibility Score: inf
ROOT
ATOM      1  C   UNL     1       5.449  -0.027   2.005  1.00  0.00     0.080 C 
ENDROOT
BRANCH   1   2
ATOM      2  C   UNL     1       4.582   1.159   1.757  1.00  0.00     0.130 C 
ATOM      3  C   UNL     1       4.897   2.147   0.691  1.00  0.00     0.087 C 
ATOM      4  O   UNL     1       3.582   1.355   2.428  1.00  0.00    -0.300 OA
ENDBRANCH   1   2
BRANCH   1   5
ATOM      5  C   UNL     1       6.876   0.232   1.562  1.00  0.00     0.043 C 
BRANCH   5   6
ATOM      6  C   UNL     1       7.296  -0.699   0.501  1.00  0.00    -0.044 A 
ATOM      7  C   UNL     1       7.173  -0.370  -0.854  1.00  0.00     0.008 A 
ATOM      8  C   UNL     1       7.826  -1.924   0.838  1.00  0.00     0.054 A 
ATOM      9  C   UNL     1       7.586  -1.285  -1.806  1.00  0.00     0.051 A 
ATOM     10  C   UNL     1       8.242  -2.845  -0.128  1.00  0.00     0.166 A 
ATOM     11  C   UNL     1       8.120  -2.522  -1.462  1.00  0.00     0.165 A 
ATOM     12  O   UNL     1       8.790  -4.107  -0.049  1.00  0.00    -0.454 OA
ATOM     13  O   UNL     1       8.603  -3.604  -2.181  1.00  0.00    -0.454 OA
ATOM     14  C   UNL     1       9.122  -4.593  -1.325  1.00  0.00     0.468 C 
ENDBRANCH   5   6
ENDBRANCH   1   5
TORSDOF 3
ENDMDL
MODEL 4
REMARK VINA RESULT:      -7.0      1.261      1.474
REMARK SMILES CC(=O)CCc1ccc2c(c1)OCO2
REMARK SMILES IDX 4 1 2 2 1 3 3 4 5 5 6 6 7 7 11 8 8 9 10 10 9 11 12 12 14 13
REMARK SMILES IDX 13 14
REMARK H PARENT
REMARK Flexibility Score: inf
ROOT
ATOM      1  C   UNL     1       6.386   1.164   0.961  1.00  0.00     0.080 C 
ENDROOT
BRANCH   1   2
ATOM      2  C   UNL     1       5.642   0.345   1.958  1.00  0.00     0.130 C 
ATOM      3  C   UNL     1       6.231  -0.883   2.555  1.00  0.00     0.087 C 
ATOM      4  O   UNL     1       4.519   0.662   2.316  1.00  0.00    -0.300 OA
ENDBRANCH   1   2
BRANCH   1   5
ATOM      5  C   UNL     1       5.882   0.910  -0.446  1.00  0.00     0.043 C 
BRANCH   5   6
ATOM      6  C   UNL     1       6.823   0.083  -1.222  1.00  0.00    -0.044 A 
ATOM      7  C   UNL     1       7.490   0.588  -2.344  1.00  0.00     0.008 A 
ATOM      8  C   UNL     1       7.061  -1.218  -0.842  1.00  0.00     0.054 A 
ATOM      9  C   UNL     1       8.362  -0.235  -3.033  1.00  0.00     0.051 A 
ATOM     10  C   UNL     1       7.945  -2.046  -1.541  1.00  0.00     0.166 A 
ATOM     11  C   UNL     1       8.600  -1.550  -2.646  1.00  0.00     0.165 A 
ATOM     12  O   UNL     1       8.345  -3.354  -1.367  1.00  0.00    -0.454 OA
ATOM     13  O   UNL     1       9.398  -2.574  -3.132  1.00  0.00    -0.454 OA
ATOM     14  C   UNL     1       9.336  -3.706  -2.298  1.00  0.00     0.468 C 
ENDBRANCH   5   6
ENDBRANCH   1   5
TORSDOF 3
ENDMDL
MODEL 5
REMARK VINA RESULT:      -6.9      1.946      2.560
REMARK SMILES CC(=O)CCc1ccc2c(c1)OCO2
REMARK SMILES IDX 4 1 2 2 1 3 3 4 5 5 6 6 7 7 11 8 8 9 10 10 9 11 12 12 14 13
REMARK SMILES IDX 13 14
REMARK H PARENT
REMARK Flexibility Score: inf
ROOT
ATOM      1  C   UNL     1       6.857   0.760   0.987  1.00  0.00     0.080 C 
ENDROOT
BRANCH   1   2
ATOM      2  C   UNL     1       5.469   1.069   1.429  1.00  0.00     0.130 C 
ATOM      3  C   UNL     1       4.669   2.150   0.793  1.00  0.00     0.087 C 
ATOM      4  O   UNL     1       4.945   0.439   2.334  1.00  0.00    -0.300 OA
ENDBRANCH   1   2
BRANCH   1   5
ATOM      5  C   UNL     1       6.979   0.816  -0.523  1.00  0.00     0.043 C 
BRANCH   5   6
ATOM      6  C   UNL     1       7.510  -0.443  -1.076  1.00  0.00    -0.044 A 
ATOM      7  C   UNL     1       7.798  -0.582  -2.438  1.00  0.00     0.008 A 
ATOM      8  C   UNL     1       7.734  -1.513  -0.240  1.00  0.00     0.054 A 
ATOM      9  C   UNL     1       8.295  -1.787  -2.900  1.00  0.00     0.051 A 
ATOM     10  C   UNL     1       8.237  -2.730  -0.711  1.00  0.00     0.166 A 
ATOM     11  C   UNL     1       8.520  -2.867  -2.052  1.00  0.00     0.165 A 
ATOM     12  O   UNL     1       8.541  -3.924  -0.093  1.00  0.00    -0.454 OA
ATOM     13  O   UNL     1       8.997  -4.156  -2.231  1.00  0.00    -0.454 OA
ATOM     14  C   UNL     1       9.113  -4.831  -1.000  1.00  0.00     0.468 C 
ENDBRANCH   5   6
ENDBRANCH   1   5
TORSDOF 3
ENDMDL
