@<TRIPOS>MOLECULE
/home/cewinharhar/GITHUB/reincatalyze/data/processed/docking_pred/2023-May-25-1902_sub9_nm5_bs15_s42_ex16_mel10_mts10000_k50_ec01_g099_lra3e-4_lrc3e-3/a2439765960c5bc5c67b1c70d0a6c03b56a49d49_ligand_9.pdbqt
 14 15 0 0 0
SMALL
GASTEIGER

@<TRIPOS>ATOM
      1  C          6.3860    1.1640    0.9610 C.3     1  UNL1        0.0800
      2  C          5.6420    0.3450    1.9580 C.2     1  UNL1        0.1300
      3  C          6.2310   -0.8830    2.5550 C.3     1  UNL1        0.0870
      4  O          4.5190    0.6620    2.3160 O.2     1  UNL1       -0.3000
      5  C          5.8820    0.9100   -0.4460 C.3     1  UNL1        0.0430
      6  C          6.8230    0.0830   -1.2220 C.2     1  UNL1       -0.0440
      7  C          7.4900    0.5880   -2.3440 C.2     1  UNL1        0.0080
      8  C          7.0610   -1.2180   -0.8420 C.2     1  UNL1        0.0540
      9  C          8.3620   -0.2350   -3.0330 C.2     1  UNL1        0.0510
     10  C          7.9450   -2.0460   -1.5410 C.2     1  UNL1        0.1660
     11  C          8.6000   -1.5500   -2.6460 C.2     1  UNL1        0.1650
     12  O          8.3450   -3.3540   -1.3670 O.2     1  UNL1       -0.4540
     13  O          9.3980   -2.5740   -3.1320 O.2     1  UNL1       -0.4540
     14  C          9.3360   -3.7060   -2.2980 C.3     1  UNL1        0.4680
@<TRIPOS>BOND
     1    13    11    1
     2    13    14    1
     3     9    11    2
     4     9     7    1
     5    11    10    1
     6     7     6    2
     7    14    12    1
     8    10    12    1
     9    10     8    2
    10     6     8    1
    11     6     5    1
    12     5     1    1
    13     1     2    1
    14     2     4    2
    15     2     3    1
