@<TRIPOS>MOLECULE
/home/cewinharhar/GITHUB/reincatalyze/data/processed/docking_pred/2023-May-25-1902_sub9_nm5_bs15_s42_ex16_mel10_mts10000_k50_ec01_g099_lra3e-4_lrc3e-3/a2439765960c5bc5c67b1c70d0a6c03b56a49d49_ligand_9.pdbqt
 14 15 0 0 0
SMALL
GASTEIGER

@<TRIPOS>ATOM
      1  C          6.8570    0.7600    0.9870 C.3     1  UNL1        0.0800
      2  C          5.4690    1.0690    1.4290 C.2     1  UNL1        0.1300
      3  C          4.6690    2.1500    0.7930 C.3     1  UNL1        0.0870
      4  O          4.9450    0.4390    2.3340 O.2     1  UNL1       -0.3000
      5  C          6.9790    0.8160   -0.5230 C.3     1  UNL1        0.0430
      6  C          7.5100   -0.4430   -1.0760 C.2     1  UNL1       -0.0440
      7  C          7.7980   -0.5820   -2.4380 C.2     1  UNL1        0.0080
      8  C          7.7340   -1.5130   -0.2400 C.2     1  UNL1        0.0540
      9  C          8.2950   -1.7870   -2.9000 C.2     1  UNL1        0.0510
     10  C          8.2370   -2.7300   -0.7110 C.2     1  UNL1        0.1660
     11  C          8.5200   -2.8670   -2.0520 C.2     1  UNL1        0.1650
     12  O          8.5410   -3.9240   -0.0930 O.2     1  UNL1       -0.4540
     13  O          8.9970   -4.1560   -2.2310 O.2     1  UNL1       -0.4540
     14  C          9.1130   -4.8310   -1.0000 C.3     1  UNL1        0.4680
@<TRIPOS>BOND
     1     9     7    1
     2     9    11    2
     3     7     6    2
     4    13    11    1
     5    13    14    1
     6    11    10    1
     7     6     5    1
     8     6     8    1
     9    14    12    1
    10    10     8    2
    11    10    12    1
    12     5     1    1
    13     3     2    1
    14     1     2    1
    15     2     4    2
