@<TRIPOS>MOLECULE
/home/cewinharhar/GITHUB/reincatalyze/data/processed/docking_pred/2023-May-25-1902_sub9_nm5_bs15_s42_ex16_mel10_mts10000_k50_ec01_g099_lra3e-4_lrc3e-3/a450f47ca4f24610d4ad642e19216dd37a68a7e2_ligand_9.pdbqt
 14 15 0 0 0
SMALL
GASTEIGER

@<TRIPOS>ATOM
      1  C          5.5080    1.9110    1.2680 C.3     1  UNL1        0.0800
      2  C          5.0630    0.6920    2.0000 C.2     1  UNL1        0.1300
      3  C          5.9420   -0.5000    2.1400 C.3     1  UNL1        0.0870
      4  O          3.9550    0.6360    2.5100 O.2     1  UNL1       -0.3000
      5  C          5.3860    1.7270   -0.2310 C.3     1  UNL1        0.0430
      6  C          6.5560    1.0310   -0.7940 C.2     1  UNL1       -0.0440
      7  C          7.8610    1.4730   -0.5460 C.2     1  UNL1        0.0080
      8  C          6.3740   -0.0830   -1.5810 C.2     1  UNL1        0.0540
      9  C          8.9210    0.7790   -1.1000 C.2     1  UNL1        0.0510
     10  C          7.4490   -0.7820   -2.1380 C.2     1  UNL1        0.1660
     11  C          8.7330   -0.3470   -1.8960 C.2     1  UNL1        0.1650
     12  O          7.5290   -1.8990   -2.9430 O.2     1  UNL1       -0.4540
     13  O          9.5830   -1.2160   -2.5620 O.2     1  UNL1       -0.4540
     14  C          8.8660   -2.2670   -3.1640 C.3     1  UNL1        0.4680
@<TRIPOS>BOND
     1    14    12    1
     2    14    13    1
     3    12    10    1
     4    13    11    1
     5    10    11    2
     6    10     8    1
     7    11     9    1
     8     8     6    2
     9     9     7    2
    10     6     7    1
    11     6     5    1
    12     5     1    1
    13     1     2    1
    14     2     3    1
    15     2     4    2
