@<TRIPOS>MOLECULE
/home/cewinharhar/GITHUB/reincatalyze/data/processed/docking_pred/2023-May-25-1902_sub9_nm5_bs15_s42_ex16_mel10_mts10000_k50_ec01_g099_lra3e-4_lrc3e-3/a450f47ca4f24610d4ad642e19216dd37a68a7e2_ligand_9.pdbqt
 14 15 0 0 0
SMALL
GASTEIGER

@<TRIPOS>ATOM
      1  C          6.9490    1.1810    1.1740 C.3     1  UNL1        0.0800
      2  C          5.4720    1.2990    1.3290 C.2     1  UNL1        0.1300
      3  C          4.6570    2.1470    0.4190 C.3     1  UNL1        0.0870
      4  O          4.8850    0.6980    2.2150 O.2     1  UNL1       -0.3000
      5  C          7.3600    1.2870   -0.2810 C.3     1  UNL1        0.0430
      6  C          7.6910   -0.0310   -0.8520 C.2     1  UNL1       -0.0440
      7  C          7.7760   -0.2300   -2.2350 C.2     1  UNL1        0.0080
      8  C          7.9260   -1.0980   -0.0150 C.2     1  UNL1        0.0540
      9  C          8.0910   -1.4880   -2.7140 C.2     1  UNL1        0.0510
     10  C          8.2450   -2.3680   -0.5040 C.2     1  UNL1        0.1660
     11  C          8.3270   -2.5650   -1.8650 C.2     1  UNL1        0.1650
     12  O          8.5180   -3.5710    0.1120 O.2     1  UNL1       -0.4540
     13  O          8.6540   -3.8980   -2.0580 O.2     1  UNL1       -0.4540
     14  C          8.8730   -4.5510   -0.8300 C.3     1  UNL1        0.4680
@<TRIPOS>BOND
     1     9     7    1
     2     9    11    2
     3     7     6    2
     4    13    11    1
     5    13    14    1
     6    11    10    1
     7     6     5    1
     8     6     8    1
     9    14    12    1
    10    10     8    2
    11    10    12    1
    12     5     1    1
    13     3     2    1
    14     1     2    1
    15     2     4    2
