@<TRIPOS>MOLECULE
/home/cewinharhar/GITHUB/reincatalyze/data/processed/docking_pred/2023-May-25-1902_sub9_nm5_bs15_s42_ex16_mel10_mts10000_k50_ec01_g099_lra3e-4_lrc3e-3/a450f47ca4f24610d4ad642e19216dd37a68a7e2_ligand_9.pdbqt
 14 15 0 0 0
SMALL
GASTEIGER

@<TRIPOS>ATOM
      1  C          5.7510    1.2750   -0.3190 C.3     1  UNL1        0.0800
      2  C          5.1710    1.2340    1.0530 C.2     1  UNL1        0.1300
      3  C          5.4070    0.0830    1.9660 C.3     1  UNL1        0.0870
      4  O          4.4820    2.1500    1.4690 O.2     1  UNL1       -0.3000
      5  C          7.2550    1.0900   -0.2870 C.3     1  UNL1        0.0430
      6  C          7.6610   -0.1940   -0.8850 C.2     1  UNL1       -0.0440
      7  C          7.8240   -0.3400   -2.2670 C.2     1  UNL1        0.0080
      8  C          7.8900   -1.2830   -0.0740 C.2     1  UNL1        0.0540
      9  C          8.2070   -1.5690   -2.7720 C.2     1  UNL1        0.0510
     10  C          8.2780   -2.5230   -0.5890 C.2     1  UNL1        0.1660
     11  C          8.4380   -2.6680   -1.9490 C.2     1  UNL1        0.1650
     12  O          8.5610   -3.7380   -0.0010 O.2     1  UNL1       -0.4540
     13  O          8.8200   -3.9810   -2.1710 O.2     1  UNL1       -0.4540
     14  C          8.9990   -4.6700   -0.9560 C.3     1  UNL1        0.4680
@<TRIPOS>BOND
     1     9     7    1
     2     9    11    2
     3     7     6    2
     4    13    11    1
     5    13    14    1
     6    11    10    1
     7    14    12    1
     8     6     5    1
     9     6     8    1
    10    10     8    2
    11    10    12    1
    12     1     5    1
    13     1     2    1
    14     2     4    2
    15     2     3    1
