@<TRIPOS>MOLECULE
/home/cewinharhar/GITHUB/reincatalyze/data/processed/docking_pred/2023-May-25-1902_sub9_nm5_bs15_s42_ex16_mel10_mts10000_k50_ec01_g099_lra3e-4_lrc3e-3/a450f47ca4f24610d4ad642e19216dd37a68a7e2_ligand_9.pdbqt
 14 15 0 0 0
SMALL
GASTEIGER

@<TRIPOS>ATOM
      1  C          5.4600   -0.0290    1.9930 C.3     1  UNL1        0.0800
      2  C          4.5880    1.1510    1.7390 C.2     1  UNL1        0.1300
      3  C          4.8830    2.1210    0.6500 C.3     1  UNL1        0.0870
      4  O          3.5980    1.3580    2.4230 O.2     1  UNL1       -0.3000
      5  C          6.8830    0.2310    1.5420 C.3     1  UNL1        0.0430
      6  C          7.3010   -0.7060    0.4840 C.2     1  UNL1       -0.0440
      7  C          7.1720   -0.3860   -0.8730 C.2     1  UNL1        0.0080
      8  C          7.8340   -1.9280    0.8260 C.2     1  UNL1        0.0540
      9  C          7.5810   -1.3050   -1.8210 C.2     1  UNL1        0.0510
     10  C          8.2470   -2.8540   -0.1370 C.2     1  UNL1        0.1660
     11  C          8.1190   -2.5400   -1.4710 C.2     1  UNL1        0.1650
     12  O          8.7980   -4.1150   -0.0520 O.2     1  UNL1       -0.4540
     13  O          8.6010   -3.6250   -2.1860 O.2     1  UNL1       -0.4540
     14  C          9.1250   -4.6080   -1.3260 C.3     1  UNL1        0.4680
@<TRIPOS>BOND
     1    13    11    1
     2    13    14    1
     3     9    11    2
     4     9     7    1
     5    11    10    1
     6    14    12    1
     7     7     6    2
     8    10    12    1
     9    10     8    2
    10     6     8    1
    11     6     5    1
    12     3     2    1
    13     5     1    1
    14     2     1    1
    15     2     4    2
