MODEL 1
REMARK VINA RESULT:      -7.7      0.000      0.000
REMARK SMILES CC(=O)CCc1ccc2c(c1)OCO2
REMARK SMILES IDX 4 1 2 2 1 3 3 4 5 5 6 6 7 7 11 8 8 9 10 10 9 11 12 12 14 13
REMARK SMILES IDX 13 14
REMARK H PARENT
REMARK Flexibility Score: inf
ROOT
ATOM      1  C   UNL     1       5.508   1.911   1.268  1.00  0.00     0.080 C 
ENDROOT
BRANCH   1   2
ATOM      2  C   UNL     1       5.063   0.692   2.000  1.00  0.00     0.130 C 
ATOM      3  C   UNL     1       5.942  -0.500   2.140  1.00  0.00     0.087 C 
ATOM      4  O   UNL     1       3.955   0.636   2.510  1.00  0.00    -0.300 OA
ENDBRANCH   1   2
BRANCH   1   5
ATOM      5  C   UNL     1       5.386   1.727  -0.231  1.00  0.00     0.043 C 
BRANCH   5   6
ATOM      6  C   UNL     1       6.556   1.031  -0.794  1.00  0.00    -0.044 A 
ATOM      7  C   UNL     1       7.861   1.473  -0.546  1.00  0.00     0.008 A 
ATOM      8  C   UNL     1       6.374  -0.083  -1.581  1.00  0.00     0.054 A 
ATOM      9  C   UNL     1       8.921   0.779  -1.100  1.00  0.00     0.051 A 
ATOM     10  C   UNL     1       7.449  -0.782  -2.138  1.00  0.00     0.166 A 
ATOM     11  C   UNL     1       8.733  -0.347  -1.896  1.00  0.00     0.165 A 
ATOM     12  O   UNL     1       7.529  -1.899  -2.943  1.00  0.00    -0.454 OA
ATOM     13  O   UNL     1       9.583  -1.216  -2.562  1.00  0.00    -0.454 OA
ATOM     14  C   UNL     1       8.866  -2.267  -3.164  1.00  0.00     0.468 C 
ENDBRANCH   5   6
ENDBRANCH   1   5
TORSDOF 3
ENDMDL
MODEL 2
REMARK VINA RESULT:      -7.5      1.929      2.390
REMARK SMILES CC(=O)CCc1ccc2c(c1)OCO2
REMARK SMILES IDX 4 1 2 2 1 3 3 4 5 5 6 6 7 7 11 8 8 9 10 10 9 11 12 12 14 13
REMARK SMILES IDX 13 14
REMARK H PARENT
REMARK Flexibility Score: inf
ROOT
ATOM      1  C   UNL     1       5.751   1.275  -0.319  1.00  0.00     0.080 C 
ENDROOT
BRANCH   1   2
ATOM      2  C   UNL     1       5.171   1.234   1.053  1.00  0.00     0.130 C 
ATOM      3  C   UNL     1       5.407   0.083   1.966  1.00  0.00     0.087 C 
ATOM      4  O   UNL     1       4.482   2.150   1.469  1.00  0.00    -0.300 OA
ENDBRANCH   1   2
BRANCH   1   5
ATOM      5  C   UNL     1       7.255   1.090  -0.287  1.00  0.00     0.043 C 
BRANCH   5   6
ATOM      6  C   UNL     1       7.661  -0.194  -0.885  1.00  0.00    -0.044 A 
ATOM      7  C   UNL     1       7.824  -0.340  -2.267  1.00  0.00     0.008 A 
ATOM      8  C   UNL     1       7.890  -1.283  -0.074  1.00  0.00     0.054 A 
ATOM      9  C   UNL     1       8.207  -1.569  -2.772  1.00  0.00     0.051 A 
ATOM     10  C   UNL     1       8.278  -2.523  -0.589  1.00  0.00     0.166 A 
ATOM     11  C   UNL     1       8.438  -2.668  -1.949  1.00  0.00     0.165 A 
ATOM     12  O   UNL     1       8.561  -3.738  -0.001  1.00  0.00    -0.454 OA
ATOM     13  O   UNL     1       8.820  -3.981  -2.171  1.00  0.00    -0.454 OA
ATOM     14  C   UNL     1       8.999  -4.670  -0.956  1.00  0.00     0.468 C 
ENDBRANCH   5   6
ENDBRANCH   1   5
TORSDOF 3
ENDMDL
MODEL 3
REMARK VINA RESULT:      -7.2      2.049      2.612
REMARK SMILES CC(=O)CCc1ccc2c(c1)OCO2
REMARK SMILES IDX 4 1 2 2 1 3 3 4 5 5 6 6 7 7 11 8 8 9 10 10 9 11 12 12 14 13
REMARK SMILES IDX 13 14
REMARK H PARENT
REMARK Flexibility Score: inf
ROOT
ATOM      1  C   UNL     1       5.460  -0.029   1.993  1.00  0.00     0.080 C 
ENDROOT
BRANCH   1   2
ATOM      2  C   UNL     1       4.588   1.151   1.739  1.00  0.00     0.130 C 
ATOM      3  C   UNL     1       4.883   2.121   0.650  1.00  0.00     0.087 C 
ATOM      4  O   UNL     1       3.598   1.358   2.423  1.00  0.00    -0.300 OA
ENDBRANCH   1   2
BRANCH   1   5
ATOM      5  C   UNL     1       6.883   0.231   1.542  1.00  0.00     0.043 C 
BRANCH   5   6
ATOM      6  C   UNL     1       7.301  -0.706   0.484  1.00  0.00    -0.044 A 
ATOM      7  C   UNL     1       7.172  -0.386  -0.873  1.00  0.00     0.008 A 
ATOM      8  C   UNL     1       7.834  -1.928   0.826  1.00  0.00     0.054 A 
ATOM      9  C   UNL     1       7.581  -1.305  -1.821  1.00  0.00     0.051 A 
ATOM     10  C   UNL     1       8.247  -2.854  -0.137  1.00  0.00     0.166 A 
ATOM     11  C   UNL     1       8.119  -2.540  -1.471  1.00  0.00     0.165 A 
ATOM     12  O   UNL     1       8.798  -4.115  -0.052  1.00  0.00    -0.454 OA
ATOM     13  O   UNL     1       8.601  -3.625  -2.186  1.00  0.00    -0.454 OA
ATOM     14  C   UNL     1       9.125  -4.608  -1.326  1.00  0.00     0.468 C 
ENDBRANCH   5   6
ENDBRANCH   1   5
TORSDOF 3
ENDMDL
MODEL 4
REMARK VINA RESULT:      -7.1      1.256      1.466
REMARK SMILES CC(=O)CCc1ccc2c(c1)OCO2
REMARK SMILES IDX 4 1 2 2 1 3 3 4 5 5 6 6 7 7 11 8 8 9 10 10 9 11 12 12 14 13
REMARK SMILES IDX 13 14
REMARK H PARENT
REMARK Flexibility Score: inf
ROOT
ATOM      1  C   UNL     1       6.380   1.204   0.943  1.00  0.00     0.080 C 
ENDROOT
BRANCH   1   2
ATOM      2  C   UNL     1       5.651   0.373   1.941  1.00  0.00     0.130 C 
ATOM      3  C   UNL     1       6.255  -0.854   2.525  1.00  0.00     0.087 C 
ATOM      4  O   UNL     1       4.529   0.677   2.310  1.00  0.00    -0.300 OA
ENDBRANCH   1   2
BRANCH   1   5
ATOM      5  C   UNL     1       5.878   0.943  -0.463  1.00  0.00     0.043 C 
BRANCH   5   6
ATOM      6  C   UNL     1       6.821   0.115  -1.236  1.00  0.00    -0.044 A 
ATOM      7  C   UNL     1       7.503   0.623  -2.347  1.00  0.00     0.008 A 
ATOM      8  C   UNL     1       7.046  -1.191  -0.862  1.00  0.00     0.054 A 
ATOM      9  C   UNL     1       8.376  -0.201  -3.033  1.00  0.00     0.051 A 
ATOM     10  C   UNL     1       7.931  -2.020  -1.559  1.00  0.00     0.166 A 
ATOM     11  C   UNL     1       8.601  -1.520  -2.653  1.00  0.00     0.165 A 
ATOM     12  O   UNL     1       8.320  -3.331  -1.390  1.00  0.00    -0.454 OA
ATOM     13  O   UNL     1       9.397  -2.546  -3.138  1.00  0.00    -0.454 OA
ATOM     14  C   UNL     1       9.319  -3.684  -2.313  1.00  0.00     0.468 C 
ENDBRANCH   5   6
ENDBRANCH   1   5
TORSDOF 3
ENDMDL
MODEL 5
REMARK VINA RESULT:      -7.0      1.923      2.475
REMARK SMILES CC(=O)CCc1ccc2c(c1)OCO2
REMARK SMILES IDX 4 1 2 2 1 3 3 4 5 5 6 6 7 7 11 8 8 9 10 10 9 11 12 12 14 13
REMARK SMILES IDX 13 14
REMARK H PARENT
REMARK Flexibility Score: inf
ROOT
ATOM      1  C   UNL     1       6.949   1.181   1.174  1.00  0.00     0.080 C 
ENDROOT
BRANCH   1   2
ATOM      2  C   UNL     1       5.472   1.299   1.329  1.00  0.00     0.130 C 
ATOM      3  C   UNL     1       4.657   2.147   0.419  1.00  0.00     0.087 C 
ATOM      4  O   UNL     1       4.885   0.698   2.215  1.00  0.00    -0.300 OA
ENDBRANCH   1   2
BRANCH   1   5
ATOM      5  C   UNL     1       7.360   1.287  -0.281  1.00  0.00     0.043 C 
BRANCH   5   6
ATOM      6  C   UNL     1       7.691  -0.031  -0.852  1.00  0.00    -0.044 A 
ATOM      7  C   UNL     1       7.776  -0.230  -2.235  1.00  0.00     0.008 A 
ATOM      8  C   UNL     1       7.926  -1.098  -0.015  1.00  0.00     0.054 A 
ATOM      9  C   UNL     1       8.091  -1.488  -2.714  1.00  0.00     0.051 A 
ATOM     10  C   UNL     1       8.245  -2.368  -0.504  1.00  0.00     0.166 A 
ATOM     11  C   UNL     1       8.327  -2.565  -1.865  1.00  0.00     0.165 A 
ATOM     12  O   UNL     1       8.518  -3.571   0.112  1.00  0.00    -0.454 OA
ATOM     13  O   UNL     1       8.654  -3.898  -2.058  1.00  0.00    -0.454 OA
ATOM     14  C   UNL     1       8.873  -4.551  -0.830  1.00  0.00     0.468 C 
ENDBRANCH   5   6
ENDBRANCH   1   5
TORSDOF 3
ENDMDL
