@<TRIPOS>MOLECULE
/home/cewinharhar/GITHUB/reincatalyze/data/processed/docking_pred/2023-May-25-1902_sub9_nm5_bs15_s42_ex16_mel10_mts10000_k50_ec01_g099_lra3e-4_lrc3e-3/a5b16c92fd7591d551db5a31bdb9c28d24e6a5b8_ligand_9.pdbqt
 14 15 0 0 0
SMALL
GASTEIGER

@<TRIPOS>ATOM
      1  C          8.3230    0.2020   -2.6290 C.3     1  UNL1        0.0800
      2  C          8.0490   -1.2580   -2.7390 C.2     1  UNL1        0.1300
      3  C          9.1300   -2.2360   -3.0340 C.3     1  UNL1        0.0870
      4  O          6.9190   -1.6960   -2.5900 O.2     1  UNL1       -0.3000
      5  C          8.8370    0.5630   -1.2490 C.3     1  UNL1        0.0430
      6  C          7.7910    0.4170   -0.2220 C.2     1  UNL1       -0.0440
      7  C          7.8730   -0.5640    0.7730 C.2     1  UNL1        0.0080
      8  C          6.7050    1.2620   -0.2290 C.2     1  UNL1        0.0540
      9  C          6.8610   -0.6530    1.7130 C.2     1  UNL1        0.0510
     10  C          5.6850    1.1690    0.7230 C.2     1  UNL1        0.1660
     11  C          5.7640    0.2030    1.7020 C.2     1  UNL1        0.1650
     12  O          4.5210    1.8780    0.9260 O.2     1  UNL1       -0.4540
     13  O          4.6350    0.3420    2.4940 O.2     1  UNL1       -0.4540
     14  C          3.8660    1.4500    2.0920 C.3     1  UNL1        0.4680
@<TRIPOS>BOND
     1     3     2    1
     2     2     1    1
     3     2     4    2
     4     1     5    1
     5     5     6    1
     6     8     6    2
     7     8    10    1
     8     6     7    1
     9    10    12    1
    10    10    11    2
    11     7     9    2
    12    12    14    1
    13    11     9    1
    14    11    13    1
    15    14    13    1
