MODEL 1
REMARK VINA RESULT:      -7.7      0.000      0.000
REMARK SMILES CC(=O)CCc1ccc2c(c1)OCO2
REMARK SMILES IDX 4 1 2 2 1 3 3 4 5 5 6 6 7 7 11 8 8 9 10 10 9 11 12 12 14 13
REMARK SMILES IDX 13 14
REMARK H PARENT
REMARK Flexibility Score: inf
ROOT
ATOM      1  C   UNL     1       5.530   1.926   1.273  1.00  0.00     0.080 C 
ENDROOT
BRANCH   1   2
ATOM      2  C   UNL     1       5.113   0.705   2.018  1.00  0.00     0.130 C 
ATOM      3  C   UNL     1       6.031  -0.452   2.198  1.00  0.00     0.087 C 
ATOM      4  O   UNL     1       3.997   0.619   2.505  1.00  0.00    -0.300 OA
ENDBRANCH   1   2
BRANCH   1   5
ATOM      5  C   UNL     1       5.399   1.728  -0.224  1.00  0.00     0.043 C 
BRANCH   5   6
ATOM      6  C   UNL     1       6.567   1.028  -0.787  1.00  0.00    -0.044 A 
ATOM      7  C   UNL     1       7.874   1.456  -0.528  1.00  0.00     0.008 A 
ATOM      8  C   UNL     1       6.380  -0.077  -1.587  1.00  0.00     0.054 A 
ATOM      9  C   UNL     1       8.931   0.759  -1.083  1.00  0.00     0.051 A 
ATOM     10  C   UNL     1       7.452  -0.779  -2.146  1.00  0.00     0.166 A 
ATOM     11  C   UNL     1       8.738  -0.357  -1.892  1.00  0.00     0.165 A 
ATOM     12  O   UNL     1       7.527  -1.888  -2.961  1.00  0.00    -0.454 OA
ATOM     13  O   UNL     1       9.585  -1.226  -2.563  1.00  0.00    -0.454 OA
ATOM     14  C   UNL     1       8.862  -2.265  -3.179  1.00  0.00     0.468 C 
ENDBRANCH   5   6
ENDBRANCH   1   5
TORSDOF 3
ENDMDL
MODEL 2
REMARK VINA RESULT:      -7.2      1.264      1.495
REMARK SMILES CC(=O)CCc1ccc2c(c1)OCO2
REMARK SMILES IDX 4 1 2 2 1 3 3 4 5 5 6 6 7 7 11 8 8 9 10 10 9 11 12 12 14 13
REMARK SMILES IDX 13 14
REMARK H PARENT
REMARK Flexibility Score: inf
ROOT
ATOM      1  C   UNL     1       6.401   1.182   0.910  1.00  0.00     0.080 C 
ENDROOT
BRANCH   1   2
ATOM      2  C   UNL     1       5.680   0.365   1.926  1.00  0.00     0.130 C 
ATOM      3  C   UNL     1       6.277  -0.871   2.500  1.00  0.00     0.087 C 
ATOM      4  O   UNL     1       4.571   0.688   2.319  1.00  0.00    -0.300 OA
ENDBRANCH   1   2
BRANCH   1   5
ATOM      5  C   UNL     1       5.891   0.896  -0.488  1.00  0.00     0.043 C 
BRANCH   5   6
ATOM      6  C   UNL     1       6.839   0.069  -1.257  1.00  0.00    -0.044 A 
ATOM      7  C   UNL     1       7.533   0.583  -2.358  1.00  0.00     0.008 A 
ATOM      8  C   UNL     1       7.057  -1.239  -0.889  1.00  0.00     0.054 A 
ATOM      9  C   UNL     1       8.411  -0.240  -3.041  1.00  0.00     0.051 A 
ATOM     10  C   UNL     1       7.946  -2.066  -1.582  1.00  0.00     0.166 A 
ATOM     11  C   UNL     1       8.628  -1.563  -2.667  1.00  0.00     0.165 A 
ATOM     12  O   UNL     1       8.329  -3.381  -1.418  1.00  0.00    -0.454 OA
ATOM     13  O   UNL     1       9.426  -2.588  -3.151  1.00  0.00    -0.454 OA
ATOM     14  C   UNL     1       9.335  -3.731  -2.333  1.00  0.00     0.468 C 
ENDBRANCH   5   6
ENDBRANCH   1   5
TORSDOF 3
ENDMDL
MODEL 3
REMARK VINA RESULT:      -7.0      1.614      1.984
REMARK SMILES CC(=O)CCc1ccc2c(c1)OCO2
REMARK SMILES IDX 4 1 2 2 1 3 3 4 5 5 6 6 7 7 11 8 8 9 10 10 9 11 12 12 14 13
REMARK SMILES IDX 13 14
REMARK H PARENT
REMARK Flexibility Score: inf
ROOT
ATOM      1  C   UNL     1       5.504   1.707   0.087  1.00  0.00     0.080 C 
ENDROOT
BRANCH   1   2
ATOM      2  C   UNL     1       4.881   1.251   1.360  1.00  0.00     0.130 C 
ATOM      3  C   UNL     1       5.391   0.065   2.099  1.00  0.00     0.087 C 
ATOM      4  O   UNL     1       3.925   1.842   1.837  1.00  0.00    -0.300 OA
ENDBRANCH   1   2
BRANCH   1   5
ATOM      5  C   UNL     1       6.997   1.442   0.079  1.00  0.00     0.043 C 
BRANCH   5   6
ATOM      6  C   UNL     1       7.336   0.245  -0.710  1.00  0.00    -0.044 A 
ATOM      7  C   UNL     1       7.238   0.235  -2.106  1.00  0.00     0.008 A 
ATOM      8  C   UNL     1       7.761  -0.897  -0.069  1.00  0.00     0.054 A 
ATOM      9  C   UNL     1       7.571  -0.918  -2.794  1.00  0.00     0.051 A 
ATOM     10  C   UNL     1       8.096  -2.060  -0.769  1.00  0.00     0.166 A 
ATOM     11  C   UNL     1       8.000  -2.071  -2.142  1.00  0.00     0.165 A 
ATOM     12  O   UNL     1       8.537  -3.303  -0.368  1.00  0.00    -0.454 OA
ATOM     13  O   UNL     1       8.389  -3.333  -2.561  1.00  0.00    -0.454 OA
ATOM     14  C   UNL     1       8.824  -4.117  -1.476  1.00  0.00     0.468 C 
ENDBRANCH   5   6
ENDBRANCH   1   5
TORSDOF 3
ENDMDL
MODEL 4
REMARK VINA RESULT:      -6.9      1.726      2.278
REMARK SMILES CC(=O)CCc1ccc2c(c1)OCO2
REMARK SMILES IDX 4 1 2 2 1 3 3 4 5 5 6 6 7 7 11 8 8 9 10 10 9 11 12 12 14 13
REMARK SMILES IDX 13 14
REMARK H PARENT
REMARK Flexibility Score: inf
ROOT
ATOM      1  C   UNL     1       5.686   0.154   2.126  1.00  0.00     0.080 C 
ENDROOT
BRANCH   1   2
ATOM      2  C   UNL     1       4.608   1.140   1.836  1.00  0.00     0.130 C 
ATOM      3  C   UNL     1       4.743   2.149   0.752  1.00  0.00     0.087 C 
ATOM      4  O   UNL     1       3.574   1.147   2.485  1.00  0.00    -0.300 OA
ENDBRANCH   1   2
BRANCH   1   5
ATOM      5  C   UNL     1       6.986   0.547   1.453  1.00  0.00     0.043 C 
BRANCH   5   6
ATOM      6  C   UNL     1       7.292  -0.324   0.304  1.00  0.00    -0.044 A 
ATOM      7  C   UNL     1       7.073   0.096  -1.013  1.00  0.00     0.008 A 
ATOM      8  C   UNL     1       7.807  -1.582   0.519  1.00  0.00     0.054 A 
ATOM      9  C   UNL     1       7.379  -0.765  -2.052  1.00  0.00     0.051 A 
ATOM     10  C   UNL     1       8.116  -2.448  -0.534  1.00  0.00     0.166 A 
ATOM     11  C   UNL     1       7.900  -2.036  -1.830  1.00  0.00     0.165 A 
ATOM     12  O   UNL     1       8.629  -3.727  -0.580  1.00  0.00    -0.454 OA
ATOM     13  O   UNL     1       8.290  -3.081  -2.653  1.00  0.00    -0.454 OA
ATOM     14  C   UNL     1       8.843  -4.137  -1.906  1.00  0.00     0.468 C 
ENDBRANCH   5   6
ENDBRANCH   1   5
TORSDOF 3
ENDMDL
MODEL 5
REMARK VINA RESULT:      -6.8      1.180      5.181
REMARK SMILES CC(=O)CCc1ccc2c(c1)OCO2
REMARK SMILES IDX 4 1 2 2 1 3 3 4 5 5 6 6 7 7 11 8 8 9 10 10 9 11 12 12 14 13
REMARK SMILES IDX 13 14
REMARK H PARENT
REMARK Flexibility Score: inf
ROOT
ATOM      1  C   UNL     1       8.323   0.202  -2.629  1.00  0.00     0.080 C 
ENDROOT
BRANCH   1   2
ATOM      2  C   UNL     1       8.049  -1.258  -2.739  1.00  0.00     0.130 C 
ATOM      3  C   UNL     1       9.130  -2.236  -3.034  1.00  0.00     0.087 C 
ATOM      4  O   UNL     1       6.919  -1.696  -2.590  1.00  0.00    -0.300 OA
ENDBRANCH   1   2
BRANCH   1   5
ATOM      5  C   UNL     1       8.837   0.563  -1.249  1.00  0.00     0.043 C 
BRANCH   5   6
ATOM      6  C   UNL     1       7.791   0.417  -0.222  1.00  0.00    -0.044 A 
ATOM      7  C   UNL     1       7.873  -0.564   0.773  1.00  0.00     0.008 A 
ATOM      8  C   UNL     1       6.705   1.262  -0.229  1.00  0.00     0.054 A 
ATOM      9  C   UNL     1       6.861  -0.653   1.713  1.00  0.00     0.051 A 
ATOM     10  C   UNL     1       5.685   1.169   0.723  1.00  0.00     0.166 A 
ATOM     11  C   UNL     1       5.764   0.203   1.702  1.00  0.00     0.165 A 
ATOM     12  O   UNL     1       4.521   1.878   0.926  1.00  0.00    -0.454 OA
ATOM     13  O   UNL     1       4.635   0.342   2.494  1.00  0.00    -0.454 OA
ATOM     14  C   UNL     1       3.866   1.450   2.092  1.00  0.00     0.468 C 
ENDBRANCH   5   6
ENDBRANCH   1   5
TORSDOF 3
ENDMDL
