@<TRIPOS>MOLECULE
/home/cewinharhar/GITHUB/reincatalyze/data/processed/docking_pred/2023-May-25-1902_sub9_nm5_bs15_s42_ex16_mel10_mts10000_k50_ec01_g099_lra3e-4_lrc3e-3/a5b16c92fd7591d551db5a31bdb9c28d24e6a5b8_ligand_9.pdbqt
 14 15 0 0 0
SMALL
GASTEIGER

@<TRIPOS>ATOM
      1  C          5.6860    0.1540    2.1260 C.3     1  UNL1        0.0800
      2  C          4.6080    1.1400    1.8360 C.2     1  UNL1        0.1300
      3  C          4.7430    2.1490    0.7520 C.3     1  UNL1        0.0870
      4  O          3.5740    1.1470    2.4850 O.2     1  UNL1       -0.3000
      5  C          6.9860    0.5470    1.4530 C.3     1  UNL1        0.0430
      6  C          7.2920   -0.3240    0.3040 C.2     1  UNL1       -0.0440
      7  C          7.0730    0.0960   -1.0130 C.2     1  UNL1        0.0080
      8  C          7.8070   -1.5820    0.5190 C.2     1  UNL1        0.0540
      9  C          7.3790   -0.7650   -2.0520 C.2     1  UNL1        0.0510
     10  C          8.1160   -2.4480   -0.5340 C.2     1  UNL1        0.1660
     11  C          7.9000   -2.0360   -1.8300 C.2     1  UNL1        0.1650
     12  O          8.6290   -3.7270   -0.5800 O.2     1  UNL1       -0.4540
     13  O          8.2900   -3.0810   -2.6530 O.2     1  UNL1       -0.4540
     14  C          8.8430   -4.1370   -1.9060 C.3     1  UNL1        0.4680
@<TRIPOS>BOND
     1    13    14    1
     2    13    11    1
     3     9    11    2
     4     9     7    1
     5    14    12    1
     6    11    10    1
     7     7     6    2
     8    12    10    1
     9    10     8    2
    10     6     8    1
    11     6     5    1
    12     3     2    1
    13     5     1    1
    14     2     1    1
    15     2     4    2
