MODEL 1
REMARK VINA RESULT:      -7.7      0.000      0.000
REMARK SMILES CC(=O)CCc1ccc2c(c1)OCO2
REMARK SMILES IDX 4 1 2 2 1 3 3 4 5 5 6 6 7 7 11 8 8 9 10 10 9 11 12 12 14 13
REMARK SMILES IDX 13 14
REMARK H PARENT
REMARK Flexibility Score: inf
ROOT
ATOM      1  C   UNL     1       5.505   1.912   1.268  1.00  0.00     0.080 C 
ENDROOT
BRANCH   1   2
ATOM      2  C   UNL     1       5.033   0.701   1.998  1.00  0.00     0.130 C 
ATOM      3  C   UNL     1       5.880  -0.515   2.122  1.00  0.00     0.087 C 
ATOM      4  O   UNL     1       3.930   0.673   2.518  1.00  0.00    -0.300 OA
ENDBRANCH   1   2
BRANCH   1   5
ATOM      5  C   UNL     1       5.386   1.731  -0.232  1.00  0.00     0.043 C 
BRANCH   5   6
ATOM      6  C   UNL     1       6.556   1.032  -0.793  1.00  0.00    -0.044 A 
ATOM      7  C   UNL     1       7.861   1.469  -0.540  1.00  0.00     0.008 A 
ATOM      8  C   UNL     1       6.372  -0.080  -1.583  1.00  0.00     0.054 A 
ATOM      9  C   UNL     1       8.921   0.772  -1.093  1.00  0.00     0.051 A 
ATOM     10  C   UNL     1       7.446  -0.781  -2.138  1.00  0.00     0.166 A 
ATOM     11  C   UNL     1       8.731  -0.351  -1.892  1.00  0.00     0.165 A 
ATOM     12  O   UNL     1       7.524  -1.896  -2.945  1.00  0.00    -0.454 OA
ATOM     13  O   UNL     1       9.580  -1.221  -2.558  1.00  0.00    -0.454 OA
ATOM     14  C   UNL     1       8.861  -2.269  -3.163  1.00  0.00     0.468 C 
ENDBRANCH   5   6
ENDBRANCH   1   5
TORSDOF 3
ENDMDL
MODEL 2
REMARK VINA RESULT:      -7.5      1.924      2.381
REMARK SMILES CC(=O)CCc1ccc2c(c1)OCO2
REMARK SMILES IDX 4 1 2 2 1 3 3 4 5 5 6 6 7 7 11 8 8 9 10 10 9 11 12 12 14 13
REMARK SMILES IDX 13 14
REMARK H PARENT
REMARK Flexibility Score: inf
ROOT
ATOM      1  C   UNL     1       5.741   1.362  -0.266  1.00  0.00     0.080 C 
ENDROOT
BRANCH   1   2
ATOM      2  C   UNL     1       5.116   1.265   1.083  1.00  0.00     0.130 C 
ATOM      3  C   UNL     1       5.360   0.098   1.974  1.00  0.00     0.087 C 
ATOM      4  O   UNL     1       4.382   2.146   1.499  1.00  0.00    -0.300 OA
ENDBRANCH   1   2
BRANCH   1   5
ATOM      5  C   UNL     1       7.234   1.110  -0.201  1.00  0.00     0.043 C 
BRANCH   5   6
ATOM      6  C   UNL     1       7.598  -0.177  -0.821  1.00  0.00    -0.044 A 
ATOM      7  C   UNL     1       7.636  -0.336  -2.211  1.00  0.00     0.008 A 
ATOM      8  C   UNL     1       7.912  -1.253  -0.023  1.00  0.00     0.054 A 
ATOM      9  C   UNL     1       7.986  -1.566  -2.736  1.00  0.00     0.051 A 
ATOM     10  C   UNL     1       8.266  -2.495  -0.559  1.00  0.00     0.166 A 
ATOM     11  C   UNL     1       8.302  -2.653  -1.927  1.00  0.00     0.165 A 
ATOM     12  O   UNL     1       8.615  -3.701   0.013  1.00  0.00    -0.454 OA
ATOM     13  O   UNL     1       8.678  -3.965  -2.169  1.00  0.00    -0.454 OA
ATOM     14  C   UNL     1       8.974  -4.639  -0.969  1.00  0.00     0.468 C 
ENDBRANCH   5   6
ENDBRANCH   1   5
TORSDOF 3
ENDMDL
MODEL 3
REMARK VINA RESULT:      -7.2      2.054      2.633
REMARK SMILES CC(=O)CCc1ccc2c(c1)OCO2
REMARK SMILES IDX 4 1 2 2 1 3 3 4 5 5 6 6 7 7 11 8 8 9 10 10 9 11 12 12 14 13
REMARK SMILES IDX 13 14
REMARK H PARENT
REMARK Flexibility Score: inf
ROOT
ATOM      1  C   UNL     1       5.387  -0.088   2.010  1.00  0.00     0.080 C 
ENDROOT
BRANCH   1   2
ATOM      2  C   UNL     1       4.571   1.136   1.775  1.00  0.00     0.130 C 
ATOM      3  C   UNL     1       4.932   2.124   0.723  1.00  0.00     0.087 C 
ATOM      4  O   UNL     1       3.577   1.365   2.444  1.00  0.00    -0.300 OA
ENDBRANCH   1   2
BRANCH   1   5
ATOM      5  C   UNL     1       6.839   0.138   1.637  1.00  0.00     0.043 C 
BRANCH   5   6
ATOM      6  C   UNL     1       7.273  -0.769   0.560  1.00  0.00    -0.044 A 
ATOM      7  C   UNL     1       7.152  -0.417  -0.789  1.00  0.00     0.008 A 
ATOM      8  C   UNL     1       7.816  -1.994   0.877  1.00  0.00     0.054 A 
ATOM      9  C   UNL     1       7.578  -1.308  -1.756  1.00  0.00     0.051 A 
ATOM     10  C   UNL     1       8.246  -2.892  -0.105  1.00  0.00     0.166 A 
ATOM     11  C   UNL     1       8.125  -2.546  -1.433  1.00  0.00     0.165 A 
ATOM     12  O   UNL     1       8.808  -4.149  -0.048  1.00  0.00    -0.454 OA
ATOM     13  O   UNL     1       8.623  -3.608  -2.170  1.00  0.00    -0.454 OA
ATOM     14  C   UNL     1       9.150  -4.608  -1.330  1.00  0.00     0.468 C 
ENDBRANCH   5   6
ENDBRANCH   1   5
TORSDOF 3
ENDMDL
MODEL 4
REMARK VINA RESULT:      -7.1      1.263      1.478
REMARK SMILES CC(=O)CCc1ccc2c(c1)OCO2
REMARK SMILES IDX 4 1 2 2 1 3 3 4 5 5 6 6 7 7 11 8 8 9 10 10 9 11 12 12 14 13
REMARK SMILES IDX 13 14
REMARK H PARENT
REMARK Flexibility Score: inf
ROOT
ATOM      1  C   UNL     1       6.384   1.203   0.948  1.00  0.00     0.080 C 
ENDROOT
BRANCH   1   2
ATOM      2  C   UNL     1       5.661   0.377   1.955  1.00  0.00     0.130 C 
ATOM      3  C   UNL     1       6.267  -0.849   2.541  1.00  0.00     0.087 C 
ATOM      4  O   UNL     1       4.542   0.686   2.331  1.00  0.00    -0.300 OA
ENDBRANCH   1   2
BRANCH   1   5
ATOM      5  C   UNL     1       5.869   0.938  -0.453  1.00  0.00     0.043 C 
BRANCH   5   6
ATOM      6  C   UNL     1       6.806   0.110  -1.232  1.00  0.00    -0.044 A 
ATOM      7  C   UNL     1       7.471   0.615  -2.355  1.00  0.00     0.008 A 
ATOM      8  C   UNL     1       7.042  -1.192  -0.854  1.00  0.00     0.054 A 
ATOM      9  C   UNL     1       8.340  -0.209  -3.047  1.00  0.00     0.051 A 
ATOM     10  C   UNL     1       7.922  -2.021  -1.557  1.00  0.00     0.166 A 
ATOM     11  C   UNL     1       8.576  -1.525  -2.663  1.00  0.00     0.165 A 
ATOM     12  O   UNL     1       8.320  -3.330  -1.385  1.00  0.00    -0.454 OA
ATOM     13  O   UNL     1       9.371  -2.551  -3.151  1.00  0.00    -0.454 OA
ATOM     14  C   UNL     1       9.307  -3.684  -2.319  1.00  0.00     0.468 C 
ENDBRANCH   5   6
ENDBRANCH   1   5
TORSDOF 3
ENDMDL
MODEL 5
REMARK VINA RESULT:      -7.0      2.011      2.591
REMARK SMILES CC(=O)CCc1ccc2c(c1)OCO2
REMARK SMILES IDX 4 1 2 2 1 3 3 4 5 5 6 6 7 7 11 8 8 9 10 10 9 11 12 12 14 13
REMARK SMILES IDX 13 14
REMARK H PARENT
REMARK Flexibility Score: inf
ROOT
ATOM      1  C   UNL     1       6.711   0.522   1.356  1.00  0.00     0.080 C 
ENDROOT
BRANCH   1   2
ATOM      2  C   UNL     1       5.337   1.060   1.563  1.00  0.00     0.130 C 
ATOM      3  C   UNL     1       4.789   2.150   0.712  1.00  0.00     0.087 C 
ATOM      4  O   UNL     1       4.618   0.619   2.444  1.00  0.00    -0.300 OA
ENDBRANCH   1   2
BRANCH   1   5
ATOM      5  C   UNL     1       7.196   0.779  -0.057  1.00  0.00     0.043 C 
BRANCH   5   6
ATOM      6  C   UNL     1       7.624  -0.465  -0.722  1.00  0.00    -0.044 A 
ATOM      7  C   UNL     1       7.761  -0.543  -2.113  1.00  0.00     0.008 A 
ATOM      8  C   UNL     1       7.901  -1.582   0.033  1.00  0.00     0.054 A 
ATOM      9  C   UNL     1       8.167  -1.736  -2.681  1.00  0.00     0.051 A 
ATOM     10  C   UNL     1       8.312  -2.786  -0.547  1.00  0.00     0.166 A 
ATOM     11  C   UNL     1       8.446  -2.863  -1.915  1.00  0.00     0.165 A 
ATOM     12  O   UNL     1       8.642  -4.017  -0.021  1.00  0.00    -0.454 OA
ATOM     13  O   UNL     1       8.860  -4.154  -2.205  1.00  0.00    -0.454 OA
ATOM     14  C   UNL     1       9.084  -4.892  -1.027  1.00  0.00     0.468 C 
ENDBRANCH   5   6
ENDBRANCH   1   5
TORSDOF 3
ENDMDL
