@<TRIPOS>MOLECULE
/home/cewinharhar/GITHUB/reincatalyze/data/processed/docking_pred/2023-May-25-1902_sub9_nm5_bs15_s42_ex16_mel10_mts10000_k50_ec01_g099_lra3e-4_lrc3e-3/a6201df4fd59712db5137144eee8a96fed35f0a9_ligand_9.pdbqt
 14 15 0 0 0
SMALL
GASTEIGER

@<TRIPOS>ATOM
      1  C          6.7110    0.5220    1.3560 C.3     1  UNL1        0.0800
      2  C          5.3370    1.0600    1.5630 C.2     1  UNL1        0.1300
      3  C          4.7890    2.1500    0.7120 C.3     1  UNL1        0.0870
      4  O          4.6180    0.6190    2.4440 O.2     1  UNL1       -0.3000
      5  C          7.1960    0.7790   -0.0570 C.3     1  UNL1        0.0430
      6  C          7.6240   -0.4650   -0.7220 C.2     1  UNL1       -0.0440
      7  C          7.7610   -0.5430   -2.1130 C.2     1  UNL1        0.0080
      8  C          7.9010   -1.5820    0.0330 C.2     1  UNL1        0.0540
      9  C          8.1670   -1.7360   -2.6810 C.2     1  UNL1        0.0510
     10  C          8.3120   -2.7860   -0.5470 C.2     1  UNL1        0.1660
     11  C          8.4460   -2.8630   -1.9150 C.2     1  UNL1        0.1650
     12  O          8.6420   -4.0170   -0.0210 O.2     1  UNL1       -0.4540
     13  O          8.8600   -4.1540   -2.2050 O.2     1  UNL1       -0.4540
     14  C          9.0840   -4.8920   -1.0270 C.3     1  UNL1        0.4680
@<TRIPOS>BOND
     1     9     7    1
     2     9    11    2
     3    13    11    1
     4    13    14    1
     5     7     6    2
     6    11    10    1
     7    14    12    1
     8     6     5    1
     9     6     8    1
    10    10    12    1
    11    10     8    2
    12     5     1    1
    13     3     2    1
    14     1     2    1
    15     2     4    2
