@<TRIPOS>MOLECULE
/home/cewinharhar/GITHUB/reincatalyze/data/processed/docking_pred/2023-May-25-1902_sub9_nm5_bs15_s42_ex16_mel10_mts10000_k50_ec01_g099_lra3e-4_lrc3e-3/a6201df4fd59712db5137144eee8a96fed35f0a9_ligand_9.pdbqt
 14 15 0 0 0
SMALL
GASTEIGER

@<TRIPOS>ATOM
      1  C          6.3840    1.2030    0.9480 C.3     1  UNL1        0.0800
      2  C          5.6610    0.3770    1.9550 C.2     1  UNL1        0.1300
      3  C          6.2670   -0.8490    2.5410 C.3     1  UNL1        0.0870
      4  O          4.5420    0.6860    2.3310 O.2     1  UNL1       -0.3000
      5  C          5.8690    0.9380   -0.4530 C.3     1  UNL1        0.0430
      6  C          6.8060    0.1100   -1.2320 C.2     1  UNL1       -0.0440
      7  C          7.4710    0.6150   -2.3550 C.2     1  UNL1        0.0080
      8  C          7.0420   -1.1920   -0.8540 C.2     1  UNL1        0.0540
      9  C          8.3400   -0.2090   -3.0470 C.2     1  UNL1        0.0510
     10  C          7.9220   -2.0210   -1.5570 C.2     1  UNL1        0.1660
     11  C          8.5760   -1.5250   -2.6630 C.2     1  UNL1        0.1650
     12  O          8.3200   -3.3300   -1.3850 O.2     1  UNL1       -0.4540
     13  O          9.3710   -2.5510   -3.1510 O.2     1  UNL1       -0.4540
     14  C          9.3070   -3.6840   -2.3190 C.3     1  UNL1        0.4680
@<TRIPOS>BOND
     1    13    11    1
     2    13    14    1
     3     9    11    2
     4     9     7    1
     5    11    10    1
     6     7     6    2
     7    14    12    1
     8    10    12    1
     9    10     8    2
    10     6     8    1
    11     6     5    1
    12     5     1    1
    13     1     2    1
    14     2     4    2
    15     2     3    1
