@<TRIPOS>MOLECULE
/home/cewinharhar/GITHUB/reincatalyze/data/processed/docking_pred/2023-May-25-1902_sub9_nm5_bs15_s42_ex16_mel10_mts10000_k50_ec01_g099_lra3e-4_lrc3e-3/a6201df4fd59712db5137144eee8a96fed35f0a9_ligand_9.pdbqt
 14 15 0 0 0
SMALL
GASTEIGER

@<TRIPOS>ATOM
      1  C          5.7410    1.3620   -0.2660 C.3     1  UNL1        0.0800
      2  C          5.1160    1.2650    1.0830 C.2     1  UNL1        0.1300
      3  C          5.3600    0.0980    1.9740 C.3     1  UNL1        0.0870
      4  O          4.3820    2.1460    1.4990 O.2     1  UNL1       -0.3000
      5  C          7.2340    1.1100   -0.2010 C.3     1  UNL1        0.0430
      6  C          7.5980   -0.1770   -0.8210 C.2     1  UNL1       -0.0440
      7  C          7.6360   -0.3360   -2.2110 C.2     1  UNL1        0.0080
      8  C          7.9120   -1.2530   -0.0230 C.2     1  UNL1        0.0540
      9  C          7.9860   -1.5660   -2.7360 C.2     1  UNL1        0.0510
     10  C          8.2660   -2.4950   -0.5590 C.2     1  UNL1        0.1660
     11  C          8.3020   -2.6530   -1.9270 C.2     1  UNL1        0.1650
     12  O          8.6150   -3.7010    0.0130 O.2     1  UNL1       -0.4540
     13  O          8.6780   -3.9650   -2.1690 O.2     1  UNL1       -0.4540
     14  C          8.9740   -4.6390   -0.9690 C.3     1  UNL1        0.4680
@<TRIPOS>BOND
     1     9     7    1
     2     9    11    2
     3     7     6    2
     4    13    11    1
     5    13    14    1
     6    11    10    1
     7    14    12    1
     8     6     5    1
     9     6     8    1
    10    10     8    2
    11    10    12    1
    12     1     5    1
    13     1     2    1
    14     2     4    2
    15     2     3    1
