@<TRIPOS>MOLECULE
/home/cewinharhar/GITHUB/reincatalyze/data/processed/docking_pred/2023-May-25-1902_sub9_nm5_bs15_s42_ex16_mel10_mts10000_k50_ec01_g099_lra3e-4_lrc3e-3/a7c8c9f10e55c2841f25afbe7e611a3f864293db_ligand_9.pdbqt
 14 15 0 0 0
SMALL
GASTEIGER

@<TRIPOS>ATOM
      1  C          5.3340   -0.0870    1.9750 C.3     1  UNL1        0.0800
      2  C          4.4870    1.1200    1.7650 C.2     1  UNL1        0.1300
      3  C          4.7910    2.1100    0.6970 C.3     1  UNL1        0.0870
      4  O          3.5140    1.3340    2.4690 O.2     1  UNL1       -0.3000
      5  C          6.8090    0.2590    1.9240 C.3     1  UNL1        0.0430
      6  C          7.4050   -0.0820    0.6200 C.2     1  UNL1       -0.0440
      7  C          7.8850    0.9060   -0.2470 C.2     1  UNL1        0.0080
      8  C          7.4990   -1.4000    0.2360 C.2     1  UNL1        0.0540
      9  C          8.4360    0.5270   -1.4570 C.2     1  UNL1        0.0510
     10  C          8.0570   -1.7790   -0.9880 C.2     1  UNL1        0.1660
     11  C          8.5290   -0.8070   -1.8420 C.2     1  UNL1        0.1650
     12  O          8.2610   -3.0020   -1.5910 O.2     1  UNL1       -0.4540
     13  O          9.0180   -1.4600   -2.9620 O.2     1  UNL1       -0.4540
     14  C          8.9510   -2.8580   -2.8050 C.3     1  UNL1        0.4680
@<TRIPOS>BOND
     1    13    14    1
     2    13    11    1
     3    14    12    1
     4    11     9    2
     5    11    10    1
     6    12    10    1
     7     9     7    1
     8    10     8    2
     9     7     6    2
    10     8     6    1
    11     6     5    1
    12     3     2    1
    13     2     1    1
    14     2     4    2
    15     5     1    1
