@<TRIPOS>MOLECULE
/home/cewinharhar/GITHUB/reincatalyze/data/processed/docking_pred/2023-May-25-1902_sub9_nm5_bs15_s42_ex16_mel10_mts10000_k50_ec01_g099_lra3e-4_lrc3e-3/a7c8c9f10e55c2841f25afbe7e611a3f864293db_ligand_9.pdbqt
 14 15 0 0 0
SMALL
GASTEIGER

@<TRIPOS>ATOM
      1  C          5.4300   -0.0430    2.0400 C.3     1  UNL1        0.0800
      2  C          4.5640    1.1390    1.7730 C.2     1  UNL1        0.1300
      3  C          4.8930    2.1260    0.7100 C.3     1  UNL1        0.0870
      4  O          3.5510    1.3330    2.4250 O.2     1  UNL1       -0.3000
      5  C          6.8600    0.2150    1.6070 C.3     1  UNL1        0.0430
      6  C          7.2850   -0.7120    0.5430 C.2     1  UNL1       -0.0440
      7  C          7.1630   -0.3790   -0.8110 C.2     1  UNL1        0.0080
      8  C          7.8170   -1.9370    0.8780 C.2     1  UNL1        0.0540
      9  C          7.5790   -1.2890   -1.7650 C.2     1  UNL1        0.0510
     10  C          8.2370   -2.8530   -0.0910 C.2     1  UNL1        0.1660
     11  C          8.1160   -2.5270   -1.4240 C.2     1  UNL1        0.1650
     12  O          8.7890   -4.1140   -0.0160 O.2     1  UNL1       -0.4540
     13  O          8.6030   -3.6050   -2.1460 O.2     1  UNL1       -0.4540
     14  C          9.1230   -4.5960   -1.2920 C.3     1  UNL1        0.4680
@<TRIPOS>BOND
     1    13    11    1
     2    13    14    1
     3     9    11    2
     4     9     7    1
     5    11    10    1
     6    14    12    1
     7     7     6    2
     8    10    12    1
     9    10     8    2
    10     6     8    1
    11     6     5    1
    12     3     2    1
    13     5     1    1
    14     2     1    1
    15     2     4    2
