@<TRIPOS>MOLECULE
/home/cewinharhar/GITHUB/reincatalyze/data/processed/docking_pred/2023-May-25-1902_sub9_nm5_bs15_s42_ex16_mel10_mts10000_k50_ec01_g099_lra3e-4_lrc3e-3/a8cbf1bb962d04eb60783bb2dc55df042853f03a_ligand_9.pdbqt
 14 15 0 0 0
SMALL
GASTEIGER

@<TRIPOS>ATOM
      1  C          5.4970    1.8800    1.3080 C.3     1  UNL1        0.0800
      2  C          5.0330    0.6490    2.0070 C.2     1  UNL1        0.1300
      3  C          5.9020   -0.5520    2.1320 C.3     1  UNL1        0.0870
      4  O          3.9180    0.5900    2.4990 O.2     1  UNL1       -0.3000
      5  C          5.3830    1.7350   -0.1960 C.3     1  UNL1        0.0430
      6  C          6.5500    1.0400   -0.7680 C.2     1  UNL1       -0.0440
      7  C          7.8570    1.4730   -0.5170 C.2     1  UNL1        0.0080
      8  C          6.3620   -0.0650   -1.5670 C.2     1  UNL1        0.0540
      9  C          8.9140    0.7800   -1.0800 C.2     1  UNL1        0.0510
     10  C          7.4340   -0.7620   -2.1330 C.2     1  UNL1        0.1660
     11  C          8.7200   -0.3360   -1.8880 C.2     1  UNL1        0.1650
     12  O          7.5070   -1.8710   -2.9500 O.2     1  UNL1       -0.4540
     13  O          9.5650   -1.2010   -2.5650 O.2     1  UNL1       -0.4540
     14  C          8.8420   -2.2420   -3.1770 C.3     1  UNL1        0.4680
@<TRIPOS>BOND
     1    14    12    1
     2    14    13    1
     3    12    10    1
     4    13    11    1
     5    10    11    2
     6    10     8    1
     7    11     9    1
     8     8     6    2
     9     9     7    2
    10     6     7    1
    11     6     5    1
    12     5     1    1
    13     1     2    1
    14     2     3    1
    15     2     4    2
