@<TRIPOS>MOLECULE
/home/cewinharhar/GITHUB/reincatalyze/data/processed/docking_pred/2023-May-25-1902_sub9_nm5_bs15_s42_ex16_mel10_mts10000_k50_ec01_g099_lra3e-4_lrc3e-3/a8cbf1bb962d04eb60783bb2dc55df042853f03a_ligand_9.pdbqt
 14 15 0 0 0
SMALL
GASTEIGER

@<TRIPOS>ATOM
      1  C          5.3830   -0.0680    2.0090 C.3     1  UNL1        0.0800
      2  C          4.5160    1.1160    1.7540 C.2     1  UNL1        0.1300
      3  C          4.8210    2.0890    0.6710 C.3     1  UNL1        0.0870
      4  O          3.5230    1.3230    2.4320 O.2     1  UNL1       -0.3000
      5  C          6.8150    0.1980    1.5880 C.3     1  UNL1        0.0430
      6  C          7.2530   -0.7290    0.5290 C.2     1  UNL1       -0.0440
      7  C          7.1190   -0.4090   -0.8270 C.2     1  UNL1        0.0080
      8  C          7.8120   -1.9390    0.8700 C.2     1  UNL1        0.0540
      9  C          7.5490   -1.3180   -1.7770 C.2     1  UNL1        0.0510
     10  C          8.2460   -2.8540   -0.0940 C.2     1  UNL1        0.1660
     11  C          8.1130   -2.5410   -1.4290 C.2     1  UNL1        0.1650
     12  O          8.8250   -4.1030   -0.0120 O.2     1  UNL1       -0.4540
     13  O          8.6180   -3.6140   -2.1450 O.2     1  UNL1       -0.4540
     14  C          9.1630   -4.5870   -1.2860 C.3     1  UNL1        0.4680
@<TRIPOS>BOND
     1    13    11    1
     2    13    14    1
     3     9    11    2
     4     9     7    1
     5    11    10    1
     6    14    12    1
     7     7     6    2
     8    10    12    1
     9    10     8    2
    10     6     8    1
    11     6     5    1
    12     3     2    1
    13     5     1    1
    14     2     1    1
    15     2     4    2
