@<TRIPOS>MOLECULE
/home/cewinharhar/GITHUB/reincatalyze/data/processed/docking_pred/2023-May-25-1902_sub9_nm5_bs15_s42_ex16_mel10_mts10000_k50_ec01_g099_lra3e-4_lrc3e-3/a8cbf1bb962d04eb60783bb2dc55df042853f03a_ligand_9.pdbqt
 14 15 0 0 0
SMALL
GASTEIGER

@<TRIPOS>ATOM
      1  C          6.8370    0.9310    1.1770 C.3     1  UNL1        0.0800
      2  C          5.3840    1.2130    1.3520 C.2     1  UNL1        0.1300
      3  C          4.6570    2.1500    0.4540 C.3     1  UNL1        0.0870
      4  O          4.7450    0.6790    2.2440 O.2     1  UNL1       -0.3000
      5  C          7.2560    1.0810   -0.2720 C.3     1  UNL1        0.0430
      6  C          7.6110   -0.2160   -0.8750 C.2     1  UNL1       -0.0440
      7  C          7.6270   -0.4000   -2.2620 C.2     1  UNL1        0.0080
      8  C          7.9400   -1.2780   -0.0640 C.2     1  UNL1        0.0540
      9  C          7.9690   -1.6390   -2.7710 C.2     1  UNL1        0.0510
     10  C          8.2850   -2.5290   -0.5830 C.2     1  UNL1        0.1660
     11  C          8.3000   -2.7110   -1.9480 C.2     1  UNL1        0.1650
     12  O          8.6450   -3.7240    0.0040 O.2     1  UNL1       -0.4540
     13  O          8.6730   -4.0270   -2.1730 O.2     1  UNL1       -0.4540
     14  C          8.9890   -4.6790   -0.9670 C.3     1  UNL1        0.4680
@<TRIPOS>BOND
     1     9     7    1
     2     9    11    2
     3     7     6    2
     4    13    11    1
     5    13    14    1
     6    11    10    1
     7    14    12    1
     8     6     5    1
     9     6     8    1
    10    10     8    2
    11    10    12    1
    12     5     1    1
    13     3     2    1
    14     1     2    1
    15     2     4    2
