@<TRIPOS>MOLECULE
/home/cewinharhar/GITHUB/reincatalyze/data/processed/docking_pred/2023-May-25-1902_sub9_nm5_bs15_s42_ex16_mel10_mts10000_k50_ec01_g099_lra3e-4_lrc3e-3/a8cbf1bb962d04eb60783bb2dc55df042853f03a_ligand_9.pdbqt
 14 15 0 0 0
SMALL
GASTEIGER

@<TRIPOS>ATOM
      1  C          5.7440    1.1370   -0.3750 C.3     1  UNL1        0.0800
      2  C          5.2210    1.1630    1.0200 C.2     1  UNL1        0.1300
      3  C          5.3670   -0.0050    1.9300 C.3     1  UNL1        0.0870
      4  O          4.6530    2.1500    1.4580 O.2     1  UNL1       -0.3000
      5  C          7.2550    1.0130   -0.3940 C.3     1  UNL1        0.0430
      6  C          7.6910   -0.2700   -0.9730 C.2     1  UNL1       -0.0440
      7  C          7.9060   -0.4180   -2.3480 C.2     1  UNL1        0.0080
      8  C          7.8980   -1.3540   -0.1510 C.2     1  UNL1        0.0540
      9  C          8.3160   -1.6460   -2.8340 C.2     1  UNL1        0.0510
     10  C          8.3130   -2.5930   -0.6470 C.2     1  UNL1        0.1660
     11  C          8.5230   -2.7410   -2.0010 C.2     1  UNL1        0.1650
     12  O          8.5820   -3.8050   -0.0460 O.2     1  UNL1       -0.4540
     13  O          8.9220   -4.0520   -2.2040 O.2     1  UNL1       -0.4540
     14  C          9.0600   -4.7370   -0.9810 C.3     1  UNL1        0.4680
@<TRIPOS>BOND
     1     9     7    1
     2     9    11    2
     3     7     6    2
     4    13    11    1
     5    13    14    1
     6    11    10    1
     7    14    12    1
     8     6     5    1
     9     6     8    1
    10    10     8    2
    11    10    12    1
    12     5     1    1
    13     1     2    1
    14     2     4    2
    15     2     3    1
