@<TRIPOS>MOLECULE
/home/cewinharhar/GITHUB/reincatalyze/data/processed/docking_pred/2023-May-25-1902_sub9_nm5_bs15_s42_ex16_mel10_mts10000_k50_ec01_g099_lra3e-4_lrc3e-3/a991e05863b38587be5f018959c733685726fb49_ligand_9.pdbqt
 14 15 0 0 0
SMALL
GASTEIGER

@<TRIPOS>ATOM
      1  C          5.5040    1.9320    1.2550 C.3     1  UNL1        0.0800
      2  C          5.0710    0.7150    1.9980 C.2     1  UNL1        0.1300
      3  C          5.9690   -0.4590    2.1640 C.3     1  UNL1        0.0870
      4  O          3.9580    0.6470    2.4940 O.2     1  UNL1       -0.3000
      5  C          5.3810    1.7340   -0.2430 C.3     1  UNL1        0.0430
      6  C          6.5510    1.0310   -0.7990 C.2     1  UNL1       -0.0440
      7  C          7.8570    1.4630   -0.5400 C.2     1  UNL1        0.0080
      8  C          6.3670   -0.0780   -1.5920 C.2     1  UNL1        0.0540
      9  C          8.9160    0.7630   -1.0880 C.2     1  UNL1        0.0510
     10  C          7.4410   -0.7830   -2.1440 C.2     1  UNL1        0.1660
     11  C          8.7260   -0.3590   -1.8900 C.2     1  UNL1        0.1650
     12  O          7.5180   -1.8970   -2.9520 O.2     1  UNL1       -0.4540
     13  O          9.5750   -1.2310   -2.5530 O.2     1  UNL1       -0.4540
     14  C          8.8540   -2.2750   -3.1640 C.3     1  UNL1        0.4680
@<TRIPOS>BOND
     1    14    12    1
     2    14    13    1
     3    12    10    1
     4    13    11    1
     5    10    11    2
     6    10     8    1
     7    11     9    1
     8     8     6    2
     9     9     7    2
    10     6     7    1
    11     6     5    1
    12     5     1    1
    13     1     2    1
    14     2     3    1
    15     2     4    2
