MODEL 1
REMARK VINA RESULT:      -7.6      0.000      0.000
REMARK SMILES CC(=O)CCc1ccc2c(c1)OCO2
REMARK SMILES IDX 4 1 2 2 1 3 3 4 5 5 6 6 7 7 11 8 8 9 10 10 9 11 12 12 14 13
REMARK SMILES IDX 13 14
REMARK H PARENT
REMARK Flexibility Score: inf
ROOT
ATOM      1  C   UNL     1       5.504   1.932   1.255  1.00  0.00     0.080 C 
ENDROOT
BRANCH   1   2
ATOM      2  C   UNL     1       5.071   0.715   1.998  1.00  0.00     0.130 C 
ATOM      3  C   UNL     1       5.969  -0.459   2.164  1.00  0.00     0.087 C 
ATOM      4  O   UNL     1       3.958   0.647   2.494  1.00  0.00    -0.300 OA
ENDBRANCH   1   2
BRANCH   1   5
ATOM      5  C   UNL     1       5.381   1.734  -0.243  1.00  0.00     0.043 C 
BRANCH   5   6
ATOM      6  C   UNL     1       6.551   1.031  -0.799  1.00  0.00    -0.044 A 
ATOM      7  C   UNL     1       7.857   1.463  -0.540  1.00  0.00     0.008 A 
ATOM      8  C   UNL     1       6.367  -0.078  -1.592  1.00  0.00     0.054 A 
ATOM      9  C   UNL     1       8.916   0.763  -1.088  1.00  0.00     0.051 A 
ATOM     10  C   UNL     1       7.441  -0.783  -2.144  1.00  0.00     0.166 A 
ATOM     11  C   UNL     1       8.726  -0.359  -1.890  1.00  0.00     0.165 A 
ATOM     12  O   UNL     1       7.518  -1.897  -2.952  1.00  0.00    -0.454 OA
ATOM     13  O   UNL     1       9.575  -1.231  -2.553  1.00  0.00    -0.454 OA
ATOM     14  C   UNL     1       8.854  -2.275  -3.164  1.00  0.00     0.468 C 
ENDBRANCH   5   6
ENDBRANCH   1   5
TORSDOF 3
ENDMDL
MODEL 2
REMARK VINA RESULT:      -7.4      1.924      2.404
REMARK SMILES CC(=O)CCc1ccc2c(c1)OCO2
REMARK SMILES IDX 4 1 2 2 1 3 3 4 5 5 6 6 7 7 11 8 8 9 10 10 9 11 12 12 14 13
REMARK SMILES IDX 13 14
REMARK H PARENT
REMARK Flexibility Score: inf
ROOT
ATOM      1  C   UNL     1       5.732   1.346  -0.309  1.00  0.00     0.080 C 
ENDROOT
BRANCH   1   2
ATOM      2  C   UNL     1       5.127   1.282   1.051  1.00  0.00     0.130 C 
ATOM      3  C   UNL     1       5.428   0.167   1.988  1.00  0.00     0.087 C 
ATOM      4  O   UNL     1       4.361   2.150   1.437  1.00  0.00    -0.300 OA
ENDBRANCH   1   2
BRANCH   1   5
ATOM      5  C   UNL     1       7.225   1.089  -0.259  1.00  0.00     0.043 C 
BRANCH   5   6
ATOM      6  C   UNL     1       7.577  -0.205  -0.869  1.00  0.00    -0.044 A 
ATOM      7  C   UNL     1       7.598  -0.381  -2.257  1.00  0.00     0.008 A 
ATOM      8  C   UNL     1       7.899  -1.274  -0.063  1.00  0.00     0.054 A 
ATOM      9  C   UNL     1       7.937  -1.619  -2.772  1.00  0.00     0.051 A 
ATOM     10  C   UNL     1       8.241  -2.523  -0.588  1.00  0.00     0.166 A 
ATOM     11  C   UNL     1       8.260  -2.697  -1.954  1.00  0.00     0.165 A 
ATOM     12  O   UNL     1       8.594  -3.723  -0.007  1.00  0.00    -0.454 OA
ATOM     13  O   UNL     1       8.629  -4.013  -2.186  1.00  0.00    -0.454 OA
ATOM     14  C   UNL     1       8.938  -4.674  -0.982  1.00  0.00     0.468 C 
ENDBRANCH   5   6
ENDBRANCH   1   5
TORSDOF 3
ENDMDL
MODEL 3
REMARK VINA RESULT:      -7.1      2.077      2.601
REMARK SMILES CC(=O)CCc1ccc2c(c1)OCO2
REMARK SMILES IDX 4 1 2 2 1 3 3 4 5 5 6 6 7 7 11 8 8 9 10 10 9 11 12 12 14 13
REMARK SMILES IDX 13 14
REMARK H PARENT
REMARK Flexibility Score: inf
ROOT
ATOM      1  C   UNL     1       5.626   0.083   1.952  1.00  0.00     0.080 C 
ENDROOT
BRANCH   1   2
ATOM      2  C   UNL     1       4.690   1.191   1.614  1.00  0.00     0.130 C 
ATOM      3  C   UNL     1       4.965   2.130   0.494  1.00  0.00     0.087 C 
ATOM      4  O   UNL     1       3.664   1.362   2.252  1.00  0.00    -0.300 OA
ENDBRANCH   1   2
BRANCH   1   5
ATOM      5  C   UNL     1       7.016   0.351   1.411  1.00  0.00     0.043 C 
BRANCH   5   6
ATOM      6  C   UNL     1       7.403  -0.634   0.385  1.00  0.00    -0.044 A 
ATOM      7  C   UNL     1       7.287  -0.354  -0.981  1.00  0.00     0.008 A 
ATOM      8  C   UNL     1       7.893  -1.862   0.770  1.00  0.00     0.054 A 
ATOM      9  C   UNL     1       7.667  -1.318  -1.898  1.00  0.00     0.051 A 
ATOM     10  C   UNL     1       8.276  -2.832  -0.161  1.00  0.00     0.166 A 
ATOM     11  C   UNL     1       8.161  -2.558  -1.506  1.00  0.00     0.165 A 
ATOM     12  O   UNL     1       8.783  -4.108  -0.034  1.00  0.00    -0.454 OA
ATOM     13  O   UNL     1       8.606  -3.682  -2.183  1.00  0.00    -0.454 OA
ATOM     14  C   UNL     1       9.095  -4.654  -1.289  1.00  0.00     0.468 C 
ENDBRANCH   5   6
ENDBRANCH   1   5
TORSDOF 3
ENDMDL
MODEL 4
REMARK VINA RESULT:      -7.0      1.265      1.482
REMARK SMILES CC(=O)CCc1ccc2c(c1)OCO2
REMARK SMILES IDX 4 1 2 2 1 3 3 4 5 5 6 6 7 7 11 8 8 9 10 10 9 11 12 12 14 13
REMARK SMILES IDX 13 14
REMARK H PARENT
REMARK Flexibility Score: inf
ROOT
ATOM      1  C   UNL     1       6.385   1.181   0.953  1.00  0.00     0.080 C 
ENDROOT
BRANCH   1   2
ATOM      2  C   UNL     1       5.649   0.364   1.958  1.00  0.00     0.130 C 
ATOM      3  C   UNL     1       6.242  -0.865   2.550  1.00  0.00     0.087 C 
ATOM      4  O   UNL     1       4.530   0.682   2.327  1.00  0.00    -0.300 OA
ENDBRANCH   1   2
BRANCH   1   5
ATOM      5  C   UNL     1       5.875   0.918  -0.450  1.00  0.00     0.043 C 
BRANCH   5   6
ATOM      6  C   UNL     1       6.816   0.093  -1.228  1.00  0.00    -0.044 A 
ATOM      7  C   UNL     1       7.484   0.601  -2.348  1.00  0.00     0.008 A 
ATOM      8  C   UNL     1       7.053  -1.210  -0.852  1.00  0.00     0.054 A 
ATOM      9  C   UNL     1       8.356  -0.220  -3.039  1.00  0.00     0.051 A 
ATOM     10  C   UNL     1       7.936  -2.036  -1.553  1.00  0.00     0.166 A 
ATOM     11  C   UNL     1       8.593  -1.537  -2.656  1.00  0.00     0.165 A 
ATOM     12  O   UNL     1       8.335  -3.345  -1.383  1.00  0.00    -0.454 OA
ATOM     13  O   UNL     1       9.390  -2.560  -3.144  1.00  0.00    -0.454 OA
ATOM     14  C   UNL     1       9.326  -3.695  -2.314  1.00  0.00     0.468 C 
ENDBRANCH   5   6
ENDBRANCH   1   5
TORSDOF 3
ENDMDL
MODEL 5
REMARK VINA RESULT:      -7.0      1.967      2.540
REMARK SMILES CC(=O)CCc1ccc2c(c1)OCO2
REMARK SMILES IDX 4 1 2 2 1 3 3 4 5 5 6 6 7 7 11 8 8 9 10 10 9 11 12 12 14 13
REMARK SMILES IDX 13 14
REMARK H PARENT
REMARK Flexibility Score: inf
ROOT
ATOM      1  C   UNL     1       6.868   0.820   1.170  1.00  0.00     0.080 C 
ENDROOT
BRANCH   1   2
ATOM      2  C   UNL     1       5.438   1.136   1.440  1.00  0.00     0.130 C 
ATOM      3  C   UNL     1       4.697   2.147   0.638  1.00  0.00     0.087 C 
ATOM      4  O   UNL     1       4.828   0.570   2.333  1.00  0.00    -0.300 OA
ENDBRANCH   1   2
BRANCH   1   5
ATOM      5  C   UNL     1       7.197   0.969  -0.302  1.00  0.00     0.043 C 
BRANCH   5   6
ATOM      6  C   UNL     1       7.621  -0.310  -0.899  1.00  0.00    -0.044 A 
ATOM      7  C   UNL     1       7.773  -0.459  -2.282  1.00  0.00     0.008 A 
ATOM      8  C   UNL     1       7.880  -1.390  -0.086  1.00  0.00     0.054 A 
ATOM      9  C   UNL     1       8.175  -1.683  -2.785  1.00  0.00     0.051 A 
ATOM     10  C   UNL     1       8.286  -2.625  -0.599  1.00  0.00     0.166 A 
ATOM     11  C   UNL     1       8.434  -2.773  -1.961  1.00  0.00     0.165 A 
ATOM     12  O   UNL     1       8.598  -3.831  -0.009  1.00  0.00    -0.454 OA
ATOM     13  O   UNL     1       8.840  -4.080  -2.180  1.00  0.00    -0.454 OA
ATOM     14  C   UNL     1       9.044  -4.760  -0.965  1.00  0.00     0.468 C 
ENDBRANCH   5   6
ENDBRANCH   1   5
TORSDOF 3
ENDMDL
