@<TRIPOS>MOLECULE
/home/cewinharhar/GITHUB/reincatalyze/data/processed/docking_pred/2023-May-25-1902_sub9_nm5_bs15_s42_ex16_mel10_mts10000_k50_ec01_g099_lra3e-4_lrc3e-3/ab317eb7565d030be4138c7249420e244018cf00_ligand_9.pdbqt
 14 15 0 0 0
SMALL
GASTEIGER

@<TRIPOS>ATOM
      1  C          5.8090    1.0710   -0.3000 C.3     1  UNL1        0.0800
      2  C          5.7330    1.2620    1.1750 C.2     1  UNL1        0.1300
      3  C          4.8890    0.3880    2.0340 C.3     1  UNL1        0.0870
      4  O          6.3650    2.1490    1.7260 O.2     1  UNL1       -0.3000
      5  C          7.2380    0.8510   -0.7540 C.3     1  UNL1        0.0430
      6  C          7.6970   -0.5200   -0.4670 C.2     1  UNL1       -0.0440
      7  C          7.9170   -0.9610    0.8430 C.2     1  UNL1        0.0080
      8  C          7.9150   -1.3980   -1.5050 C.2     1  UNL1        0.0540
      9  C          8.3460   -2.2590    1.0510 C.2     1  UNL1        0.0510
     10  C          8.3490   -2.7090   -1.2890 C.2     1  UNL1        0.1660
     11  C          8.5660   -3.1430   -0.0000 C.2     1  UNL1        0.1650
     12  O          8.6340   -3.7560   -2.1390 O.2     1  UNL1       -0.4540
     13  O          8.9840   -4.4620   -0.0870 O.2     1  UNL1       -0.4540
     14  C          8.9530   -4.9190   -1.4180 C.3     1  UNL1        0.4680
@<TRIPOS>BOND
     1    12    14    1
     2    12    10    1
     3     8    10    1
     4     8     6    2
     5    14    13    1
     6    10    11    2
     7     5     6    1
     8     5     1    1
     9     6     7    1
    10     1     2    1
    11    13    11    1
    12    11     9    1
    13     7     9    2
    14     2     4    2
    15     2     3    1
