MODEL 1
REMARK VINA RESULT:      -7.3      0.000      0.000
REMARK SMILES CC(=O)CCc1ccc2c(c1)OCO2
REMARK SMILES IDX 4 1 2 2 1 3 3 4 5 5 6 6 7 7 11 8 8 9 10 10 9 11 12 12 14 13
REMARK SMILES IDX 13 14
REMARK H PARENT
REMARK Flexibility Score: inf
ROOT
ATOM      1  C   UNL     1       5.904   1.650   1.324  1.00  0.00     0.080 C 
ENDROOT
BRANCH   1   2
ATOM      2  C   UNL     1       5.384   0.466   2.065  1.00  0.00     0.130 C 
ATOM      3  C   UNL     1       6.223  -0.739   2.298  1.00  0.00     0.087 C 
ATOM      4  O   UNL     1       4.245   0.453   2.503  1.00  0.00    -0.300 OA
ENDBRANCH   1   2
BRANCH   1   5
ATOM      5  C   UNL     1       5.694   1.501  -0.169  1.00  0.00     0.043 C 
BRANCH   5   6
ATOM      6  C   UNL     1       6.815   0.792  -0.811  1.00  0.00    -0.044 A 
ATOM      7  C   UNL     1       8.120   1.297  -0.773  1.00  0.00     0.008 A 
ATOM      8  C   UNL     1       6.586  -0.398  -1.464  1.00  0.00     0.054 A 
ATOM      9  C   UNL     1       9.133   0.587  -1.392  1.00  0.00     0.051 A 
ATOM     10  C   UNL     1       7.613  -1.112  -2.088  1.00  0.00     0.166 A 
ATOM     11  C   UNL     1       8.897  -0.615  -2.052  1.00  0.00     0.165 A 
ATOM     12  O   UNL     1       7.641  -2.298  -2.792  1.00  0.00    -0.454 OA
ATOM     13  O   UNL     1       9.695  -1.516  -2.740  1.00  0.00    -0.454 OA
ATOM     14  C   UNL     1       8.956  -2.642  -3.147  1.00  0.00     0.468 C 
ENDBRANCH   5   6
ENDBRANCH   1   5
TORSDOF 3
ENDMDL
MODEL 2
REMARK VINA RESULT:      -7.2      1.138      1.182
REMARK SMILES CC(=O)CCc1ccc2c(c1)OCO2
REMARK SMILES IDX 4 1 2 2 1 3 3 4 5 5 6 6 7 7 11 8 8 9 10 10 9 11 12 12 14 13
REMARK SMILES IDX 13 14
REMARK H PARENT
REMARK Flexibility Score: inf
ROOT
ATOM      1  C   UNL     1       6.366   1.229   0.895  1.00  0.00     0.080 C 
ENDROOT
BRANCH   1   2
ATOM      2  C   UNL     1       5.680   0.406   1.930  1.00  0.00     0.130 C 
ATOM      3  C   UNL     1       6.308  -0.818   2.496  1.00  0.00     0.087 C 
ATOM      4  O   UNL     1       4.575   0.716   2.346  1.00  0.00    -0.300 OA
ENDBRANCH   1   2
BRANCH   1   5
ATOM      5  C   UNL     1       5.846   0.912  -0.494  1.00  0.00     0.043 C 
BRANCH   5   6
ATOM      6  C   UNL     1       6.803   0.096  -1.262  1.00  0.00    -0.044 A 
ATOM      7  C   UNL     1       7.496   0.619  -2.360  1.00  0.00     0.008 A 
ATOM      8  C   UNL     1       7.031  -1.212  -0.899  1.00  0.00     0.054 A 
ATOM      9  C   UNL     1       8.382  -0.194  -3.043  1.00  0.00     0.051 A 
ATOM     10  C   UNL     1       7.929  -2.029  -1.592  1.00  0.00     0.166 A 
ATOM     11  C   UNL     1       8.610  -1.516  -2.673  1.00  0.00     0.165 A 
ATOM     12  O   UNL     1       8.323  -3.340  -1.431  1.00  0.00    -0.454 OA
ATOM     13  O   UNL     1       9.417  -2.533  -3.158  1.00  0.00    -0.454 OA
ATOM     14  C   UNL     1       9.334  -3.679  -2.345  1.00  0.00     0.468 C 
ENDBRANCH   5   6
ENDBRANCH   1   5
TORSDOF 3
ENDMDL
MODEL 3
REMARK VINA RESULT:      -7.1      1.827      2.305
REMARK SMILES CC(=O)CCc1ccc2c(c1)OCO2
REMARK SMILES IDX 4 1 2 2 1 3 3 4 5 5 6 6 7 7 11 8 8 9 10 10 9 11 12 12 14 13
REMARK SMILES IDX 13 14
REMARK H PARENT
REMARK Flexibility Score: inf
ROOT
ATOM      1  C   UNL     1       5.962   1.191  -0.218  1.00  0.00     0.080 C 
ENDROOT
BRANCH   1   2
ATOM      2  C   UNL     1       5.901   1.177   1.271  1.00  0.00     0.130 C 
ATOM      3  C   UNL     1       5.286   0.047   2.017  1.00  0.00     0.087 C 
ATOM      4  O   UNL     1       6.357   2.101   1.925  1.00  0.00    -0.300 OA
ENDBRANCH   1   2
BRANCH   1   5
ATOM      5  C   UNL     1       7.395   1.148  -0.710  1.00  0.00     0.043 C 
BRANCH   5   6
ATOM      6  C   UNL     1       7.769  -0.195  -1.187  1.00  0.00    -0.044 A 
ATOM      7  C   UNL     1       7.949  -0.466  -2.549  1.00  0.00     0.008 A 
ATOM      8  C   UNL     1       7.952  -1.215  -0.281  1.00  0.00     0.054 A 
ATOM      9  C   UNL     1       8.301  -1.745  -2.937  1.00  0.00     0.051 A 
ATOM     10  C   UNL     1       8.308  -2.506  -0.679  1.00  0.00     0.166 A 
ATOM     11  C   UNL     1       8.484  -2.774  -2.018  1.00  0.00     0.165 A 
ATOM     12  O   UNL     1       8.544  -3.673   0.017  1.00  0.00    -0.454 OA
ATOM     13  O   UNL     1       8.829  -4.113  -2.118  1.00  0.00    -0.454 OA
ATOM     14  C   UNL     1       8.967  -4.698  -0.845  1.00  0.00     0.468 C 
ENDBRANCH   5   6
ENDBRANCH   1   5
TORSDOF 3
ENDMDL
MODEL 4
REMARK VINA RESULT:      -6.6      2.046      2.584
REMARK SMILES CC(=O)CCc1ccc2c(c1)OCO2
REMARK SMILES IDX 4 1 2 2 1 3 3 4 5 5 6 6 7 7 11 8 8 9 10 10 9 11 12 12 14 13
REMARK SMILES IDX 13 14
REMARK H PARENT
REMARK Flexibility Score: inf
ROOT
ATOM      1  C   UNL     1       6.221  -0.351   2.315  1.00  0.00     0.080 C 
ENDROOT
BRANCH   1   2
ATOM      2  C   UNL     1       5.143   0.577   1.874  1.00  0.00     0.130 C 
ATOM      3  C   UNL     1       5.276   1.399   0.641  1.00  0.00     0.087 C 
ATOM      4  O   UNL     1       4.111   0.690   2.516  1.00  0.00    -0.300 OA
ENDBRANCH   1   2
BRANCH   1   5
ATOM      5  C   UNL     1       7.534  -0.036   1.626  1.00  0.00     0.043 C 
BRANCH   5   6
ATOM      6  C   UNL     1       7.819  -0.985   0.534  1.00  0.00    -0.044 A 
ATOM      7  C   UNL     1       7.715  -0.608  -0.810  1.00  0.00     0.008 A 
ATOM      8  C   UNL     1       8.200  -2.273   0.832  1.00  0.00     0.054 A 
ATOM      9  C   UNL     1       7.995  -1.540  -1.792  1.00  0.00     0.051 A 
ATOM     10  C   UNL     1       8.483  -3.212  -0.165  1.00  0.00     0.166 A 
ATOM     11  C   UNL     1       8.380  -2.842  -1.488  1.00  0.00     0.165 A 
ATOM     12  O   UNL     1       8.874  -4.534  -0.127  1.00  0.00    -0.454 OA
ATOM     13  O   UNL     1       8.714  -3.956  -2.242  1.00  0.00    -0.454 OA
ATOM     14  C   UNL     1       9.122  -5.023  -1.420  1.00  0.00     0.468 C 
ENDBRANCH   5   6
ENDBRANCH   1   5
TORSDOF 3
ENDMDL
MODEL 5
REMARK VINA RESULT:      -6.4      2.132      2.521
REMARK SMILES CC(=O)CCc1ccc2c(c1)OCO2
REMARK SMILES IDX 4 1 2 2 1 3 3 4 5 5 6 6 7 7 11 8 8 9 10 10 9 11 12 12 14 13
REMARK SMILES IDX 13 14
REMARK H PARENT
REMARK Flexibility Score: inf
ROOT
ATOM      1  C   UNL     1       5.809   1.071  -0.300  1.00  0.00     0.080 C 
ENDROOT
BRANCH   1   2
ATOM      2  C   UNL     1       5.733   1.262   1.175  1.00  0.00     0.130 C 
ATOM      3  C   UNL     1       4.889   0.388   2.034  1.00  0.00     0.087 C 
ATOM      4  O   UNL     1       6.365   2.149   1.726  1.00  0.00    -0.300 OA
ENDBRANCH   1   2
BRANCH   1   5
ATOM      5  C   UNL     1       7.238   0.851  -0.754  1.00  0.00     0.043 C 
BRANCH   5   6
ATOM      6  C   UNL     1       7.697  -0.520  -0.467  1.00  0.00    -0.044 A 
ATOM      7  C   UNL     1       7.917  -0.961   0.843  1.00  0.00     0.008 A 
ATOM      8  C   UNL     1       7.915  -1.398  -1.505  1.00  0.00     0.054 A 
ATOM      9  C   UNL     1       8.346  -2.259   1.051  1.00  0.00     0.051 A 
ATOM     10  C   UNL     1       8.349  -2.709  -1.289  1.00  0.00     0.166 A 
ATOM     11  C   UNL     1       8.566  -3.143  -0.000  1.00  0.00     0.165 A 
ATOM     12  O   UNL     1       8.634  -3.756  -2.139  1.00  0.00    -0.454 OA
ATOM     13  O   UNL     1       8.984  -4.462  -0.087  1.00  0.00    -0.454 OA
ATOM     14  C   UNL     1       8.953  -4.919  -1.418  1.00  0.00     0.468 C 
ENDBRANCH   5   6
ENDBRANCH   1   5
TORSDOF 3
ENDMDL
