@<TRIPOS>MOLECULE
/home/cewinharhar/GITHUB/reincatalyze/data/processed/docking_pred/2023-May-25-1902_sub9_nm5_bs15_s42_ex16_mel10_mts10000_k50_ec01_g099_lra3e-4_lrc3e-3/ab317eb7565d030be4138c7249420e244018cf00_ligand_9.pdbqt
 14 15 0 0 0
SMALL
GASTEIGER

@<TRIPOS>ATOM
      1  C          6.3660    1.2290    0.8950 C.3     1  UNL1        0.0800
      2  C          5.6800    0.4060    1.9300 C.2     1  UNL1        0.1300
      3  C          6.3080   -0.8180    2.4960 C.3     1  UNL1        0.0870
      4  O          4.5750    0.7160    2.3460 O.2     1  UNL1       -0.3000
      5  C          5.8460    0.9120   -0.4940 C.3     1  UNL1        0.0430
      6  C          6.8030    0.0960   -1.2620 C.2     1  UNL1       -0.0440
      7  C          7.4960    0.6190   -2.3600 C.2     1  UNL1        0.0080
      8  C          7.0310   -1.2120   -0.8990 C.2     1  UNL1        0.0540
      9  C          8.3820   -0.1940   -3.0430 C.2     1  UNL1        0.0510
     10  C          7.9290   -2.0290   -1.5920 C.2     1  UNL1        0.1660
     11  C          8.6100   -1.5160   -2.6730 C.2     1  UNL1        0.1650
     12  O          8.3230   -3.3400   -1.4310 O.2     1  UNL1       -0.4540
     13  O          9.4170   -2.5330   -3.1580 O.2     1  UNL1       -0.4540
     14  C          9.3340   -3.6790   -2.3450 C.3     1  UNL1        0.4680
@<TRIPOS>BOND
     1    13    11    1
     2    13    14    1
     3     9    11    2
     4     9     7    1
     5    11    10    1
     6     7     6    2
     7    14    12    1
     8    10    12    1
     9    10     8    2
    10     6     8    1
    11     6     5    1
    12     5     1    1
    13     1     2    1
    14     2     4    2
    15     2     3    1
