@<TRIPOS>MOLECULE
/home/cewinharhar/GITHUB/reincatalyze/data/processed/docking_pred/2023-May-25-1902_sub9_nm5_bs15_s42_ex16_mel10_mts10000_k50_ec01_g099_lra3e-4_lrc3e-3/ab317eb7565d030be4138c7249420e244018cf00_ligand_9.pdbqt
 14 15 0 0 0
SMALL
GASTEIGER

@<TRIPOS>ATOM
      1  C          6.2210   -0.3510    2.3150 C.3     1  UNL1        0.0800
      2  C          5.1430    0.5770    1.8740 C.2     1  UNL1        0.1300
      3  C          5.2760    1.3990    0.6410 C.3     1  UNL1        0.0870
      4  O          4.1110    0.6900    2.5160 O.2     1  UNL1       -0.3000
      5  C          7.5340   -0.0360    1.6260 C.3     1  UNL1        0.0430
      6  C          7.8190   -0.9850    0.5340 C.2     1  UNL1       -0.0440
      7  C          7.7150   -0.6080   -0.8100 C.2     1  UNL1        0.0080
      8  C          8.2000   -2.2730    0.8320 C.2     1  UNL1        0.0540
      9  C          7.9950   -1.5400   -1.7920 C.2     1  UNL1        0.0510
     10  C          8.4830   -3.2120   -0.1650 C.2     1  UNL1        0.1660
     11  C          8.3800   -2.8420   -1.4880 C.2     1  UNL1        0.1650
     12  O          8.8740   -4.5340   -0.1270 O.2     1  UNL1       -0.4540
     13  O          8.7140   -3.9560   -2.2420 O.2     1  UNL1       -0.4540
     14  C          9.1220   -5.0230   -1.4200 C.3     1  UNL1        0.4680
@<TRIPOS>BOND
     1    13    11    1
     2    13    14    1
     3     9    11    2
     4     9     7    1
     5    11    10    1
     6    14    12    1
     7     7     6    2
     8    10    12    1
     9    10     8    2
    10     6     8    1
    11     6     5    1
    12     3     2    1
    13     5     1    1
    14     2     1    1
    15     2     4    2
