@<TRIPOS>MOLECULE
/home/cewinharhar/GITHUB/reincatalyze/data/processed/docking_pred/2023-May-25-1902_sub9_nm5_bs15_s42_ex16_mel10_mts10000_k50_ec01_g099_lra3e-4_lrc3e-3/ab317eb7565d030be4138c7249420e244018cf00_ligand_9.pdbqt
 14 15 0 0 0
SMALL
GASTEIGER

@<TRIPOS>ATOM
      1  C          5.9620    1.1910   -0.2180 C.3     1  UNL1        0.0800
      2  C          5.9010    1.1770    1.2710 C.2     1  UNL1        0.1300
      3  C          5.2860    0.0470    2.0170 C.3     1  UNL1        0.0870
      4  O          6.3570    2.1010    1.9250 O.2     1  UNL1       -0.3000
      5  C          7.3950    1.1480   -0.7100 C.3     1  UNL1        0.0430
      6  C          7.7690   -0.1950   -1.1870 C.2     1  UNL1       -0.0440
      7  C          7.9490   -0.4660   -2.5490 C.2     1  UNL1        0.0080
      8  C          7.9520   -1.2150   -0.2810 C.2     1  UNL1        0.0540
      9  C          8.3010   -1.7450   -2.9370 C.2     1  UNL1        0.0510
     10  C          8.3080   -2.5060   -0.6790 C.2     1  UNL1        0.1660
     11  C          8.4840   -2.7740   -2.0180 C.2     1  UNL1        0.1650
     12  O          8.5440   -3.6730    0.0170 O.2     1  UNL1       -0.4540
     13  O          8.8290   -4.1130   -2.1180 O.2     1  UNL1       -0.4540
     14  C          8.9670   -4.6980   -0.8450 C.3     1  UNL1        0.4680
@<TRIPOS>BOND
     1     9     7    1
     2     9    11    2
     3     7     6    2
     4    13    11    1
     5    13    14    1
     6    11    10    1
     7     6     5    1
     8     6     8    1
     9    14    12    1
    10     5     1    1
    11    10     8    2
    12    10    12    1
    13     1     2    1
    14     2     4    2
    15     2     3    1
