@<TRIPOS>MOLECULE
/home/cewinharhar/GITHUB/reincatalyze/data/processed/docking_pred/2023-May-25-1902_sub9_nm5_bs15_s42_ex16_mel10_mts10000_k50_ec01_g099_lra3e-4_lrc3e-3/ab5903e155d5198269deee73f32ad6fb308dffee_ligand_9.pdbqt
 14 15 0 0 0
SMALL
GASTEIGER

@<TRIPOS>ATOM
      1  C          5.8800    1.1400   -0.3210 C.3     1  UNL1        0.0800
      2  C          5.3540    1.0020    1.0660 C.2     1  UNL1        0.1300
      3  C          5.6970   -0.1670    1.9190 C.3     1  UNL1        0.0870
      4  O          4.6200    1.8520    1.5440 O.2     1  UNL1       -0.3000
      5  C          7.3940    1.0590   -0.3450 C.3     1  UNL1        0.0430
      6  C          7.8750    0.1340   -1.3870 C.2     1  UNL1       -0.0440
      7  C          8.4370    0.6020   -2.5800 C.2     1  UNL1        0.0080
      8  C          7.7770   -1.2250   -1.1900 C.2     1  UNL1        0.0540
      9  C          8.8720   -0.3130   -3.5210 C.2     1  UNL1        0.0510
     10  C          8.2190   -2.1460   -2.1440 C.2     1  UNL1        0.1660
     11  C          8.7710   -1.6870   -3.3190 C.2     1  UNL1        0.1650
     12  O          8.2310   -3.5240   -2.1850 O.2     1  UNL1       -0.4540
     13  O          9.1150   -2.8040   -4.0650 O.2     1  UNL1       -0.4540
     14  C          8.8730   -3.9890   -3.3450 C.3     1  UNL1        0.4680
@<TRIPOS>BOND
     1    13    14    1
     2    13    11    1
     3     9    11    2
     4     9     7    1
     5    14    12    1
     6    11    10    1
     7     7     6    2
     8    12    10    1
     9    10     8    2
    10     6     8    1
    11     6     5    1
    12     5     1    1
    13     1     2    1
    14     2     4    2
    15     2     3    1
