MODEL 1
REMARK VINA RESULT:      -7.7      0.000      0.000
REMARK SMILES CC(=O)CCc1ccc2c(c1)OCO2
REMARK SMILES IDX 4 1 2 2 1 3 3 4 5 5 6 6 7 7 11 8 8 9 10 10 9 11 12 12 14 13
REMARK SMILES IDX 13 14
REMARK H PARENT
REMARK Flexibility Score: inf
ROOT
ATOM      1  C   UNL     1       5.536   1.920   1.273  1.00  0.00     0.080 C 
ENDROOT
BRANCH   1   2
ATOM      2  C   UNL     1       5.085   0.704   2.007  1.00  0.00     0.130 C 
ATOM      3  C   UNL     1       5.969  -0.481   2.172  1.00  0.00     0.087 C 
ATOM      4  O   UNL     1       3.969   0.646   2.498  1.00  0.00    -0.300 OA
ENDBRANCH   1   2
BRANCH   1   5
ATOM      5  C   UNL     1       5.406   1.737  -0.226  1.00  0.00     0.043 C 
BRANCH   5   6
ATOM      6  C   UNL     1       6.571   1.035  -0.794  1.00  0.00    -0.044 A 
ATOM      7  C   UNL     1       7.879   1.472  -0.553  1.00  0.00     0.008 A 
ATOM      8  C   UNL     1       6.381  -0.080  -1.578  1.00  0.00     0.054 A 
ATOM      9  C   UNL     1       8.934   0.773  -1.112  1.00  0.00     0.051 A 
ATOM     10  C   UNL     1       7.450  -0.783  -2.140  1.00  0.00     0.166 A 
ATOM     11  C   UNL     1       8.737  -0.353  -1.905  1.00  0.00     0.165 A 
ATOM     12  O   UNL     1       7.521  -1.902  -2.943  1.00  0.00    -0.454 OA
ATOM     13  O   UNL     1       9.580  -1.226  -2.575  1.00  0.00    -0.454 OA
ATOM     14  C   UNL     1       8.855  -2.276  -3.171  1.00  0.00     0.468 C 
ENDBRANCH   5   6
ENDBRANCH   1   5
TORSDOF 3
ENDMDL
MODEL 2
REMARK VINA RESULT:      -7.4      1.872      2.325
REMARK SMILES CC(=O)CCc1ccc2c(c1)OCO2
REMARK SMILES IDX 4 1 2 2 1 3 3 4 5 5 6 6 7 7 11 8 8 9 10 10 9 11 12 12 14 13
REMARK SMILES IDX 13 14
REMARK H PARENT
REMARK Flexibility Score: inf
ROOT
ATOM      1  C   UNL     1       5.744   1.399  -0.256  1.00  0.00     0.080 C 
ENDROOT
BRANCH   1   2
ATOM      2  C   UNL     1       5.144   1.279   1.102  1.00  0.00     0.130 C 
ATOM      3  C   UNL     1       5.412   0.104   1.973  1.00  0.00     0.087 C 
ATOM      4  O   UNL     1       4.409   2.149   1.542  1.00  0.00    -0.300 OA
ENDBRANCH   1   2
BRANCH   1   5
ATOM      5  C   UNL     1       7.240   1.159  -0.220  1.00  0.00     0.043 C 
BRANCH   5   6
ATOM      6  C   UNL     1       7.604  -0.120  -0.856  1.00  0.00    -0.044 A 
ATOM      7  C   UNL     1       7.659  -0.256  -2.248  1.00  0.00     0.008 A 
ATOM      8  C   UNL     1       7.900  -1.212  -0.073  1.00  0.00     0.054 A 
ATOM      9  C   UNL     1       8.007  -1.480  -2.789  1.00  0.00     0.051 A 
ATOM     10  C   UNL     1       8.252  -2.447  -0.625  1.00  0.00     0.166 A 
ATOM     11  C   UNL     1       8.306  -2.583  -1.995  1.00  0.00     0.165 A 
ATOM     12  O   UNL     1       8.586  -3.664  -0.069  1.00  0.00    -0.454 OA
ATOM     13  O   UNL     1       8.675  -3.893  -2.254  1.00  0.00    -0.454 OA
ATOM     14  C   UNL     1       8.951  -4.589  -1.061  1.00  0.00     0.468 C 
ENDBRANCH   5   6
ENDBRANCH   1   5
TORSDOF 3
ENDMDL
MODEL 3
REMARK VINA RESULT:      -7.2      2.061      2.623
REMARK SMILES CC(=O)CCc1ccc2c(c1)OCO2
REMARK SMILES IDX 4 1 2 2 1 3 3 4 5 5 6 6 7 7 11 8 8 9 10 10 9 11 12 12 14 13
REMARK SMILES IDX 13 14
REMARK H PARENT
REMARK Flexibility Score: inf
ROOT
ATOM      1  C   UNL     1       5.454  -0.020   1.998  1.00  0.00     0.080 C 
ENDROOT
BRANCH   1   2
ATOM      2  C   UNL     1       4.581   1.157   1.731  1.00  0.00     0.130 C 
ATOM      3  C   UNL     1       4.883   2.123   0.642  1.00  0.00     0.087 C 
ATOM      4  O   UNL     1       3.585   1.363   2.406  1.00  0.00    -0.300 OA
ENDBRANCH   1   2
BRANCH   1   5
ATOM      5  C   UNL     1       6.878   0.237   1.545  1.00  0.00     0.043 C 
BRANCH   5   6
ATOM      6  C   UNL     1       7.296  -0.707   0.493  1.00  0.00    -0.044 A 
ATOM      7  C   UNL     1       7.162  -0.397  -0.865  1.00  0.00     0.008 A 
ATOM      8  C   UNL     1       7.834  -1.924   0.843  1.00  0.00     0.054 A 
ATOM      9  C   UNL     1       7.573  -1.322  -1.808  1.00  0.00     0.051 A 
ATOM     10  C   UNL     1       8.248  -2.856  -0.114  1.00  0.00     0.166 A 
ATOM     11  C   UNL     1       8.115  -2.552  -1.450  1.00  0.00     0.165 A 
ATOM     12  O   UNL     1       8.803  -4.114  -0.021  1.00  0.00    -0.454 OA
ATOM     13  O   UNL     1       8.599  -3.641  -2.158  1.00  0.00    -0.454 OA
ATOM     14  C   UNL     1       9.128  -4.616  -1.292  1.00  0.00     0.468 C 
ENDBRANCH   5   6
ENDBRANCH   1   5
TORSDOF 3
ENDMDL
MODEL 4
REMARK VINA RESULT:      -7.1      1.252      1.462
REMARK SMILES CC(=O)CCc1ccc2c(c1)OCO2
REMARK SMILES IDX 4 1 2 2 1 3 3 4 5 5 6 6 7 7 11 8 8 9 10 10 9 11 12 12 14 13
REMARK SMILES IDX 13 14
REMARK H PARENT
REMARK Flexibility Score: inf
ROOT
ATOM      1  C   UNL     1       6.369   1.196   0.916  1.00  0.00     0.080 C 
ENDROOT
BRANCH   1   2
ATOM      2  C   UNL     1       5.665   0.376   1.940  1.00  0.00     0.130 C 
ATOM      3  C   UNL     1       6.273  -0.857   2.507  1.00  0.00     0.087 C 
ATOM      4  O   UNL     1       4.559   0.694   2.345  1.00  0.00    -0.300 OA
ENDBRANCH   1   2
BRANCH   1   5
ATOM      5  C   UNL     1       5.853   0.899  -0.478  1.00  0.00     0.043 C 
BRANCH   5   6
ATOM      6  C   UNL     1       6.809   0.087  -1.253  1.00  0.00    -0.044 A 
ATOM      7  C   UNL     1       7.499   0.615  -2.350  1.00  0.00     0.008 A 
ATOM      8  C   UNL     1       7.038  -1.222  -0.897  1.00  0.00     0.054 A 
ATOM      9  C   UNL     1       8.384  -0.194  -3.039  1.00  0.00     0.051 A 
ATOM     10  C   UNL     1       7.934  -2.036  -1.596  1.00  0.00     0.166 A 
ATOM     11  C   UNL     1       8.612  -1.517  -2.677  1.00  0.00     0.165 A 
ATOM     12  O   UNL     1       8.329  -3.348  -1.442  1.00  0.00    -0.454 OA
ATOM     13  O   UNL     1       9.419  -2.532  -3.168  1.00  0.00    -0.454 OA
ATOM     14  C   UNL     1       9.338  -3.682  -2.360  1.00  0.00     0.468 C 
ENDBRANCH   5   6
ENDBRANCH   1   5
TORSDOF 3
ENDMDL
MODEL 5
REMARK VINA RESULT:      -7.1      1.960      2.507
REMARK SMILES CC(=O)CCc1ccc2c(c1)OCO2
REMARK SMILES IDX 4 1 2 2 1 3 3 4 5 5 6 6 7 7 11 8 8 9 10 10 9 11 12 12 14 13
REMARK SMILES IDX 13 14
REMARK H PARENT
REMARK Flexibility Score: inf
ROOT
ATOM      1  C   UNL     1       6.805   0.805   1.397  1.00  0.00     0.080 C 
ENDROOT
BRANCH   1   2
ATOM      2  C   UNL     1       5.354   1.119   1.510  1.00  0.00     0.130 C 
ATOM      3  C   UNL     1       4.709   2.150   0.654  1.00  0.00     0.087 C 
ATOM      4  O   UNL     1       4.647   0.535   2.316  1.00  0.00    -0.300 OA
ENDBRANCH   1   2
BRANCH   1   5
ATOM      5  C   UNL     1       7.309   1.029  -0.015  1.00  0.00     0.043 C 
BRANCH   5   6
ATOM      6  C   UNL     1       7.632  -0.241  -0.688  1.00  0.00    -0.044 A 
ATOM      7  C   UNL     1       7.625  -0.354  -2.083  1.00  0.00     0.008 A 
ATOM      8  C   UNL     1       7.953  -1.349   0.063  1.00  0.00     0.054 A 
ATOM      9  C   UNL     1       7.938  -1.572  -2.659  1.00  0.00     0.051 A 
ATOM     10  C   UNL     1       8.269  -2.578  -0.524  1.00  0.00     0.166 A 
ATOM     11  C   UNL     1       8.261  -2.690  -1.897  1.00  0.00     0.165 A 
ATOM     12  O   UNL     1       8.615  -3.806  -0.004  1.00  0.00    -0.454 OA
ATOM     13  O   UNL     1       8.607  -3.999  -2.194  1.00  0.00    -0.454 OA
ATOM     14  C   UNL     1       8.929  -4.717  -1.027  1.00  0.00     0.468 C 
ENDBRANCH   5   6
ENDBRANCH   1   5
TORSDOF 3
ENDMDL
