@<TRIPOS>MOLECULE
/home/cewinharhar/GITHUB/reincatalyze/data/processed/docking_pred/2023-May-25-1902_sub9_nm5_bs15_s42_ex16_mel10_mts10000_k50_ec01_g099_lra3e-4_lrc3e-3/ada201db5b439d74c350b173ce56903753062bb1_ligand_9.pdbqt
 14 15 0 0 0
SMALL
GASTEIGER

@<TRIPOS>ATOM
      1  C          6.3690    1.1960    0.9160 C.3     1  UNL1        0.0800
      2  C          5.6650    0.3760    1.9400 C.2     1  UNL1        0.1300
      3  C          6.2730   -0.8570    2.5070 C.3     1  UNL1        0.0870
      4  O          4.5590    0.6940    2.3450 O.2     1  UNL1       -0.3000
      5  C          5.8530    0.8990   -0.4780 C.3     1  UNL1        0.0430
      6  C          6.8090    0.0870   -1.2530 C.2     1  UNL1       -0.0440
      7  C          7.4990    0.6150   -2.3500 C.2     1  UNL1        0.0080
      8  C          7.0380   -1.2220   -0.8970 C.2     1  UNL1        0.0540
      9  C          8.3840   -0.1940   -3.0390 C.2     1  UNL1        0.0510
     10  C          7.9340   -2.0360   -1.5960 C.2     1  UNL1        0.1660
     11  C          8.6120   -1.5170   -2.6770 C.2     1  UNL1        0.1650
     12  O          8.3290   -3.3480   -1.4420 O.2     1  UNL1       -0.4540
     13  O          9.4190   -2.5320   -3.1680 O.2     1  UNL1       -0.4540
     14  C          9.3380   -3.6820   -2.3600 C.3     1  UNL1        0.4680
@<TRIPOS>BOND
     1    13    11    1
     2    13    14    1
     3     9    11    2
     4     9     7    1
     5    11    10    1
     6    14    12    1
     7     7     6    2
     8    10    12    1
     9    10     8    2
    10     6     8    1
    11     6     5    1
    12     5     1    1
    13     1     2    1
    14     2     4    2
    15     2     3    1
