@<TRIPOS>MOLECULE
/home/cewinharhar/GITHUB/reincatalyze/data/processed/docking_pred/2023-May-25-1902_sub9_nm5_bs15_s42_ex16_mel10_mts10000_k50_ec01_g099_lra3e-4_lrc3e-3/ae2b7ca0e57384ee3cd7889808440c06f68d274f_ligand_9.pdbqt
 14 15 0 0 0
SMALL
GASTEIGER

@<TRIPOS>ATOM
      1  C          5.4670   -0.0230    2.0090 C.3     1  UNL1        0.0800
      2  C          4.5910    1.1560    1.7570 C.2     1  UNL1        0.1300
      3  C          4.8950    2.1390    0.6830 C.3     1  UNL1        0.0870
      4  O          3.5910    1.3490    2.4290 O.2     1  UNL1       -0.3000
      5  C          6.8870    0.2390    1.5500 C.3     1  UNL1        0.0430
      6  C          7.3060   -0.7080    0.5010 C.2     1  UNL1       -0.0440
      7  C          7.1830   -0.3980   -0.8580 C.2     1  UNL1        0.0080
      8  C          7.8360   -1.9280    0.8560 C.2     1  UNL1        0.0540
      9  C          7.5940   -1.3260   -1.7980 C.2     1  UNL1        0.0510
     10  C          8.2500   -2.8620   -0.0980 C.2     1  UNL1        0.1660
     11  C          8.1280   -2.5590   -1.4360 C.2     1  UNL1        0.1650
     12  O          8.7980   -4.1240   -0.0010 O.2     1  UNL1       -0.4540
     13  O          8.6090   -3.6510   -2.1400 O.2     1  UNL1       -0.4540
     14  C          9.1280   -4.6280   -1.2700 C.3     1  UNL1        0.4680
@<TRIPOS>BOND
     1    13    11    1
     2    13    14    1
     3     9    11    2
     4     9     7    1
     5    11    10    1
     6    14    12    1
     7     7     6    2
     8    10    12    1
     9    10     8    2
    10     6     8    1
    11     6     5    1
    12     3     2    1
    13     5     1    1
    14     2     1    1
    15     2     4    2
