@<TRIPOS>MOLECULE
/home/cewinharhar/GITHUB/reincatalyze/data/processed/docking_pred/2023-May-25-1902_sub9_nm5_bs15_s42_ex16_mel10_mts10000_k50_ec01_g099_lra3e-4_lrc3e-3/ae2b7ca0e57384ee3cd7889808440c06f68d274f_ligand_9.pdbqt
 14 15 0 0 0
SMALL
GASTEIGER

@<TRIPOS>ATOM
      1  C          6.5340    0.8340    1.0790 C.3     1  UNL1        0.0800
      2  C          5.3030    1.6260    0.8050 C.2     1  UNL1        0.1300
      3  C          4.9980    2.1500   -0.5530 C.3     1  UNL1        0.0870
      4  O          4.5030    1.8690    1.6950 O.2     1  UNL1       -0.3000
      5  C          7.5510    0.9950   -0.0330 C.3     1  UNL1        0.0430
      6  C          7.8310   -0.2860   -0.7070 C.2     1  UNL1       -0.0440
      7  C          7.8670   -0.3870   -2.1030 C.2     1  UNL1        0.0080
      8  C          8.0660   -1.4150    0.0440 C.2     1  UNL1        0.0540
      9  C          8.1360   -1.6150   -2.6800 C.2     1  UNL1        0.0510
     10  C          8.3380   -2.6540   -0.5440 C.2     1  UNL1        0.1660
     11  C          8.3720   -2.7550   -1.9170 C.2     1  UNL1        0.1650
     12  O          8.6000   -3.9040   -0.0240 O.2     1  UNL1       -0.4540
     13  O          8.6590   -4.0780   -2.2150 O.2     1  UNL1       -0.4540
     14  C          8.9010   -4.8210   -1.0440 C.3     1  UNL1        0.4680
@<TRIPOS>BOND
     1     9     7    1
     2     9    11    2
     3    13    11    1
     4    13    14    1
     5     7     6    2
     6    11    10    1
     7    14    12    1
     8     6     5    1
     9     6     8    1
    10     3     2    1
    11    10    12    1
    12    10     8    2
    13     5     1    1
    14     2     1    1
    15     2     4    2
