@<TRIPOS>MOLECULE
/home/cewinharhar/GITHUB/reincatalyze/data/processed/docking_pred/2023-May-25-1902_sub9_nm5_bs15_s42_ex16_mel10_mts10000_k50_ec01_g099_lra3e-4_lrc3e-3/ae2b7ca0e57384ee3cd7889808440c06f68d274f_ligand_9.pdbqt
 14 15 0 0 0
SMALL
GASTEIGER

@<TRIPOS>ATOM
      1  C          5.5670    1.8930    1.2840 C.3     1  UNL1        0.0800
      2  C          5.1230    0.6790    2.0230 C.2     1  UNL1        0.1300
      3  C          6.0150   -0.4990    2.1970 C.3     1  UNL1        0.0870
      4  O          4.0060    0.6150    2.5100 O.2     1  UNL1       -0.3000
      5  C          5.4280    1.7080   -0.2140 C.3     1  UNL1        0.0430
      6  C          6.5910    1.0090   -0.7880 C.2     1  UNL1       -0.0440
      7  C          7.9000    1.4430   -0.5480 C.2     1  UNL1        0.0080
      8  C          6.3980   -0.1010   -1.5790 C.2     1  UNL1        0.0540
      9  C          8.9530    0.7460   -1.1130 C.2     1  UNL1        0.0510
     10  C          7.4650   -0.8030   -2.1470 C.2     1  UNL1        0.1660
     11  C          8.7530   -0.3750   -1.9130 C.2     1  UNL1        0.1650
     12  O          7.5330   -1.9160   -2.9570 O.2     1  UNL1       -0.4540
     13  O          9.5940   -1.2450   -2.5900 O.2     1  UNL1       -0.4540
     14  C          8.8670   -2.2900   -3.1900 C.3     1  UNL1        0.4680
@<TRIPOS>BOND
     1    14    12    1
     2    14    13    1
     3    12    10    1
     4    13    11    1
     5    10    11    2
     6    10     8    1
     7    11     9    1
     8     8     6    2
     9     9     7    2
    10     6     7    1
    11     6     5    1
    12     5     1    1
    13     1     2    1
    14     2     3    1
    15     2     4    2
