MODEL 1
REMARK VINA RESULT:      -7.6      0.000      0.000
REMARK SMILES CC(=O)CCc1ccc2c(c1)OCO2
REMARK SMILES IDX 4 1 2 2 1 3 3 4 5 5 6 6 7 7 11 8 8 9 10 10 9 11 12 12 14 13
REMARK SMILES IDX 13 14
REMARK H PARENT
REMARK Flexibility Score: inf
ROOT
ATOM      1  C   UNL     1       5.567   1.893   1.284  1.00  0.00     0.080 C 
ENDROOT
BRANCH   1   2
ATOM      2  C   UNL     1       5.123   0.679   2.023  1.00  0.00     0.130 C 
ATOM      3  C   UNL     1       6.015  -0.499   2.197  1.00  0.00     0.087 C 
ATOM      4  O   UNL     1       4.006   0.615   2.510  1.00  0.00    -0.300 OA
ENDBRANCH   1   2
BRANCH   1   5
ATOM      5  C   UNL     1       5.428   1.708  -0.214  1.00  0.00     0.043 C 
BRANCH   5   6
ATOM      6  C   UNL     1       6.591   1.009  -0.788  1.00  0.00    -0.044 A 
ATOM      7  C   UNL     1       7.900   1.443  -0.548  1.00  0.00     0.008 A 
ATOM      8  C   UNL     1       6.398  -0.101  -1.579  1.00  0.00     0.054 A 
ATOM      9  C   UNL     1       8.953   0.746  -1.113  1.00  0.00     0.051 A 
ATOM     10  C   UNL     1       7.465  -0.803  -2.147  1.00  0.00     0.166 A 
ATOM     11  C   UNL     1       8.753  -0.375  -1.913  1.00  0.00     0.165 A 
ATOM     12  O   UNL     1       7.533  -1.916  -2.957  1.00  0.00    -0.454 OA
ATOM     13  O   UNL     1       9.594  -1.245  -2.590  1.00  0.00    -0.454 OA
ATOM     14  C   UNL     1       8.867  -2.290  -3.190  1.00  0.00     0.468 C 
ENDBRANCH   5   6
ENDBRANCH   1   5
TORSDOF 3
ENDMDL
MODEL 2
REMARK VINA RESULT:      -7.2      2.068      2.623
REMARK SMILES CC(=O)CCc1ccc2c(c1)OCO2
REMARK SMILES IDX 4 1 2 2 1 3 3 4 5 5 6 6 7 7 11 8 8 9 10 10 9 11 12 12 14 13
REMARK SMILES IDX 13 14
REMARK H PARENT
REMARK Flexibility Score: inf
ROOT
ATOM      1  C   UNL     1       5.467  -0.023   2.009  1.00  0.00     0.080 C 
ENDROOT
BRANCH   1   2
ATOM      2  C   UNL     1       4.591   1.156   1.757  1.00  0.00     0.130 C 
ATOM      3  C   UNL     1       4.895   2.139   0.683  1.00  0.00     0.087 C 
ATOM      4  O   UNL     1       3.591   1.349   2.429  1.00  0.00    -0.300 OA
ENDBRANCH   1   2
BRANCH   1   5
ATOM      5  C   UNL     1       6.887   0.239   1.550  1.00  0.00     0.043 C 
BRANCH   5   6
ATOM      6  C   UNL     1       7.306  -0.708   0.501  1.00  0.00    -0.044 A 
ATOM      7  C   UNL     1       7.183  -0.398  -0.858  1.00  0.00     0.008 A 
ATOM      8  C   UNL     1       7.836  -1.928   0.856  1.00  0.00     0.054 A 
ATOM      9  C   UNL     1       7.594  -1.326  -1.798  1.00  0.00     0.051 A 
ATOM     10  C   UNL     1       8.250  -2.862  -0.098  1.00  0.00     0.166 A 
ATOM     11  C   UNL     1       8.128  -2.559  -1.436  1.00  0.00     0.165 A 
ATOM     12  O   UNL     1       8.798  -4.124  -0.001  1.00  0.00    -0.454 OA
ATOM     13  O   UNL     1       8.609  -3.651  -2.140  1.00  0.00    -0.454 OA
ATOM     14  C   UNL     1       9.128  -4.628  -1.270  1.00  0.00     0.468 C 
ENDBRANCH   5   6
ENDBRANCH   1   5
TORSDOF 3
ENDMDL
MODEL 3
REMARK VINA RESULT:      -7.1      1.251      1.465
REMARK SMILES CC(=O)CCc1ccc2c(c1)OCO2
REMARK SMILES IDX 4 1 2 2 1 3 3 4 5 5 6 6 7 7 11 8 8 9 10 10 9 11 12 12 14 13
REMARK SMILES IDX 13 14
REMARK H PARENT
REMARK Flexibility Score: inf
ROOT
ATOM      1  C   UNL     1       6.381   1.183   0.919  1.00  0.00     0.080 C 
ENDROOT
BRANCH   1   2
ATOM      2  C   UNL     1       5.668   0.362   1.937  1.00  0.00     0.130 C 
ATOM      3  C   UNL     1       6.273  -0.871   2.509  1.00  0.00     0.087 C 
ATOM      4  O   UNL     1       4.558   0.679   2.333  1.00  0.00    -0.300 OA
ENDBRANCH   1   2
BRANCH   1   5
ATOM      5  C   UNL     1       5.868   0.894  -0.478  1.00  0.00     0.043 C 
BRANCH   5   6
ATOM      6  C   UNL     1       6.818   0.074  -1.250  1.00  0.00    -0.044 A 
ATOM      7  C   UNL     1       7.501   0.589  -2.357  1.00  0.00     0.008 A 
ATOM      8  C   UNL     1       7.049  -1.232  -0.879  1.00  0.00     0.054 A 
ATOM      9  C   UNL     1       8.381  -0.228  -3.043  1.00  0.00     0.051 A 
ATOM     10  C   UNL     1       7.941  -2.054  -1.575  1.00  0.00     0.166 A 
ATOM     11  C   UNL     1       8.612  -1.548  -2.666  1.00  0.00     0.165 A 
ATOM     12  O   UNL     1       8.337  -3.364  -1.409  1.00  0.00    -0.454 OA
ATOM     13  O   UNL     1       9.415  -2.568  -3.152  1.00  0.00    -0.454 OA
ATOM     14  C   UNL     1       9.340  -3.709  -2.330  1.00  0.00     0.468 C 
ENDBRANCH   5   6
ENDBRANCH   1   5
TORSDOF 3
ENDMDL
MODEL 4
REMARK VINA RESULT:      -7.0      1.989      2.656
REMARK SMILES CC(=O)CCc1ccc2c(c1)OCO2
REMARK SMILES IDX 4 1 2 2 1 3 3 4 5 5 6 6 7 7 11 8 8 9 10 10 9 11 12 12 14 13
REMARK SMILES IDX 13 14
REMARK H PARENT
REMARK Flexibility Score: inf
ROOT
ATOM      1  C   UNL     1       6.534   0.834   1.079  1.00  0.00     0.080 C 
ENDROOT
BRANCH   1   2
ATOM      2  C   UNL     1       5.303   1.626   0.805  1.00  0.00     0.130 C 
ATOM      3  C   UNL     1       4.998   2.150  -0.553  1.00  0.00     0.087 C 
ATOM      4  O   UNL     1       4.503   1.869   1.695  1.00  0.00    -0.300 OA
ENDBRANCH   1   2
BRANCH   1   5
ATOM      5  C   UNL     1       7.551   0.995  -0.033  1.00  0.00     0.043 C 
BRANCH   5   6
ATOM      6  C   UNL     1       7.831  -0.286  -0.707  1.00  0.00    -0.044 A 
ATOM      7  C   UNL     1       7.867  -0.387  -2.103  1.00  0.00     0.008 A 
ATOM      8  C   UNL     1       8.066  -1.415   0.044  1.00  0.00     0.054 A 
ATOM      9  C   UNL     1       8.136  -1.615  -2.680  1.00  0.00     0.051 A 
ATOM     10  C   UNL     1       8.338  -2.654  -0.544  1.00  0.00     0.166 A 
ATOM     11  C   UNL     1       8.372  -2.755  -1.917  1.00  0.00     0.165 A 
ATOM     12  O   UNL     1       8.600  -3.904  -0.024  1.00  0.00    -0.454 OA
ATOM     13  O   UNL     1       8.659  -4.078  -2.215  1.00  0.00    -0.454 OA
ATOM     14  C   UNL     1       8.901  -4.821  -1.044  1.00  0.00     0.468 C 
ENDBRANCH   5   6
ENDBRANCH   1   5
TORSDOF 3
ENDMDL
MODEL 5
REMARK VINA RESULT:      -6.9      1.610      1.979
REMARK SMILES CC(=O)CCc1ccc2c(c1)OCO2
REMARK SMILES IDX 4 1 2 2 1 3 3 4 5 5 6 6 7 7 11 8 8 9 10 10 9 11 12 12 14 13
REMARK SMILES IDX 13 14
REMARK H PARENT
REMARK Flexibility Score: inf
ROOT
ATOM      1  C   UNL     1       5.358   1.593   0.378  1.00  0.00     0.080 C 
ENDROOT
BRANCH   1   2
ATOM      2  C   UNL     1       4.832   0.963   1.621  1.00  0.00     0.130 C 
ATOM      3  C   UNL     1       5.517  -0.193   2.260  1.00  0.00     0.087 C 
ATOM      4  O   UNL     1       3.817   1.380   2.155  1.00  0.00    -0.300 OA
ENDBRANCH   1   2
BRANCH   1   5
ATOM      5  C   UNL     1       6.856   1.403   0.256  1.00  0.00     0.043 C 
BRANCH   5   6
ATOM      6  C   UNL     1       7.193   0.205  -0.534  1.00  0.00    -0.044 A 
ATOM      7  C   UNL     1       6.971   0.152  -1.915  1.00  0.00     0.008 A 
ATOM      8  C   UNL     1       7.740  -0.892   0.090  1.00  0.00     0.054 A 
ATOM      9  C   UNL     1       7.308  -0.999  -2.605  1.00  0.00     0.051 A 
ATOM     10  C   UNL     1       8.079  -2.053  -0.611  1.00  0.00     0.166 A 
ATOM     11  C   UNL     1       7.860  -2.107  -1.970  1.00  0.00     0.165 A 
ATOM     12  O   UNL     1       8.626  -3.258  -0.225  1.00  0.00    -0.454 OA
ATOM     13  O   UNL     1       8.283  -3.357  -2.395  1.00  0.00    -0.454 OA
ATOM     14  C   UNL     1       8.860  -4.085  -1.337  1.00  0.00     0.468 C 
ENDBRANCH   5   6
ENDBRANCH   1   5
TORSDOF 3
ENDMDL
