@<TRIPOS>MOLECULE
/home/cewinharhar/GITHUB/reincatalyze/data/processed/docking_pred/2023-May-25-1902_sub9_nm5_bs15_s42_ex16_mel10_mts10000_k50_ec01_g099_lra3e-4_lrc3e-3/ae2b7ca0e57384ee3cd7889808440c06f68d274f_ligand_9.pdbqt
 14 15 0 0 0
SMALL
GASTEIGER

@<TRIPOS>ATOM
      1  C          5.3580    1.5930    0.3780 C.3     1  UNL1        0.0800
      2  C          4.8320    0.9630    1.6210 C.2     1  UNL1        0.1300
      3  C          5.5170   -0.1930    2.2600 C.3     1  UNL1        0.0870
      4  O          3.8170    1.3800    2.1550 O.2     1  UNL1       -0.3000
      5  C          6.8560    1.4030    0.2560 C.3     1  UNL1        0.0430
      6  C          7.1930    0.2050   -0.5340 C.2     1  UNL1       -0.0440
      7  C          6.9710    0.1520   -1.9150 C.2     1  UNL1        0.0080
      8  C          7.7400   -0.8920    0.0900 C.2     1  UNL1        0.0540
      9  C          7.3080   -0.9990   -2.6050 C.2     1  UNL1        0.0510
     10  C          8.0790   -2.0530   -0.6110 C.2     1  UNL1        0.1660
     11  C          7.8600   -2.1070   -1.9700 C.2     1  UNL1        0.1650
     12  O          8.6260   -3.2580   -0.2250 O.2     1  UNL1       -0.4540
     13  O          8.2830   -3.3570   -2.3950 O.2     1  UNL1       -0.4540
     14  C          8.8600   -4.0850   -1.3370 C.3     1  UNL1        0.4680
@<TRIPOS>BOND
     1     9    11    2
     2     9     7    1
     3    13    11    1
     4    13    14    1
     5    11    10    1
     6     7     6    2
     7    14    12    1
     8    10    12    1
     9    10     8    2
    10     6     8    1
    11     6     5    1
    12     5     1    1
    13     1     2    1
    14     2     4    2
    15     2     3    1
