@<TRIPOS>MOLECULE
/home/cewinharhar/GITHUB/reincatalyze/data/processed/docking_pred/2023-May-25-1902_sub9_nm5_bs15_s42_ex16_mel10_mts10000_k50_ec01_g099_lra3e-4_lrc3e-3/ae45d061dddc84380b8ad6f9293329cc64ca5b9d_ligand_9.pdbqt
 14 15 0 0 0
SMALL
GASTEIGER

@<TRIPOS>ATOM
      1  C          5.5090    1.7010    0.0790 C.3     1  UNL1        0.0800
      2  C          4.8780    1.2510    1.3510 C.2     1  UNL1        0.1300
      3  C          5.3810    0.0660    2.0960 C.3     1  UNL1        0.0870
      4  O          3.9220    1.8470    1.8210 O.2     1  UNL1       -0.3000
      5  C          6.9990    1.4220    0.0750 C.3     1  UNL1        0.0430
      6  C          7.3270    0.2190   -0.7090 C.2     1  UNL1       -0.0440
      7  C          7.1880    0.1910   -2.1020 C.2     1  UNL1        0.0080
      8  C          7.7850   -0.9100   -0.0680 C.2     1  UNL1        0.0540
      9  C          7.5130   -0.9660   -2.7860 C.2     1  UNL1        0.0510
     10  C          8.1120   -2.0770   -0.7640 C.2     1  UNL1        0.1660
     11  C          7.9750   -2.1060   -2.1340 C.2     1  UNL1        0.1650
     12  O          8.5790   -3.3110   -0.3630 O.2     1  UNL1       -0.4540
     13  O          8.3650   -3.3690   -2.5500 O.2     1  UNL1       -0.4540
     14  C          8.8420   -4.1350   -1.4690 C.3     1  UNL1        0.4680
@<TRIPOS>BOND
     1     9    11    2
     2     9     7    1
     3    13    11    1
     4    13    14    1
     5    11    10    1
     6     7     6    2
     7    14    12    1
     8    10    12    1
     9    10     8    2
    10     6     8    1
    11     6     5    1
    12     5     1    1
    13     1     2    1
    14     2     4    2
    15     2     3    1
