@<TRIPOS>MOLECULE
/home/cewinharhar/GITHUB/reincatalyze/data/processed/docking_pred/2023-May-25-1902_sub9_nm5_bs15_s42_ex16_mel10_mts10000_k50_ec01_g099_lra3e-4_lrc3e-3/ae45d061dddc84380b8ad6f9293329cc64ca5b9d_ligand_9.pdbqt
 14 15 0 0 0
SMALL
GASTEIGER

@<TRIPOS>ATOM
      1  C          8.2810    0.0950   -2.7410 C.3     1  UNL1        0.0800
      2  C          8.0700   -1.3770   -2.8340 C.2     1  UNL1        0.1300
      3  C          9.2080   -2.3190   -3.0080 C.3     1  UNL1        0.0870
      4  O          6.9490   -1.8550   -2.7700 O.2     1  UNL1       -0.3000
      5  C          8.8420    0.4860   -1.3870 C.3     1  UNL1        0.0430
      6  C          7.8290    0.3710   -0.3230 C.2     1  UNL1       -0.0440
      7  C          7.9600   -0.5590    0.7160 C.2     1  UNL1        0.0080
      8  C          6.7260    1.1930   -0.3380 C.2     1  UNL1        0.0540
      9  C          6.9790   -0.6210    1.6880 C.2     1  UNL1        0.0510
     10  C          5.7370    1.1270    0.6470 C.2     1  UNL1        0.1660
     11  C          5.8640    0.2120    1.6690 C.2     1  UNL1        0.1650
     12  O          4.5640    1.8230    0.8510 O.2     1  UNL1       -0.4540
     13  O          4.7560    0.3670    2.4870 O.2     1  UNL1       -0.4540
     14  C          3.9520    1.4390    2.0550 C.3     1  UNL1        0.4680
@<TRIPOS>BOND
     1     3     2    1
     2     2     4    2
     3     2     1    1
     4     1     5    1
     5     5     6    1
     6     8     6    2
     7     8    10    1
     8     6     7    1
     9    10    12    1
    10    10    11    2
    11     7     9    2
    12    12    14    1
    13    11     9    1
    14    11    13    1
    15    14    13    1
