MODEL 1
REMARK VINA RESULT:      -7.7      0.000      0.000
REMARK SMILES CC(=O)CCc1ccc2c(c1)OCO2
REMARK SMILES IDX 4 1 2 2 1 3 3 4 5 5 6 6 7 7 11 8 8 9 10 10 9 11 12 12 14 13
REMARK SMILES IDX 13 14
REMARK H PARENT
REMARK Flexibility Score: inf
ROOT
ATOM      1  C   UNL     1       5.546   1.908   1.281  1.00  0.00     0.080 C 
ENDROOT
BRANCH   1   2
ATOM      2  C   UNL     1       5.112   0.687   2.016  1.00  0.00     0.130 C 
ATOM      3  C   UNL     1       6.015  -0.481   2.192  1.00  0.00     0.087 C 
ATOM      4  O   UNL     1       3.993   0.612   2.499  1.00  0.00    -0.300 OA
ENDBRANCH   1   2
BRANCH   1   5
ATOM      5  C   UNL     1       5.413   1.723  -0.218  1.00  0.00     0.043 C 
BRANCH   5   6
ATOM      6  C   UNL     1       6.578   1.023  -0.788  1.00  0.00    -0.044 A 
ATOM      7  C   UNL     1       7.886   1.455  -0.540  1.00  0.00     0.008 A 
ATOM      8  C   UNL     1       6.387  -0.084  -1.582  1.00  0.00     0.054 A 
ATOM      9  C   UNL     1       8.941   0.758  -1.101  1.00  0.00     0.051 A 
ATOM     10  C   UNL     1       7.457  -0.786  -2.146  1.00  0.00     0.166 A 
ATOM     11  C   UNL     1       8.744  -0.361  -1.904  1.00  0.00     0.165 A 
ATOM     12  O   UNL     1       7.527  -1.898  -2.958  1.00  0.00    -0.454 OA
ATOM     13  O   UNL     1       9.587  -1.231  -2.578  1.00  0.00    -0.454 OA
ATOM     14  C   UNL     1       8.861  -2.273  -3.185  1.00  0.00     0.468 C 
ENDBRANCH   5   6
ENDBRANCH   1   5
TORSDOF 3
ENDMDL
MODEL 2
REMARK VINA RESULT:      -7.2      1.253      1.464
REMARK SMILES CC(=O)CCc1ccc2c(c1)OCO2
REMARK SMILES IDX 4 1 2 2 1 3 3 4 5 5 6 6 7 7 11 8 8 9 10 10 9 11 12 12 14 13
REMARK SMILES IDX 13 14
REMARK H PARENT
REMARK Flexibility Score: inf
ROOT
ATOM      1  C   UNL     1       6.388   1.208   0.930  1.00  0.00     0.080 C 
ENDROOT
BRANCH   1   2
ATOM      2  C   UNL     1       5.664   0.373   1.928  1.00  0.00     0.130 C 
ATOM      3  C   UNL     1       6.266  -0.863   2.496  1.00  0.00     0.087 C 
ATOM      4  O   UNL     1       4.547   0.682   2.312  1.00  0.00    -0.300 OA
ENDBRANCH   1   2
BRANCH   1   5
ATOM      5  C   UNL     1       5.884   0.946  -0.476  1.00  0.00     0.043 C 
BRANCH   5   6
ATOM      6  C   UNL     1       6.823   0.112  -1.247  1.00  0.00    -0.044 A 
ATOM      7  C   UNL     1       7.508   0.616  -2.358  1.00  0.00     0.008 A 
ATOM      8  C   UNL     1       7.041  -1.194  -0.873  1.00  0.00     0.054 A 
ATOM      9  C   UNL     1       8.378  -0.213  -3.043  1.00  0.00     0.051 A 
ATOM     10  C   UNL     1       7.922  -2.028  -1.568  1.00  0.00     0.166 A 
ATOM     11  C   UNL     1       8.596  -1.533  -2.662  1.00  0.00     0.165 A 
ATOM     12  O   UNL     1       8.304  -3.342  -1.398  1.00  0.00    -0.454 OA
ATOM     13  O   UNL     1       9.387  -2.564  -3.145  1.00  0.00    -0.454 OA
ATOM     14  C   UNL     1       9.301  -3.700  -2.320  1.00  0.00     0.468 C 
ENDBRANCH   5   6
ENDBRANCH   1   5
TORSDOF 3
ENDMDL
MODEL 3
REMARK VINA RESULT:      -7.0      1.620      2.004
REMARK SMILES CC(=O)CCc1ccc2c(c1)OCO2
REMARK SMILES IDX 4 1 2 2 1 3 3 4 5 5 6 6 7 7 11 8 8 9 10 10 9 11 12 12 14 13
REMARK SMILES IDX 13 14
REMARK H PARENT
REMARK Flexibility Score: inf
ROOT
ATOM      1  C   UNL     1       5.509   1.701   0.079  1.00  0.00     0.080 C 
ENDROOT
BRANCH   1   2
ATOM      2  C   UNL     1       4.878   1.251   1.351  1.00  0.00     0.130 C 
ATOM      3  C   UNL     1       5.381   0.066   2.096  1.00  0.00     0.087 C 
ATOM      4  O   UNL     1       3.922   1.847   1.821  1.00  0.00    -0.300 OA
ENDBRANCH   1   2
BRANCH   1   5
ATOM      5  C   UNL     1       6.999   1.422   0.075  1.00  0.00     0.043 C 
BRANCH   5   6
ATOM      6  C   UNL     1       7.327   0.219  -0.709  1.00  0.00    -0.044 A 
ATOM      7  C   UNL     1       7.188   0.191  -2.102  1.00  0.00     0.008 A 
ATOM      8  C   UNL     1       7.785  -0.910  -0.068  1.00  0.00     0.054 A 
ATOM      9  C   UNL     1       7.513  -0.966  -2.786  1.00  0.00     0.051 A 
ATOM     10  C   UNL     1       8.112  -2.077  -0.764  1.00  0.00     0.166 A 
ATOM     11  C   UNL     1       7.975  -2.106  -2.134  1.00  0.00     0.165 A 
ATOM     12  O   UNL     1       8.579  -3.311  -0.363  1.00  0.00    -0.454 OA
ATOM     13  O   UNL     1       8.365  -3.369  -2.550  1.00  0.00    -0.454 OA
ATOM     14  C   UNL     1       8.842  -4.135  -1.469  1.00  0.00     0.468 C 
ENDBRANCH   5   6
ENDBRANCH   1   5
TORSDOF 3
ENDMDL
MODEL 4
REMARK VINA RESULT:      -6.8      1.202      5.181
REMARK SMILES CC(=O)CCc1ccc2c(c1)OCO2
REMARK SMILES IDX 4 1 2 2 1 3 3 4 5 5 6 6 7 7 11 8 8 9 10 10 9 11 12 12 14 13
REMARK SMILES IDX 13 14
REMARK H PARENT
REMARK Flexibility Score: inf
ROOT
ATOM      1  C   UNL     1       8.281   0.095  -2.741  1.00  0.00     0.080 C 
ENDROOT
BRANCH   1   2
ATOM      2  C   UNL     1       8.070  -1.377  -2.834  1.00  0.00     0.130 C 
ATOM      3  C   UNL     1       9.208  -2.319  -3.008  1.00  0.00     0.087 C 
ATOM      4  O   UNL     1       6.949  -1.855  -2.770  1.00  0.00    -0.300 OA
ENDBRANCH   1   2
BRANCH   1   5
ATOM      5  C   UNL     1       8.842   0.486  -1.387  1.00  0.00     0.043 C 
BRANCH   5   6
ATOM      6  C   UNL     1       7.829   0.371  -0.323  1.00  0.00    -0.044 A 
ATOM      7  C   UNL     1       7.960  -0.559   0.716  1.00  0.00     0.008 A 
ATOM      8  C   UNL     1       6.726   1.193  -0.338  1.00  0.00     0.054 A 
ATOM      9  C   UNL     1       6.979  -0.621   1.688  1.00  0.00     0.051 A 
ATOM     10  C   UNL     1       5.737   1.127   0.647  1.00  0.00     0.166 A 
ATOM     11  C   UNL     1       5.864   0.212   1.669  1.00  0.00     0.165 A 
ATOM     12  O   UNL     1       4.564   1.823   0.851  1.00  0.00    -0.454 OA
ATOM     13  O   UNL     1       4.756   0.367   2.487  1.00  0.00    -0.454 OA
ATOM     14  C   UNL     1       3.952   1.439   2.055  1.00  0.00     0.468 C 
ENDBRANCH   5   6
ENDBRANCH   1   5
TORSDOF 3
ENDMDL
MODEL 5
REMARK VINA RESULT:      -6.7      1.292      1.775
REMARK SMILES CC(=O)CCc1ccc2c(c1)OCO2
REMARK SMILES IDX 4 1 2 2 1 3 3 4 5 5 6 6 7 7 11 8 8 9 10 10 9 11 12 12 14 13
REMARK SMILES IDX 13 14
REMARK H PARENT
REMARK Flexibility Score: inf
ROOT
ATOM      1  C   UNL     1       5.415  -0.026   1.944  1.00  0.00     0.080 C 
ENDROOT
BRANCH   1   2
ATOM      2  C   UNL     1       4.572   1.176   1.690  1.00  0.00     0.130 C 
ATOM      3  C   UNL     1       4.904   2.148   0.614  1.00  0.00     0.087 C 
ATOM      4  O   UNL     1       3.579   1.399   2.363  1.00  0.00    -0.300 OA
ENDBRANCH   1   2
BRANCH   1   5
ATOM      5  C   UNL     1       6.891   0.308   1.857  1.00  0.00     0.043 C 
BRANCH   5   6
ATOM      6  C   UNL     1       7.462  -0.079   0.555  1.00  0.00    -0.044 A 
ATOM      7  C   UNL     1       7.926   0.878  -0.355  1.00  0.00     0.008 A 
ATOM      8  C   UNL     1       7.549  -1.410   0.216  1.00  0.00     0.054 A 
ATOM      9  C   UNL     1       8.454   0.456  -1.562  1.00  0.00     0.051 A 
ATOM     10  C   UNL     1       8.084  -1.832  -1.005  1.00  0.00     0.166 A 
ATOM     11  C   UNL     1       8.540  -0.891  -1.901  1.00  0.00     0.165 A 
ATOM     12  O   UNL     1       8.276  -3.076  -1.567  1.00  0.00    -0.454 OA
ATOM     13  O   UNL     1       9.008  -1.585  -3.006  1.00  0.00    -0.454 OA
ATOM     14  C   UNL     1       8.943  -2.975  -2.799  1.00  0.00     0.468 C 
ENDBRANCH   5   6
ENDBRANCH   1   5
TORSDOF 3
ENDMDL
