@<TRIPOS>MOLECULE
/home/cewinharhar/GITHUB/reincatalyze/data/processed/docking_pred/2023-May-25-1902_sub9_nm5_bs15_s42_ex16_mel10_mts10000_k50_ec01_g099_lra3e-4_lrc3e-3/ae45d061dddc84380b8ad6f9293329cc64ca5b9d_ligand_9.pdbqt
 14 15 0 0 0
SMALL
GASTEIGER

@<TRIPOS>ATOM
      1  C          5.4150   -0.0260    1.9440 C.3     1  UNL1        0.0800
      2  C          4.5720    1.1760    1.6900 C.2     1  UNL1        0.1300
      3  C          4.9040    2.1480    0.6140 C.3     1  UNL1        0.0870
      4  O          3.5790    1.3990    2.3630 O.2     1  UNL1       -0.3000
      5  C          6.8910    0.3080    1.8570 C.3     1  UNL1        0.0430
      6  C          7.4620   -0.0790    0.5550 C.2     1  UNL1       -0.0440
      7  C          7.9260    0.8780   -0.3550 C.2     1  UNL1        0.0080
      8  C          7.5490   -1.4100    0.2160 C.2     1  UNL1        0.0540
      9  C          8.4540    0.4560   -1.5620 C.2     1  UNL1        0.0510
     10  C          8.0840   -1.8320   -1.0050 C.2     1  UNL1        0.1660
     11  C          8.5400   -0.8910   -1.9010 C.2     1  UNL1        0.1650
     12  O          8.2760   -3.0760   -1.5670 O.2     1  UNL1       -0.4540
     13  O          9.0080   -1.5850   -3.0060 O.2     1  UNL1       -0.4540
     14  C          8.9430   -2.9750   -2.7990 C.3     1  UNL1        0.4680
@<TRIPOS>BOND
     1    13    14    1
     2    13    11    1
     3    14    12    1
     4    11     9    2
     5    11    10    1
     6    12    10    1
     7     9     7    1
     8    10     8    2
     9     7     6    2
    10     8     6    1
    11     6     5    1
    12     3     2    1
    13     2     1    1
    14     2     4    2
    15     5     1    1
