MODEL 1
REMARK VINA RESULT:      -7.6      0.000      0.000
REMARK SMILES CC(=O)CCc1ccc2c(c1)OCO2
REMARK SMILES IDX 4 1 2 2 1 3 3 4 5 5 6 6 7 7 11 8 8 9 10 10 9 11 12 12 14 13
REMARK SMILES IDX 13 14
REMARK H PARENT
REMARK Flexibility Score: inf
ROOT
ATOM      1  C   UNL     1       5.550   1.936   1.269  1.00  0.00     0.080 C 
ENDROOT
BRANCH   1   2
ATOM      2  C   UNL     1       5.122   0.718   2.012  1.00  0.00     0.130 C 
ATOM      3  C   UNL     1       6.034  -0.442   2.201  1.00  0.00     0.087 C 
ATOM      4  O   UNL     1       4.002   0.637   2.490  1.00  0.00    -0.300 OA
ENDBRANCH   1   2
BRANCH   1   5
ATOM      5  C   UNL     1       5.418   1.743  -0.228  1.00  0.00     0.043 C 
BRANCH   5   6
ATOM      6  C   UNL     1       6.581   1.035  -0.793  1.00  0.00    -0.044 A 
ATOM      7  C   UNL     1       7.891   1.462  -0.544  1.00  0.00     0.008 A 
ATOM      8  C   UNL     1       6.387  -0.076  -1.582  1.00  0.00     0.054 A 
ATOM      9  C   UNL     1       8.943   0.758  -1.100  1.00  0.00     0.051 A 
ATOM     10  C   UNL     1       7.454  -0.785  -2.141  1.00  0.00     0.166 A 
ATOM     11  C   UNL     1       8.743  -0.364  -1.898  1.00  0.00     0.165 A 
ATOM     12  O   UNL     1       7.521  -1.901  -2.947  1.00  0.00    -0.454 OA
ATOM     13  O   UNL     1       9.583  -1.241  -2.567  1.00  0.00    -0.454 OA
ATOM     14  C   UNL     1       8.855  -2.283  -3.170  1.00  0.00     0.468 C 
ENDBRANCH   5   6
ENDBRANCH   1   5
TORSDOF 3
ENDMDL
MODEL 2
REMARK VINA RESULT:      -7.5      1.940      2.406
REMARK SMILES CC(=O)CCc1ccc2c(c1)OCO2
REMARK SMILES IDX 4 1 2 2 1 3 3 4 5 5 6 6 7 7 11 8 8 9 10 10 9 11 12 12 14 13
REMARK SMILES IDX 13 14
REMARK H PARENT
REMARK Flexibility Score: inf
ROOT
ATOM      1  C   UNL     1       5.750   1.292  -0.306  1.00  0.00     0.080 C 
ENDROOT
BRANCH   1   2
ATOM      2  C   UNL     1       5.186   1.228   1.072  1.00  0.00     0.130 C 
ATOM      3  C   UNL     1       5.401   0.046   1.949  1.00  0.00     0.087 C 
ATOM      4  O   UNL     1       4.526   2.150   1.522  1.00  0.00    -0.300 OA
ENDBRANCH   1   2
BRANCH   1   5
ATOM      5  C   UNL     1       7.251   1.087  -0.296  1.00  0.00     0.043 C 
BRANCH   5   6
ATOM      6  C   UNL     1       7.630  -0.210  -0.885  1.00  0.00    -0.044 A 
ATOM      7  C   UNL     1       7.726  -0.386  -2.270  1.00  0.00     0.008 A 
ATOM      8  C   UNL     1       7.900  -1.280  -0.062  1.00  0.00     0.054 A 
ATOM      9  C   UNL     1       8.086  -1.626  -2.766  1.00  0.00     0.051 A 
ATOM     10  C   UNL     1       8.264  -2.531  -0.568  1.00  0.00     0.166 A 
ATOM     11  C   UNL     1       8.358  -2.706  -1.931  1.00  0.00     0.165 A 
ATOM     12  O   UNL     1       8.577  -3.733   0.031  1.00  0.00    -0.454 OA
ATOM     13  O   UNL     1       8.731  -4.024  -2.142  1.00  0.00    -0.454 OA
ATOM     14  C   UNL     1       8.969  -4.686  -0.923  1.00  0.00     0.468 C 
ENDBRANCH   5   6
ENDBRANCH   1   5
TORSDOF 3
ENDMDL
MODEL 3
REMARK VINA RESULT:      -7.2      2.043      2.596
REMARK SMILES CC(=O)CCc1ccc2c(c1)OCO2
REMARK SMILES IDX 4 1 2 2 1 3 3 4 5 5 6 6 7 7 11 8 8 9 10 10 9 11 12 12 14 13
REMARK SMILES IDX 13 14
REMARK H PARENT
REMARK Flexibility Score: inf
ROOT
ATOM      1  C   UNL     1       5.495   0.013   2.014  1.00  0.00     0.080 C 
ENDROOT
BRANCH   1   2
ATOM      2  C   UNL     1       4.591   1.167   1.750  1.00  0.00     0.130 C 
ATOM      3  C   UNL     1       4.874   2.150   0.671  1.00  0.00     0.087 C 
ATOM      4  O   UNL     1       3.584   1.340   2.418  1.00  0.00    -0.300 OA
ENDBRANCH   1   2
BRANCH   1   5
ATOM      5  C   UNL     1       6.901   0.290   1.518  1.00  0.00     0.043 C 
BRANCH   5   6
ATOM      6  C   UNL     1       7.308  -0.660   0.469  1.00  0.00    -0.044 A 
ATOM      7  C   UNL     1       7.183  -0.350  -0.890  1.00  0.00     0.008 A 
ATOM      8  C   UNL     1       7.827  -1.885   0.822  1.00  0.00     0.054 A 
ATOM      9  C   UNL     1       7.582  -1.282  -1.831  1.00  0.00     0.051 A 
ATOM     10  C   UNL     1       8.230  -2.823  -0.133  1.00  0.00     0.166 A 
ATOM     11  C   UNL     1       8.106  -2.519  -1.470  1.00  0.00     0.165 A 
ATOM     12  O   UNL     1       8.768  -4.090  -0.038  1.00  0.00    -0.454 OA
ATOM     13  O   UNL     1       8.576  -3.616  -2.176  1.00  0.00    -0.454 OA
ATOM     14  C   UNL     1       9.089  -4.598  -1.307  1.00  0.00     0.468 C 
ENDBRANCH   5   6
ENDBRANCH   1   5
TORSDOF 3
ENDMDL
MODEL 4
REMARK VINA RESULT:      -7.1      1.250      1.463
REMARK SMILES CC(=O)CCc1ccc2c(c1)OCO2
REMARK SMILES IDX 4 1 2 2 1 3 3 4 5 5 6 6 7 7 11 8 8 9 10 10 9 11 12 12 14 13
REMARK SMILES IDX 13 14
REMARK H PARENT
REMARK Flexibility Score: inf
ROOT
ATOM      1  C   UNL     1       6.384   1.224   0.918  1.00  0.00     0.080 C 
ENDROOT
BRANCH   1   2
ATOM      2  C   UNL     1       5.666   0.406   1.936  1.00  0.00     0.130 C 
ATOM      3  C   UNL     1       6.277  -0.813   2.530  1.00  0.00     0.087 C 
ATOM      4  O   UNL     1       4.548   0.716   2.313  1.00  0.00    -0.300 OA
ENDBRANCH   1   2
BRANCH   1   5
ATOM      5  C   UNL     1       5.873   0.935  -0.480  1.00  0.00     0.043 C 
BRANCH   5   6
ATOM      6  C   UNL     1       6.820   0.107  -1.247  1.00  0.00    -0.044 A 
ATOM      7  C   UNL     1       7.506   0.614  -2.356  1.00  0.00     0.008 A 
ATOM      8  C   UNL     1       7.044  -1.198  -0.872  1.00  0.00     0.054 A 
ATOM      9  C   UNL     1       8.383  -0.210  -3.038  1.00  0.00     0.051 A 
ATOM     10  C   UNL     1       7.932  -2.028  -1.563  1.00  0.00     0.166 A 
ATOM     11  C   UNL     1       8.607  -1.530  -2.656  1.00  0.00     0.165 A 
ATOM     12  O   UNL     1       8.321  -3.339  -1.391  1.00  0.00    -0.454 OA
ATOM     13  O   UNL     1       9.405  -2.556  -3.136  1.00  0.00    -0.454 OA
ATOM     14  C   UNL     1       9.323  -3.693  -2.310  1.00  0.00     0.468 C 
ENDBRANCH   5   6
ENDBRANCH   1   5
TORSDOF 3
ENDMDL
MODEL 5
REMARK VINA RESULT:      -7.1      1.950      2.495
REMARK SMILES CC(=O)CCc1ccc2c(c1)OCO2
REMARK SMILES IDX 4 1 2 2 1 3 3 4 5 5 6 6 7 7 11 8 8 9 10 10 9 11 12 12 14 13
REMARK SMILES IDX 13 14
REMARK H PARENT
REMARK Flexibility Score: inf
ROOT
ATOM      1  C   UNL     1       6.827   0.915   1.317  1.00  0.00     0.080 C 
ENDROOT
BRANCH   1   2
ATOM      2  C   UNL     1       5.364   1.174   1.431  1.00  0.00     0.130 C 
ATOM      3  C   UNL     1       4.673   2.149   0.546  1.00  0.00     0.087 C 
ATOM      4  O   UNL     1       4.687   0.590   2.261  1.00  0.00    -0.300 OA
ENDBRANCH   1   2
BRANCH   1   5
ATOM      5  C   UNL     1       7.310   1.103  -0.107  1.00  0.00     0.043 C 
BRANCH   5   6
ATOM      6  C   UNL     1       7.642  -0.183  -0.746  1.00  0.00    -0.044 A 
ATOM      7  C   UNL     1       7.647  -0.330  -2.138  1.00  0.00     0.008 A 
ATOM      8  C   UNL     1       7.958  -1.271   0.035  1.00  0.00     0.054 A 
ATOM      9  C   UNL     1       7.967  -1.561  -2.681  1.00  0.00     0.051 A 
ATOM     10  C   UNL     1       8.282  -2.513  -0.519  1.00  0.00     0.166 A 
ATOM     11  C   UNL     1       8.286  -2.659  -1.888  1.00  0.00     0.165 A 
ATOM     12  O   UNL     1       8.627  -3.728   0.035  1.00  0.00    -0.454 OA
ATOM     13  O   UNL     1       8.638  -3.974  -2.150  1.00  0.00    -0.454 OA
ATOM     14  C   UNL     1       8.951  -4.662  -0.963  1.00  0.00     0.468 C 
ENDBRANCH   5   6
ENDBRANCH   1   5
TORSDOF 3
ENDMDL
