@<TRIPOS>MOLECULE
/home/cewinharhar/GITHUB/reincatalyze/data/processed/docking_pred/2023-May-25-1902_sub9_nm5_bs15_s42_ex16_mel10_mts10000_k50_ec01_g099_lra3e-4_lrc3e-3/af0dd28332db5651a88784e76b435690c0a42449_ligand_9.pdbqt
 14 15 0 0 0
SMALL
GASTEIGER

@<TRIPOS>ATOM
      1  C          8.7860   -4.7920   -0.3520 C.3     1  UNL1        0.0800
      2  C          9.4910   -4.6910   -1.6600 C.2     1  UNL1        0.1300
      3  C         10.3030   -5.8140   -2.1990 C.3     1  UNL1        0.0870
      4  O          9.4210   -3.6750   -2.3320 O.2     1  UNL1       -0.3000
      5  C          9.5420   -4.0600    0.7390 C.3     1  UNL1        0.0430
      6  C          8.8810   -2.7960    1.1090 C.2     1  UNL1       -0.0440
      7  C          9.5990   -1.6020    1.2350 C.2     1  UNL1        0.0080
      8  C          7.5230   -2.7780    1.3350 C.2     1  UNL1        0.0540
      9  C          8.9250   -0.4460    1.5840 C.2     1  UNL1        0.0510
     10  C          6.8450   -1.6070    1.6870 C.2     1  UNL1        0.1660
     11  C          7.5520   -0.4310    1.8130 C.2     1  UNL1        0.1650
     12  O          5.5220   -1.3330    1.9610 O.2     1  UNL1       -0.4540
     13  O          6.6390    0.5500    2.1640 O.2     1  UNL1       -0.4540
     14  C          5.3260    0.0410    2.1800 C.3     1  UNL1        0.4680
@<TRIPOS>BOND
     1     4     2    2
     2     3     2    1
     3     2     1    1
     4     1     5    1
     5     5     6    1
     6     6     7    2
     7     6     8    1
     8     7     9    1
     9     8    10    2
    10     9    11    2
    11    10    11    1
    12    10    12    1
    13    11    13    1
    14    12    14    1
    15    13    14    1
