@<TRIPOS>MOLECULE
/home/cewinharhar/GITHUB/reincatalyze/data/processed/docking_pred/2023-May-25-1902_sub9_nm5_bs15_s42_ex16_mel10_mts10000_k50_ec01_g099_lra3e-4_lrc3e-3/af0dd28332db5651a88784e76b435690c0a42449_ligand_9.pdbqt
 14 15 0 0 0
SMALL
GASTEIGER

@<TRIPOS>ATOM
      1  C          9.1000   -2.5840    0.8660 C.3     1  UNL1        0.0800
      2  C          9.5180   -3.9890    0.6000 C.2     1  UNL1        0.1300
      3  C          9.0560   -4.7260   -0.6060 C.3     1  UNL1        0.0870
      4  O         10.2580   -4.5790    1.3710 O.2     1  UNL1       -0.3000
      5  C          8.0190   -2.5240    1.9270 C.3     1  UNL1        0.0430
      6  C          7.2920   -1.2420    1.8940 C.2     1  UNL1       -0.0440
      7  C          7.9520   -0.0310    1.6570 C.2     1  UNL1        0.0080
      8  C          5.9310   -1.2250    2.0970 C.2     1  UNL1        0.0540
      9  C          7.2170    1.1410    1.6360 C.2     1  UNL1        0.0510
     10  C          5.1920   -0.0380    2.0740 C.2     1  UNL1        0.1660
     11  C          5.8410    1.1540    1.8430 C.2     1  UNL1        0.1650
     12  O          3.8520    0.2380    2.2460 O.2     1  UNL1       -0.4540
     13  O          4.8750    2.1490    1.8760 O.2     1  UNL1       -0.4540
     14  C          3.5880    1.6020    2.0380 C.3     1  UNL1        0.4680
@<TRIPOS>BOND
     1     3     2    1
     2     2     1    1
     3     2     4    2
     4     1     5    1
     5     9     7    1
     6     9    11    2
     7     7     6    2
     8    11    13    1
     9    11    10    1
    10    13    14    1
    11     6     5    1
    12     6     8    1
    13    14    12    1
    14    10     8    2
    15    10    12    1
