MODEL 1
REMARK VINA RESULT:       1.3      0.000      0.000
REMARK SMILES CC(=O)CCc1ccc2c(c1)OCO2
REMARK SMILES IDX 4 1 2 2 1 3 3 4 5 5 6 6 7 7 11 8 8 9 10 10 9 11 12 12 14 13
REMARK SMILES IDX 13 14
REMARK H PARENT
REMARK Flexibility Score: inf
ROOT
ATOM      1  C   UNL     1       8.786  -4.792  -0.352  1.00  0.00     0.080 C 
ENDROOT
BRANCH   1   2
ATOM      2  C   UNL     1       9.491  -4.691  -1.660  1.00  0.00     0.130 C 
ATOM      3  C   UNL     1      10.303  -5.814  -2.199  1.00  0.00     0.087 C 
ATOM      4  O   UNL     1       9.421  -3.675  -2.332  1.00  0.00    -0.300 OA
ENDBRANCH   1   2
BRANCH   1   5
ATOM      5  C   UNL     1       9.542  -4.060   0.739  1.00  0.00     0.043 C 
BRANCH   5   6
ATOM      6  C   UNL     1       8.881  -2.796   1.109  1.00  0.00    -0.044 A 
ATOM      7  C   UNL     1       9.599  -1.602   1.235  1.00  0.00     0.008 A 
ATOM      8  C   UNL     1       7.523  -2.778   1.335  1.00  0.00     0.054 A 
ATOM      9  C   UNL     1       8.925  -0.446   1.584  1.00  0.00     0.051 A 
ATOM     10  C   UNL     1       6.845  -1.607   1.687  1.00  0.00     0.166 A 
ATOM     11  C   UNL     1       7.552  -0.431   1.813  1.00  0.00     0.165 A 
ATOM     12  O   UNL     1       5.522  -1.333   1.961  1.00  0.00    -0.454 OA
ATOM     13  O   UNL     1       6.639   0.550   2.164  1.00  0.00    -0.454 OA
ATOM     14  C   UNL     1       5.326   0.041   2.180  1.00  0.00     0.468 C 
ENDBRANCH   5   6
ENDBRANCH   1   5
TORSDOF 3
ENDMDL
MODEL 2
REMARK VINA RESULT:       1.3      2.152      5.780
REMARK SMILES CC(=O)CCc1ccc2c(c1)OCO2
REMARK SMILES IDX 4 1 2 2 1 3 3 4 5 5 6 6 7 7 11 8 8 9 10 10 9 11 12 12 14 13
REMARK SMILES IDX 13 14
REMARK H PARENT
REMARK Flexibility Score: inf
ROOT
ATOM      1  C   UNL     1       6.556   2.150   1.588  1.00  0.00     0.080 C 
ENDROOT
BRANCH   1   2
ATOM      2  C   UNL     1       5.200   2.075   0.975  1.00  0.00     0.130 C 
ATOM      3  C   UNL     1       5.004   2.143  -0.497  1.00  0.00     0.087 C 
ATOM      4  O   UNL     1       4.204   1.954   1.670  1.00  0.00    -0.300 OA
ENDBRANCH   1   2
BRANCH   1   5
ATOM      5  C   UNL     1       6.700   1.161   2.728  1.00  0.00     0.043 C 
BRANCH   5   6
ATOM      6  C   UNL     1       7.023  -0.192   2.240  1.00  0.00    -0.044 A 
ATOM      7  C   UNL     1       6.028  -1.155   2.038  1.00  0.00     0.008 A 
ATOM      8  C   UNL     1       8.331  -0.526   1.972  1.00  0.00     0.054 A 
ATOM      9  C   UNL     1       6.390  -2.408   1.578  1.00  0.00     0.051 A 
ATOM     10  C   UNL     1       8.692  -1.794   1.506  1.00  0.00     0.166 A 
ATOM     11  C   UNL     1       7.713  -2.743   1.308  1.00  0.00     0.165 A 
ATOM     12  O   UNL     1       9.902  -2.363   1.172  1.00  0.00    -0.454 OA
ATOM     13  O   UNL     1       8.350  -3.886   0.851  1.00  0.00    -0.454 OA
ATOM     14  C   UNL     1       9.727  -3.660   0.663  1.00  0.00     0.468 C 
ENDBRANCH   5   6
ENDBRANCH   1   5
TORSDOF 3
ENDMDL
MODEL 3
REMARK VINA RESULT:       1.4      3.062      7.160
REMARK SMILES CC(=O)CCc1ccc2c(c1)OCO2
REMARK SMILES IDX 4 1 2 2 1 3 3 4 5 5 6 6 7 7 11 8 8 9 10 10 9 11 12 12 14 13
REMARK SMILES IDX 13 14
REMARK H PARENT
REMARK Flexibility Score: inf
ROOT
ATOM      1  C   UNL     1       1.955  -0.068   3.084  1.00  0.00     0.080 C 
ENDROOT
BRANCH   1   2
ATOM      2  C   UNL     1       0.478   0.123   3.102  1.00  0.00     0.130 C 
ATOM      3  C   UNL     1      -0.172   1.254   2.387  1.00  0.00     0.087 C 
ATOM      4  O   UNL     1      -0.246  -0.649   3.709  1.00  0.00    -0.300 OA
ENDBRANCH   1   2
BRANCH   1   5
ATOM      5  C   UNL     1       2.649   1.076   2.372  1.00  0.00     0.043 C 
BRANCH   5   6
ATOM      6  C   UNL     1       4.076   0.789   2.139  1.00  0.00    -0.044 A 
ATOM      7  C   UNL     1       4.989   1.807   1.840  1.00  0.00     0.008 A 
ATOM      8  C   UNL     1       4.533  -0.507   2.216  1.00  0.00     0.054 A 
ATOM      9  C   UNL     1       6.316   1.478   1.632  1.00  0.00     0.051 A 
ATOM     10  C   UNL     1       5.876  -0.834   2.006  1.00  0.00     0.166 A 
ATOM     11  C   UNL     1       6.775   0.166   1.711  1.00  0.00     0.165 A 
ATOM     12  O   UNL     1       6.566  -2.028   2.025  1.00  0.00    -0.454 OA
ATOM     13  O   UNL     1       8.012  -0.439   1.555  1.00  0.00    -0.454 OA
ATOM     14  C   UNL     1       7.942  -1.817   1.835  1.00  0.00     0.468 C 
ENDBRANCH   5   6
ENDBRANCH   1   5
TORSDOF 3
ENDMDL
MODEL 4
REMARK VINA RESULT:       1.8      1.667      2.506
REMARK SMILES CC(=O)CCc1ccc2c(c1)OCO2
REMARK SMILES IDX 4 1 2 2 1 3 3 4 5 5 6 6 7 7 11 8 8 9 10 10 9 11 12 12 14 13
REMARK SMILES IDX 13 14
REMARK H PARENT
REMARK Flexibility Score: inf
ROOT
ATOM      1  C   UNL     1       9.100  -2.584   0.866  1.00  0.00     0.080 C 
ENDROOT
BRANCH   1   2
ATOM      2  C   UNL     1       9.518  -3.989   0.600  1.00  0.00     0.130 C 
ATOM      3  C   UNL     1       9.056  -4.726  -0.606  1.00  0.00     0.087 C 
ATOM      4  O   UNL     1      10.258  -4.579   1.371  1.00  0.00    -0.300 OA
ENDBRANCH   1   2
BRANCH   1   5
ATOM      5  C   UNL     1       8.019  -2.524   1.927  1.00  0.00     0.043 C 
BRANCH   5   6
ATOM      6  C   UNL     1       7.292  -1.242   1.894  1.00  0.00    -0.044 A 
ATOM      7  C   UNL     1       7.952  -0.031   1.657  1.00  0.00     0.008 A 
ATOM      8  C   UNL     1       5.931  -1.225   2.097  1.00  0.00     0.054 A 
ATOM      9  C   UNL     1       7.217   1.141   1.636  1.00  0.00     0.051 A 
ATOM     10  C   UNL     1       5.192  -0.038   2.074  1.00  0.00     0.166 A 
ATOM     11  C   UNL     1       5.841   1.154   1.843  1.00  0.00     0.165 A 
ATOM     12  O   UNL     1       3.852   0.238   2.246  1.00  0.00    -0.454 OA
ATOM     13  O   UNL     1       4.875   2.149   1.876  1.00  0.00    -0.454 OA
ATOM     14  C   UNL     1       3.588   1.602   2.038  1.00  0.00     0.468 C 
ENDBRANCH   5   6
ENDBRANCH   1   5
TORSDOF 3
ENDMDL
MODEL 5
REMARK VINA RESULT:       2.4      1.595      5.391
REMARK SMILES CC(=O)CCc1ccc2c(c1)OCO2
REMARK SMILES IDX 4 1 2 2 1 3 3 4 5 5 6 6 7 7 11 8 8 9 10 10 9 11 12 12 14 13
REMARK SMILES IDX 13 14
REMARK H PARENT
REMARK Flexibility Score: inf
ROOT
ATOM      1  C   UNL     1       5.126   0.190   1.775  1.00  0.00     0.080 C 
ENDROOT
BRANCH   1   2
ATOM      2  C   UNL     1       5.580   1.515   1.266  1.00  0.00     0.130 C 
ATOM      3  C   UNL     1       5.006   2.116   0.033  1.00  0.00     0.087 C 
ATOM      4  O   UNL     1       6.443   2.148   1.852  1.00  0.00    -0.300 OA
ENDBRANCH   1   2
BRANCH   1   5
ATOM      5  C   UNL     1       6.112  -0.383   2.774  1.00  0.00     0.043 C 
BRANCH   5   6
ATOM      6  C   UNL     1       7.191  -1.134   2.108  1.00  0.00    -0.044 A 
ATOM      7  C   UNL     1       8.487  -0.618   2.004  1.00  0.00     0.008 A 
ATOM      8  C   UNL     1       6.929  -2.375   1.574  1.00  0.00     0.054 A 
ATOM      9  C   UNL     1       9.460  -1.368   1.369  1.00  0.00     0.051 A 
ATOM     10  C   UNL     1       7.915  -3.130   0.933  1.00  0.00     0.166 A 
ATOM     11  C   UNL     1       9.191  -2.622   0.829  1.00  0.00     0.165 A 
ATOM     12  O   UNL     1       7.906  -4.370   0.329  1.00  0.00    -0.454 OA
ATOM     13  O   UNL     1       9.947  -3.571   0.158  1.00  0.00    -0.454 OA
ATOM     14  C   UNL     1       9.194  -4.733  -0.098  1.00  0.00     0.468 C 
ENDBRANCH   5   6
ENDBRANCH   1   5
TORSDOF 3
ENDMDL
