@<TRIPOS>MOLECULE
/home/cewinharhar/GITHUB/reincatalyze/data/processed/docking_pred/2023-May-25-1902_sub9_nm5_bs15_s42_ex16_mel10_mts10000_k50_ec01_g099_lra3e-4_lrc3e-3/af0dd28332db5651a88784e76b435690c0a42449_ligand_9.pdbqt
 14 15 0 0 0
SMALL
GASTEIGER

@<TRIPOS>ATOM
      1  C          6.5560    2.1500    1.5880 C.3     1  UNL1        0.0800
      2  C          5.2000    2.0750    0.9750 C.2     1  UNL1        0.1300
      3  C          5.0040    2.1430   -0.4970 C.3     1  UNL1        0.0870
      4  O          4.2040    1.9540    1.6700 O.2     1  UNL1       -0.3000
      5  C          6.7000    1.1610    2.7280 C.3     1  UNL1        0.0430
      6  C          7.0230   -0.1920    2.2400 C.2     1  UNL1       -0.0440
      7  C          6.0280   -1.1550    2.0380 C.2     1  UNL1        0.0080
      8  C          8.3310   -0.5260    1.9720 C.2     1  UNL1        0.0540
      9  C          6.3900   -2.4080    1.5780 C.2     1  UNL1        0.0510
     10  C          8.6920   -1.7940    1.5060 C.2     1  UNL1        0.1660
     11  C          7.7130   -2.7430    1.3080 C.2     1  UNL1        0.1650
     12  O          9.9020   -2.3630    1.1720 O.2     1  UNL1       -0.4540
     13  O          8.3500   -3.8860    0.8510 O.2     1  UNL1       -0.4540
     14  C          9.7270   -3.6600    0.6630 C.3     1  UNL1        0.4680
@<TRIPOS>BOND
     1     3     2    1
     2    14    13    1
     3    14    12    1
     4    13    11    1
     5     2     1    1
     6     2     4    2
     7    12    10    1
     8    11    10    2
     9    11     9    1
    10    10     8    1
    11     9     7    2
    12     1     5    1
    13     8     6    2
    14     7     6    1
    15     6     5    1
