@<TRIPOS>MOLECULE
/home/cewinharhar/GITHUB/reincatalyze/data/processed/docking_pred/2023-May-25-1902_sub9_nm5_bs15_s42_ex16_mel10_mts10000_k50_ec01_g099_lra3e-4_lrc3e-3/af9628f04dddfdfce7c60ac864c84e5664a7a69f_ligand_9.pdbqt
 14 15 0 0 0
SMALL
GASTEIGER

@<TRIPOS>ATOM
      1  C          5.5740    0.0160    1.9800 C.3     1  UNL1        0.0800
      2  C          4.6730    1.1510    1.6360 C.2     1  UNL1        0.1300
      3  C          4.9820    2.0820    0.5180 C.3     1  UNL1        0.0870
      4  O          3.6490    1.3520    2.2680 O.2     1  UNL1       -0.3000
      5  C          6.9880    0.2690    1.4960 C.3     1  UNL1        0.0430
      6  C          7.3890   -0.6910    0.4530 C.2     1  UNL1       -0.0440
      7  C          7.2910   -0.3780   -0.9080 C.2     1  UNL1        0.0080
      8  C          7.8750   -1.9270    0.8140 C.2     1  UNL1        0.0540
      9  C          7.6830   -1.3190   -1.8430 C.2     1  UNL1        0.0510
     10  C          8.2710   -2.8750   -0.1350 C.2     1  UNL1        0.1660
     11  C          8.1730   -2.5680   -1.4740 C.2     1  UNL1        0.1650
     12  O          8.7780   -4.1530   -0.0320 O.2     1  UNL1       -0.4540
     13  O          8.6280   -3.6760   -2.1730 O.2     1  UNL1       -0.4540
     14  C          9.1060   -4.6680   -1.2970 C.3     1  UNL1        0.4680
@<TRIPOS>BOND
     1    13    11    1
     2    13    14    1
     3     9    11    2
     4     9     7    1
     5    11    10    1
     6    14    12    1
     7     7     6    2
     8    10    12    1
     9    10     8    2
    10     6     8    1
    11     6     5    1
    12     3     2    1
    13     5     1    1
    14     2     1    1
    15     2     4    2
