@<TRIPOS>MOLECULE
/home/cewinharhar/GITHUB/reincatalyze/data/processed/docking_pred/2023-May-25-1902_sub9_nm5_bs15_s42_ex16_mel10_mts10000_k50_ec01_g099_lra3e-4_lrc3e-3/af9628f04dddfdfce7c60ac864c84e5664a7a69f_ligand_9.pdbqt
 14 15 0 0 0
SMALL
GASTEIGER

@<TRIPOS>ATOM
      1  C          6.0300    1.3960    1.1740 C.3     1  UNL1        0.0800
      2  C          5.4760    0.3000    2.0170 C.2     1  UNL1        0.1300
      3  C          6.2520   -0.9380    2.2960 C.3     1  UNL1        0.0870
      4  O          4.3610    0.3870    2.5060 O.2     1  UNL1       -0.3000
      5  C          5.6630    1.2070   -0.2850 C.3     1  UNL1        0.0430
      6  C          6.7590    0.5840   -1.0470 C.2     1  UNL1       -0.0440
      7  C          6.5760   -0.6120   -1.7500 C.2     1  UNL1        0.0080
      8  C          7.9970    1.1860   -1.0790 C.2     1  UNL1        0.0540
      9  C          7.6410   -1.1500   -2.4490 C.2     1  UNL1        0.0510
     10  C          9.0700    0.6380   -1.7870 C.2     1  UNL1        0.1660
     11  C          8.8910   -0.5400   -2.4780 C.2     1  UNL1        0.1650
     12  O         10.3770    1.0380   -1.9700 O.2     1  UNL1       -0.4540
     13  O         10.1040   -0.8420   -3.0770 O.2     1  UNL1       -0.4540
     14  C         11.0480    0.1780   -2.8550 C.3     1  UNL1        0.4680
@<TRIPOS>BOND
     1    13    14    1
     2    13    11    1
     3    14    12    1
     4    11     9    2
     5    11    10    1
     6     9     7    1
     7    12    10    1
     8    10     8    2
     9     7     6    2
    10     8     6    1
    11     6     5    1
    12     5     1    1
    13     1     2    1
    14     2     3    1
    15     2     4    2
