@<TRIPOS>MOLECULE
/home/cewinharhar/GITHUB/reincatalyze/data/processed/docking_pred/2023-May-25-1902_sub9_nm5_bs15_s42_ex16_mel10_mts10000_k50_ec01_g099_lra3e-4_lrc3e-3/af9628f04dddfdfce7c60ac864c84e5664a7a69f_ligand_9.pdbqt
 14 15 0 0 0
SMALL
GASTEIGER

@<TRIPOS>ATOM
      1  C          5.5520    1.7870    1.1670 C.3     1  UNL1        0.0800
      2  C          5.0830    0.5960    1.9290 C.2     1  UNL1        0.1300
      3  C          5.8750   -0.6620    1.9750 C.3     1  UNL1        0.0870
      4  O          4.0280    0.6200    2.5410 O.2     1  UNL1       -0.3000
      5  C          5.4500    1.5600   -0.3280 C.3     1  UNL1        0.0430
      6  C          6.6930    0.9950   -0.8820 C.2     1  UNL1       -0.0440
      7  C          7.9510    1.4540   -0.4740 C.2     1  UNL1        0.0080
      8  C          6.6280   -0.0090   -1.8200 C.2     1  UNL1        0.0540
      9  C          9.0840    0.8860   -1.0280 C.2     1  UNL1        0.0510
     10  C          7.7770   -0.5810   -2.3770 C.2     1  UNL1        0.1660
     11  C          9.0150   -0.1290   -1.9770 C.2     1  UNL1        0.1650
     12  O          7.9730   -1.5750   -3.3120 O.2     1  UNL1       -0.4540
     13  O          9.9560   -0.8640   -2.6820 O.2     1  UNL1       -0.4540
     14  C          9.3410   -1.8530   -3.4720 C.3     1  UNL1        0.4680
@<TRIPOS>BOND
     1    14    12    1
     2    14    13    1
     3    12    10    1
     4    13    11    1
     5    10    11    2
     6    10     8    1
     7    11     9    1
     8     8     6    2
     9     9     7    2
    10     6     7    1
    11     6     5    1
    12     5     1    1
    13     1     2    1
    14     2     3    1
    15     2     4    2
