MODEL 1
REMARK VINA RESULT:      -7.6      0.000      0.000
REMARK SMILES CC(=O)CCc1ccc2c(c1)OCO2
REMARK SMILES IDX 4 1 2 2 1 3 3 4 5 5 6 6 7 7 11 8 8 9 10 10 9 11 12 12 14 13
REMARK SMILES IDX 13 14
REMARK H PARENT
REMARK Flexibility Score: inf
ROOT
ATOM      1  C   UNL     1       5.552   1.787   1.167  1.00  0.00     0.080 C 
ENDROOT
BRANCH   1   2
ATOM      2  C   UNL     1       5.083   0.596   1.929  1.00  0.00     0.130 C 
ATOM      3  C   UNL     1       5.875  -0.662   1.975  1.00  0.00     0.087 C 
ATOM      4  O   UNL     1       4.028   0.620   2.541  1.00  0.00    -0.300 OA
ENDBRANCH   1   2
BRANCH   1   5
ATOM      5  C   UNL     1       5.450   1.560  -0.328  1.00  0.00     0.043 C 
BRANCH   5   6
ATOM      6  C   UNL     1       6.693   0.995  -0.882  1.00  0.00    -0.044 A 
ATOM      7  C   UNL     1       7.951   1.454  -0.474  1.00  0.00     0.008 A 
ATOM      8  C   UNL     1       6.628  -0.009  -1.820  1.00  0.00     0.054 A 
ATOM      9  C   UNL     1       9.084   0.886  -1.028  1.00  0.00     0.051 A 
ATOM     10  C   UNL     1       7.777  -0.581  -2.377  1.00  0.00     0.166 A 
ATOM     11  C   UNL     1       9.015  -0.129  -1.977  1.00  0.00     0.165 A 
ATOM     12  O   UNL     1       7.973  -1.575  -3.312  1.00  0.00    -0.454 OA
ATOM     13  O   UNL     1       9.956  -0.864  -2.682  1.00  0.00    -0.454 OA
ATOM     14  C   UNL     1       9.341  -1.853  -3.472  1.00  0.00     0.468 C 
ENDBRANCH   5   6
ENDBRANCH   1   5
TORSDOF 3
ENDMDL
MODEL 2
REMARK VINA RESULT:      -7.4      0.971      1.839
REMARK SMILES CC(=O)CCc1ccc2c(c1)OCO2
REMARK SMILES IDX 4 1 2 2 1 3 3 4 5 5 6 6 7 7 11 8 8 9 10 10 9 11 12 12 14 13
REMARK SMILES IDX 13 14
REMARK H PARENT
REMARK Flexibility Score: inf
ROOT
ATOM      1  C   UNL     1       6.030   1.396   1.174  1.00  0.00     0.080 C 
ENDROOT
BRANCH   1   2
ATOM      2  C   UNL     1       5.476   0.300   2.017  1.00  0.00     0.130 C 
ATOM      3  C   UNL     1       6.252  -0.938   2.296  1.00  0.00     0.087 C 
ATOM      4  O   UNL     1       4.361   0.387   2.506  1.00  0.00    -0.300 OA
ENDBRANCH   1   2
BRANCH   1   5
ATOM      5  C   UNL     1       5.663   1.207  -0.285  1.00  0.00     0.043 C 
BRANCH   5   6
ATOM      6  C   UNL     1       6.759   0.584  -1.047  1.00  0.00    -0.044 A 
ATOM      7  C   UNL     1       6.576  -0.612  -1.750  1.00  0.00     0.008 A 
ATOM      8  C   UNL     1       7.997   1.186  -1.079  1.00  0.00     0.054 A 
ATOM      9  C   UNL     1       7.641  -1.150  -2.449  1.00  0.00     0.051 A 
ATOM     10  C   UNL     1       9.070   0.638  -1.787  1.00  0.00     0.166 A 
ATOM     11  C   UNL     1       8.891  -0.540  -2.478  1.00  0.00     0.165 A 
ATOM     12  O   UNL     1      10.377   1.038  -1.970  1.00  0.00    -0.454 OA
ATOM     13  O   UNL     1      10.104  -0.842  -3.077  1.00  0.00    -0.454 OA
ATOM     14  C   UNL     1      11.048   0.178  -2.855  1.00  0.00     0.468 C 
ENDBRANCH   5   6
ENDBRANCH   1   5
TORSDOF 3
ENDMDL
MODEL 3
REMARK VINA RESULT:      -7.3      2.141      2.589
REMARK SMILES CC(=O)CCc1ccc2c(c1)OCO2
REMARK SMILES IDX 4 1 2 2 1 3 3 4 5 5 6 6 7 7 11 8 8 9 10 10 9 11 12 12 14 13
REMARK SMILES IDX 13 14
REMARK H PARENT
REMARK Flexibility Score: inf
ROOT
ATOM      1  C   UNL     1       5.796   1.377  -0.314  1.00  0.00     0.080 C 
ENDROOT
BRANCH   1   2
ATOM      2  C   UNL     1       5.103   1.305   1.003  1.00  0.00     0.130 C 
ATOM      3  C   UNL     1       5.376   0.209   1.970  1.00  0.00     0.087 C 
ATOM      4  O   UNL     1       4.284   2.150   1.327  1.00  0.00    -0.300 OA
ENDBRANCH   1   2
BRANCH   1   5
ATOM      5  C   UNL     1       7.275   1.078  -0.174  1.00  0.00     0.043 C 
BRANCH   5   6
ATOM      6  C   UNL     1       7.636  -0.204  -0.804  1.00  0.00    -0.044 A 
ATOM      7  C   UNL     1       7.652  -0.359  -2.195  1.00  0.00     0.008 A 
ATOM      8  C   UNL     1       7.969  -1.282  -0.015  1.00  0.00     0.054 A 
ATOM      9  C   UNL     1       7.999  -1.586  -2.730  1.00  0.00     0.051 A 
ATOM     10  C   UNL     1       8.320  -2.520  -0.561  1.00  0.00     0.166 A 
ATOM     11  C   UNL     1       8.335  -2.674  -1.929  1.00  0.00     0.165 A 
ATOM     12  O   UNL     1       8.685  -3.726   0.001  1.00  0.00    -0.454 OA
ATOM     13  O   UNL     1       8.713  -3.983  -2.182  1.00  0.00    -0.454 OA
ATOM     14  C   UNL     1       9.032  -4.659  -0.989  1.00  0.00     0.468 C 
ENDBRANCH   5   6
ENDBRANCH   1   5
TORSDOF 3
ENDMDL
MODEL 4
REMARK VINA RESULT:      -7.3      1.266      2.309
REMARK SMILES CC(=O)CCc1ccc2c(c1)OCO2
REMARK SMILES IDX 4 1 2 2 1 3 3 4 5 5 6 6 7 7 11 8 8 9 10 10 9 11 12 12 14 13
REMARK SMILES IDX 13 14
REMARK H PARENT
REMARK Flexibility Score: inf
ROOT
ATOM      1  C   UNL     1       5.775  -0.532   1.680  1.00  0.00     0.080 C 
ENDROOT
BRANCH   1   2
ATOM      2  C   UNL     1       4.954   0.709   1.745  1.00  0.00     0.130 C 
ATOM      3  C   UNL     1       5.196   1.854   0.827  1.00  0.00     0.087 C 
ATOM      4  O   UNL     1       4.053   0.822   2.561  1.00  0.00    -0.300 OA
ENDBRANCH   1   2
BRANCH   1   5
ATOM      5  C   UNL     1       7.235  -0.213   1.425  1.00  0.00     0.043 C 
BRANCH   5   6
ATOM      6  C   UNL     1       7.581  -0.343  -0.002  1.00  0.00    -0.044 A 
ATOM      7  C   UNL     1       6.924  -1.255  -0.836  1.00  0.00     0.008 A 
ATOM      8  C   UNL     1       8.572   0.448  -0.538  1.00  0.00     0.054 A 
ATOM      9  C   UNL     1       7.291  -1.332  -2.167  1.00  0.00     0.051 A 
ATOM     10  C   UNL     1       8.939   0.366  -1.885  1.00  0.00     0.166 A 
ATOM     11  C   UNL     1       8.293  -0.531  -2.706  1.00  0.00     0.165 A 
ATOM     12  O   UNL     1       9.877   1.032  -2.645  1.00  0.00    -0.454 OA
ATOM     13  O   UNL     1       8.853  -0.396  -3.967  1.00  0.00    -0.454 OA
ATOM     14  C   UNL     1       9.798   0.647  -3.994  1.00  0.00     0.468 C 
ENDBRANCH   5   6
ENDBRANCH   1   5
TORSDOF 3
ENDMDL
MODEL 5
REMARK VINA RESULT:      -7.0      2.255      2.801
REMARK SMILES CC(=O)CCc1ccc2c(c1)OCO2
REMARK SMILES IDX 4 1 2 2 1 3 3 4 5 5 6 6 7 7 11 8 8 9 10 10 9 11 12 12 14 13
REMARK SMILES IDX 13 14
REMARK H PARENT
REMARK Flexibility Score: inf
ROOT
ATOM      1  C   UNL     1       5.574   0.016   1.980  1.00  0.00     0.080 C 
ENDROOT
BRANCH   1   2
ATOM      2  C   UNL     1       4.673   1.151   1.636  1.00  0.00     0.130 C 
ATOM      3  C   UNL     1       4.982   2.082   0.518  1.00  0.00     0.087 C 
ATOM      4  O   UNL     1       3.649   1.352   2.268  1.00  0.00    -0.300 OA
ENDBRANCH   1   2
BRANCH   1   5
ATOM      5  C   UNL     1       6.988   0.269   1.496  1.00  0.00     0.043 C 
BRANCH   5   6
ATOM      6  C   UNL     1       7.389  -0.691   0.453  1.00  0.00    -0.044 A 
ATOM      7  C   UNL     1       7.291  -0.378  -0.908  1.00  0.00     0.008 A 
ATOM      8  C   UNL     1       7.875  -1.927   0.814  1.00  0.00     0.054 A 
ATOM      9  C   UNL     1       7.683  -1.319  -1.843  1.00  0.00     0.051 A 
ATOM     10  C   UNL     1       8.271  -2.875  -0.135  1.00  0.00     0.166 A 
ATOM     11  C   UNL     1       8.173  -2.568  -1.474  1.00  0.00     0.165 A 
ATOM     12  O   UNL     1       8.778  -4.153  -0.032  1.00  0.00    -0.454 OA
ATOM     13  O   UNL     1       8.628  -3.676  -2.173  1.00  0.00    -0.454 OA
ATOM     14  C   UNL     1       9.106  -4.668  -1.297  1.00  0.00     0.468 C 
ENDBRANCH   5   6
ENDBRANCH   1   5
TORSDOF 3
ENDMDL
