@<TRIPOS>MOLECULE
/home/cewinharhar/GITHUB/reincatalyze/data/processed/docking_pred/2023-May-25-1902_sub9_nm5_bs15_s42_ex16_mel10_mts10000_k50_ec01_g099_lra3e-4_lrc3e-3/b0253e2818c1de1129519fa2afa58b59888d8d60_ligand_9.pdbqt
 14 15 0 0 0
SMALL
GASTEIGER

@<TRIPOS>ATOM
      1  C          5.5380    1.9270    1.2570 C.3     1  UNL1        0.0800
      2  C          5.1090    0.7150    2.0090 C.2     1  UNL1        0.1300
      3  C          6.0150   -0.4500    2.1950 C.3     1  UNL1        0.0870
      4  O          3.9920    0.6430    2.4960 O.2     1  UNL1       -0.3000
      5  C          5.4010    1.7240   -0.2390 C.3     1  UNL1        0.0430
      6  C          6.5680    1.0250   -0.8050 C.2     1  UNL1       -0.0440
      7  C          7.8750    1.4650   -0.5620 C.2     1  UNL1        0.0080
      8  C          6.3810   -0.0900   -1.5910 C.2     1  UNL1        0.0540
      9  C          8.9310    0.7680   -1.1190 C.2     1  UNL1        0.0510
     10  C          7.4530   -0.7910   -2.1510 C.2     1  UNL1        0.1660
     11  C          8.7390   -0.3580   -1.9140 C.2     1  UNL1        0.1650
     12  O          7.5270   -1.9090   -2.9550 O.2     1  UNL1       -0.4540
     13  O          9.5850   -1.2290   -2.5820 O.2     1  UNL1       -0.4540
     14  C          8.8630   -2.2790   -3.1810 C.3     1  UNL1        0.4680
@<TRIPOS>BOND
     1    14    12    1
     2    14    13    1
     3    12    10    1
     4    13    11    1
     5    10    11    2
     6    10     8    1
     7    11     9    1
     8     8     6    2
     9     9     7    2
    10     6     7    1
    11     6     5    1
    12     5     1    1
    13     1     2    1
    14     2     3    1
    15     2     4    2
