MODEL 1
REMARK VINA RESULT:      -7.6      0.000      0.000
REMARK SMILES CC(=O)CCc1ccc2c(c1)OCO2
REMARK SMILES IDX 4 1 2 2 1 3 3 4 5 5 6 6 7 7 11 8 8 9 10 10 9 11 12 12 14 13
REMARK SMILES IDX 13 14
REMARK H PARENT
REMARK Flexibility Score: inf
ROOT
ATOM      1  C   UNL     1       5.538   1.927   1.257  1.00  0.00     0.080 C 
ENDROOT
BRANCH   1   2
ATOM      2  C   UNL     1       5.109   0.715   2.009  1.00  0.00     0.130 C 
ATOM      3  C   UNL     1       6.015  -0.450   2.195  1.00  0.00     0.087 C 
ATOM      4  O   UNL     1       3.992   0.643   2.496  1.00  0.00    -0.300 OA
ENDBRANCH   1   2
BRANCH   1   5
ATOM      5  C   UNL     1       5.401   1.724  -0.239  1.00  0.00     0.043 C 
BRANCH   5   6
ATOM      6  C   UNL     1       6.568   1.025  -0.805  1.00  0.00    -0.044 A 
ATOM      7  C   UNL     1       7.875   1.465  -0.562  1.00  0.00     0.008 A 
ATOM      8  C   UNL     1       6.381  -0.090  -1.591  1.00  0.00     0.054 A 
ATOM      9  C   UNL     1       8.931   0.768  -1.119  1.00  0.00     0.051 A 
ATOM     10  C   UNL     1       7.453  -0.791  -2.151  1.00  0.00     0.166 A 
ATOM     11  C   UNL     1       8.739  -0.358  -1.914  1.00  0.00     0.165 A 
ATOM     12  O   UNL     1       7.527  -1.909  -2.955  1.00  0.00    -0.454 OA
ATOM     13  O   UNL     1       9.585  -1.229  -2.582  1.00  0.00    -0.454 OA
ATOM     14  C   UNL     1       8.863  -2.279  -3.181  1.00  0.00     0.468 C 
ENDBRANCH   5   6
ENDBRANCH   1   5
TORSDOF 3
ENDMDL
MODEL 2
REMARK VINA RESULT:      -7.4      1.921      2.354
REMARK SMILES CC(=O)CCc1ccc2c(c1)OCO2
REMARK SMILES IDX 4 1 2 2 1 3 3 4 5 5 6 6 7 7 11 8 8 9 10 10 9 11 12 12 14 13
REMARK SMILES IDX 13 14
REMARK H PARENT
REMARK Flexibility Score: inf
ROOT
ATOM      1  C   UNL     1       5.731   1.390  -0.232  1.00  0.00     0.080 C 
ENDROOT
BRANCH   1   2
ATOM      2  C   UNL     1       5.084   1.257   1.103  1.00  0.00     0.130 C 
ATOM      3  C   UNL     1       5.379   0.111   2.004  1.00  0.00     0.087 C 
ATOM      4  O   UNL     1       4.286   2.092   1.498  1.00  0.00    -0.300 OA
ENDBRANCH   1   2
BRANCH   1   5
ATOM      5  C   UNL     1       7.222   1.129  -0.148  1.00  0.00     0.043 C 
BRANCH   5   6
ATOM      6  C   UNL     1       7.589  -0.152  -0.777  1.00  0.00    -0.044 A 
ATOM      7  C   UNL     1       7.644  -0.297  -2.168  1.00  0.00     0.008 A 
ATOM      8  C   UNL     1       7.890  -1.238   0.013  1.00  0.00     0.054 A 
ATOM      9  C   UNL     1       7.996  -1.523  -2.702  1.00  0.00     0.051 A 
ATOM     10  C   UNL     1       8.245  -2.476  -0.532  1.00  0.00     0.166 A 
ATOM     11  C   UNL     1       8.298  -2.619  -1.900  1.00  0.00     0.165 A 
ATOM     12  O   UNL     1       8.583  -3.688   0.031  1.00  0.00    -0.454 OA
ATOM     13  O   UNL     1       8.672  -3.930  -2.152  1.00  0.00    -0.454 OA
ATOM     14  C   UNL     1       8.951  -4.618  -0.955  1.00  0.00     0.468 C 
ENDBRANCH   5   6
ENDBRANCH   1   5
TORSDOF 3
ENDMDL
MODEL 3
REMARK VINA RESULT:      -7.2      2.061      2.625
REMARK SMILES CC(=O)CCc1ccc2c(c1)OCO2
REMARK SMILES IDX 4 1 2 2 1 3 3 4 5 5 6 6 7 7 11 8 8 9 10 10 9 11 12 12 14 13
REMARK SMILES IDX 13 14
REMARK H PARENT
REMARK Flexibility Score: inf
ROOT
ATOM      1  C   UNL     1       5.454  -0.020   1.998  1.00  0.00     0.080 C 
ENDROOT
BRANCH   1   2
ATOM      2  C   UNL     1       4.581   1.157   1.731  1.00  0.00     0.130 C 
ATOM      3  C   UNL     1       4.883   2.123   0.642  1.00  0.00     0.087 C 
ATOM      4  O   UNL     1       3.585   1.363   2.406  1.00  0.00    -0.300 OA
ENDBRANCH   1   2
BRANCH   1   5
ATOM      5  C   UNL     1       6.878   0.237   1.545  1.00  0.00     0.043 C 
BRANCH   5   6
ATOM      6  C   UNL     1       7.296  -0.707   0.493  1.00  0.00    -0.044 A 
ATOM      7  C   UNL     1       7.162  -0.397  -0.865  1.00  0.00     0.008 A 
ATOM      8  C   UNL     1       7.834  -1.924   0.843  1.00  0.00     0.054 A 
ATOM      9  C   UNL     1       7.573  -1.322  -1.808  1.00  0.00     0.051 A 
ATOM     10  C   UNL     1       8.248  -2.856  -0.114  1.00  0.00     0.166 A 
ATOM     11  C   UNL     1       8.115  -2.552  -1.450  1.00  0.00     0.165 A 
ATOM     12  O   UNL     1       8.803  -4.114  -0.021  1.00  0.00    -0.454 OA
ATOM     13  O   UNL     1       8.599  -3.641  -2.158  1.00  0.00    -0.454 OA
ATOM     14  C   UNL     1       9.128  -4.616  -1.292  1.00  0.00     0.468 C 
ENDBRANCH   5   6
ENDBRANCH   1   5
TORSDOF 3
ENDMDL
MODEL 4
REMARK VINA RESULT:      -7.1      1.255      1.476
REMARK SMILES CC(=O)CCc1ccc2c(c1)OCO2
REMARK SMILES IDX 4 1 2 2 1 3 3 4 5 5 6 6 7 7 11 8 8 9 10 10 9 11 12 12 14 13
REMARK SMILES IDX 13 14
REMARK H PARENT
REMARK Flexibility Score: inf
ROOT
ATOM      1  C   UNL     1       6.381   1.181   0.907  1.00  0.00     0.080 C 
ENDROOT
BRANCH   1   2
ATOM      2  C   UNL     1       5.669   0.365   1.929  1.00  0.00     0.130 C 
ATOM      3  C   UNL     1       6.272  -0.867   2.503  1.00  0.00     0.087 C 
ATOM      4  O   UNL     1       4.561   0.687   2.327  1.00  0.00    -0.300 OA
ENDBRANCH   1   2
BRANCH   1   5
ATOM      5  C   UNL     1       5.869   0.885  -0.489  1.00  0.00     0.043 C 
BRANCH   5   6
ATOM      6  C   UNL     1       6.822   0.067  -1.259  1.00  0.00    -0.044 A 
ATOM      7  C   UNL     1       7.513   0.587  -2.359  1.00  0.00     0.008 A 
ATOM      8  C   UNL     1       7.049  -1.241  -0.894  1.00  0.00     0.054 A 
ATOM      9  C   UNL     1       8.396  -0.227  -3.044  1.00  0.00     0.051 A 
ATOM     10  C   UNL     1       7.943  -2.060  -1.589  1.00  0.00     0.166 A 
ATOM     11  C   UNL     1       8.622  -1.549  -2.673  1.00  0.00     0.165 A 
ATOM     12  O   UNL     1       8.336  -3.372  -1.427  1.00  0.00    -0.454 OA
ATOM     13  O   UNL     1       9.427  -2.568  -3.158  1.00  0.00    -0.454 OA
ATOM     14  C   UNL     1       9.344  -3.713  -2.344  1.00  0.00     0.468 C 
ENDBRANCH   5   6
ENDBRANCH   1   5
TORSDOF 3
ENDMDL
MODEL 5
REMARK VINA RESULT:      -7.1      1.973      2.606
REMARK SMILES CC(=O)CCc1ccc2c(c1)OCO2
REMARK SMILES IDX 4 1 2 2 1 3 3 4 5 5 6 6 7 7 11 8 8 9 10 10 9 11 12 12 14 13
REMARK SMILES IDX 13 14
REMARK H PARENT
REMARK Flexibility Score: inf
ROOT
ATOM      1  C   UNL     1       6.482   0.898   1.165  1.00  0.00     0.080 C 
ENDROOT
BRANCH   1   2
ATOM      2  C   UNL     1       5.228   1.619   0.814  1.00  0.00     0.130 C 
ATOM      3  C   UNL     1       4.989   2.150  -0.555  1.00  0.00     0.087 C 
ATOM      4  O   UNL     1       4.353   1.797   1.646  1.00  0.00    -0.300 OA
ENDBRANCH   1   2
BRANCH   1   5
ATOM      5  C   UNL     1       7.538   1.073   0.091  1.00  0.00     0.043 C 
BRANCH   5   6
ATOM      6  C   UNL     1       7.825  -0.194  -0.604  1.00  0.00    -0.044 A 
ATOM      7  C   UNL     1       7.863  -0.271  -2.001  1.00  0.00     0.008 A 
ATOM      8  C   UNL     1       8.066  -1.335   0.127  1.00  0.00     0.054 A 
ATOM      9  C   UNL     1       8.139  -1.487  -2.599  1.00  0.00     0.051 A 
ATOM     10  C   UNL     1       8.344  -2.562  -0.482  1.00  0.00     0.166 A 
ATOM     11  C   UNL     1       8.381  -2.639  -1.856  1.00  0.00     0.165 A 
ATOM     12  O   UNL     1       8.613  -3.819   0.017  1.00  0.00    -0.454 OA
ATOM     13  O   UNL     1       8.675  -3.955  -2.177  1.00  0.00    -0.454 OA
ATOM     14  C   UNL     1       8.920  -4.717  -1.019  1.00  0.00     0.468 C 
ENDBRANCH   5   6
ENDBRANCH   1   5
TORSDOF 3
ENDMDL
