@<TRIPOS>MOLECULE
/home/cewinharhar/GITHUB/reincatalyze/data/processed/docking_pred/2023-May-25-1902_sub9_nm5_bs15_s42_ex16_mel10_mts10000_k50_ec01_g099_lra3e-4_lrc3e-3/b0253e2818c1de1129519fa2afa58b59888d8d60_ligand_9.pdbqt
 14 15 0 0 0
SMALL
GASTEIGER

@<TRIPOS>ATOM
      1  C          5.7310    1.3900   -0.2320 C.3     1  UNL1        0.0800
      2  C          5.0840    1.2570    1.1030 C.2     1  UNL1        0.1300
      3  C          5.3790    0.1110    2.0040 C.3     1  UNL1        0.0870
      4  O          4.2860    2.0920    1.4980 O.2     1  UNL1       -0.3000
      5  C          7.2220    1.1290   -0.1480 C.3     1  UNL1        0.0430
      6  C          7.5890   -0.1520   -0.7770 C.2     1  UNL1       -0.0440
      7  C          7.6440   -0.2970   -2.1680 C.2     1  UNL1        0.0080
      8  C          7.8900   -1.2380    0.0130 C.2     1  UNL1        0.0540
      9  C          7.9960   -1.5230   -2.7020 C.2     1  UNL1        0.0510
     10  C          8.2450   -2.4760   -0.5320 C.2     1  UNL1        0.1660
     11  C          8.2980   -2.6190   -1.9000 C.2     1  UNL1        0.1650
     12  O          8.5830   -3.6880    0.0310 O.2     1  UNL1       -0.4540
     13  O          8.6720   -3.9300   -2.1520 O.2     1  UNL1       -0.4540
     14  C          8.9510   -4.6180   -0.9550 C.3     1  UNL1        0.4680
@<TRIPOS>BOND
     1     9     7    1
     2     9    11    2
     3     7     6    2
     4    13    11    1
     5    13    14    1
     6    11    10    1
     7    14    12    1
     8     6     5    1
     9     6     8    1
    10    10     8    2
    11    10    12    1
    12     1     5    1
    13     1     2    1
    14     2     4    2
    15     2     3    1
