MODEL 1
REMARK VINA RESULT:      -7.7      0.000      0.000
REMARK SMILES CC(=O)CCc1ccc2c(c1)OCO2
REMARK SMILES IDX 4 1 2 2 1 3 3 4 5 5 6 6 7 7 11 8 8 9 10 10 9 11 12 12 14 13
REMARK SMILES IDX 13 14
REMARK H PARENT
REMARK Flexibility Score: inf
ROOT
ATOM      1  C   UNL     1       5.504   1.933   1.256  1.00  0.00     0.080 C 
ENDROOT
BRANCH   1   2
ATOM      2  C   UNL     1       5.073   0.715   1.997  1.00  0.00     0.130 C 
ATOM      3  C   UNL     1       5.971  -0.458   2.160  1.00  0.00     0.087 C 
ATOM      4  O   UNL     1       3.961   0.646   2.495  1.00  0.00    -0.300 OA
ENDBRANCH   1   2
BRANCH   1   5
ATOM      5  C   UNL     1       5.380   1.739  -0.242  1.00  0.00     0.043 C 
BRANCH   5   6
ATOM      6  C   UNL     1       6.551   1.038  -0.801  1.00  0.00    -0.044 A 
ATOM      7  C   UNL     1       7.856   1.475  -0.548  1.00  0.00     0.008 A 
ATOM      8  C   UNL     1       6.367  -0.075  -1.589  1.00  0.00     0.054 A 
ATOM      9  C   UNL     1       8.916   0.777  -1.098  1.00  0.00     0.051 A 
ATOM     10  C   UNL     1       7.442  -0.777  -2.142  1.00  0.00     0.166 A 
ATOM     11  C   UNL     1       8.727  -0.347  -1.895  1.00  0.00     0.165 A 
ATOM     12  O   UNL     1       7.520  -1.894  -2.947  1.00  0.00    -0.454 OA
ATOM     13  O   UNL     1       9.576  -1.219  -2.559  1.00  0.00    -0.454 OA
ATOM     14  C   UNL     1       8.857  -2.267  -3.163  1.00  0.00     0.468 C 
ENDBRANCH   5   6
ENDBRANCH   1   5
TORSDOF 3
ENDMDL
MODEL 2
REMARK VINA RESULT:      -7.5      1.940      2.404
REMARK SMILES CC(=O)CCc1ccc2c(c1)OCO2
REMARK SMILES IDX 4 1 2 2 1 3 3 4 5 5 6 6 7 7 11 8 8 9 10 10 9 11 12 12 14 13
REMARK SMILES IDX 13 14
REMARK H PARENT
REMARK Flexibility Score: inf
ROOT
ATOM      1  C   UNL     1       5.775   1.370  -0.279  1.00  0.00     0.080 C 
ENDROOT
BRANCH   1   2
ATOM      2  C   UNL     1       5.177   1.266   1.082  1.00  0.00     0.130 C 
ATOM      3  C   UNL     1       5.428   0.091   1.958  1.00  0.00     0.087 C 
ATOM      4  O   UNL     1       4.457   2.150   1.518  1.00  0.00    -0.300 OA
ENDBRANCH   1   2
BRANCH   1   5
ATOM      5  C   UNL     1       7.270   1.120  -0.243  1.00  0.00     0.043 C 
BRANCH   5   6
ATOM      6  C   UNL     1       7.621  -0.179  -0.844  1.00  0.00    -0.044 A 
ATOM      7  C   UNL     1       7.650  -0.361  -2.231  1.00  0.00     0.008 A 
ATOM      8  C   UNL     1       7.933  -1.245  -0.031  1.00  0.00     0.054 A 
ATOM      9  C   UNL     1       7.988  -1.602  -2.738  1.00  0.00     0.051 A 
ATOM     10  C   UNL     1       8.275  -2.498  -0.548  1.00  0.00     0.166 A 
ATOM     11  C   UNL     1       8.302  -2.678  -1.913  1.00  0.00     0.165 A 
ATOM     12  O   UNL     1       8.620  -3.696   0.041  1.00  0.00    -0.454 OA
ATOM     13  O   UNL     1       8.668  -3.996  -2.136  1.00  0.00    -0.454 OA
ATOM     14  C   UNL     1       8.966  -4.652  -0.927  1.00  0.00     0.468 C 
ENDBRANCH   5   6
ENDBRANCH   1   5
TORSDOF 3
ENDMDL
MODEL 3
REMARK VINA RESULT:      -7.2      2.096      2.626
REMARK SMILES CC(=O)CCc1ccc2c(c1)OCO2
REMARK SMILES IDX 4 1 2 2 1 3 3 4 5 5 6 6 7 7 11 8 8 9 10 10 9 11 12 12 14 13
REMARK SMILES IDX 13 14
REMARK H PARENT
REMARK Flexibility Score: inf
ROOT
ATOM      1  C   UNL     1       5.594   0.040   1.943  1.00  0.00     0.080 C 
ENDROOT
BRANCH   1   2
ATOM      2  C   UNL     1       4.685   1.177   1.626  1.00  0.00     0.130 C 
ATOM      3  C   UNL     1       4.964   2.110   0.502  1.00  0.00     0.087 C 
ATOM      4  O   UNL     1       3.678   1.377   2.286  1.00  0.00    -0.300 OA
ENDBRANCH   1   2
BRANCH   1   5
ATOM      5  C   UNL     1       6.998   0.300   1.435  1.00  0.00     0.043 C 
BRANCH   5   6
ATOM      6  C   UNL     1       7.398  -0.678   0.408  1.00  0.00    -0.044 A 
ATOM      7  C   UNL     1       7.298  -0.388  -0.958  1.00  0.00     0.008 A 
ATOM      8  C   UNL     1       7.886  -1.907   0.789  1.00  0.00     0.054 A 
ATOM      9  C   UNL     1       7.689  -1.345  -1.877  1.00  0.00     0.051 A 
ATOM     10  C   UNL     1       8.281  -2.870  -0.144  1.00  0.00     0.166 A 
ATOM     11  C   UNL     1       8.181  -2.587  -1.488  1.00  0.00     0.165 A 
ATOM     12  O   UNL     1       8.789  -4.146  -0.020  1.00  0.00    -0.454 OA
ATOM     13  O   UNL     1       8.636  -3.706  -2.169  1.00  0.00    -0.454 OA
ATOM     14  C   UNL     1       9.115  -4.683  -1.276  1.00  0.00     0.468 C 
ENDBRANCH   5   6
ENDBRANCH   1   5
TORSDOF 3
ENDMDL
MODEL 4
REMARK VINA RESULT:      -7.1      1.272      1.492
REMARK SMILES CC(=O)CCc1ccc2c(c1)OCO2
REMARK SMILES IDX 4 1 2 2 1 3 3 4 5 5 6 6 7 7 11 8 8 9 10 10 9 11 12 12 14 13
REMARK SMILES IDX 13 14
REMARK H PARENT
REMARK Flexibility Score: inf
ROOT
ATOM      1  C   UNL     1       6.392   1.169   0.963  1.00  0.00     0.080 C 
ENDROOT
BRANCH   1   2
ATOM      2  C   UNL     1       5.645   0.343   1.952  1.00  0.00     0.130 C 
ATOM      3  C   UNL     1       6.234  -0.886   2.547  1.00  0.00     0.087 C 
ATOM      4  O   UNL     1       4.518   0.654   2.304  1.00  0.00    -0.300 OA
ENDBRANCH   1   2
BRANCH   1   5
ATOM      5  C   UNL     1       5.893   0.926  -0.447  1.00  0.00     0.043 C 
BRANCH   5   6
ATOM      6  C   UNL     1       6.830   0.093  -1.223  1.00  0.00    -0.044 A 
ATOM      7  C   UNL     1       7.494   0.592  -2.349  1.00  0.00     0.008 A 
ATOM      8  C   UNL     1       7.066  -1.207  -0.838  1.00  0.00     0.054 A 
ATOM      9  C   UNL     1       8.363  -0.235  -3.037  1.00  0.00     0.051 A 
ATOM     10  C   UNL     1       7.946  -2.039  -1.536  1.00  0.00     0.166 A 
ATOM     11  C   UNL     1       8.599  -1.549  -2.645  1.00  0.00     0.165 A 
ATOM     12  O   UNL     1       8.344  -3.347  -1.358  1.00  0.00    -0.454 OA
ATOM     13  O   UNL     1       9.394  -2.577  -3.129  1.00  0.00    -0.454 OA
ATOM     14  C   UNL     1       9.331  -3.706  -2.290  1.00  0.00     0.468 C 
ENDBRANCH   5   6
ENDBRANCH   1   5
TORSDOF 3
ENDMDL
MODEL 5
REMARK VINA RESULT:      -6.8      1.265      1.757
REMARK SMILES CC(=O)CCc1ccc2c(c1)OCO2
REMARK SMILES IDX 4 1 2 2 1 3 3 4 5 5 6 6 7 7 11 8 8 9 10 10 9 11 12 12 14 13
REMARK SMILES IDX 13 14
REMARK H PARENT
REMARK Flexibility Score: inf
ROOT
ATOM      1  C   UNL     1       5.327  -0.062   1.976  1.00  0.00     0.080 C 
ENDROOT
BRANCH   1   2
ATOM      2  C   UNL     1       4.440   1.119   1.788  1.00  0.00     0.130 C 
ATOM      3  C   UNL     1       4.721   2.150   0.753  1.00  0.00     0.087 C 
ATOM      4  O   UNL     1       3.449   1.277   2.483  1.00  0.00    -0.300 OA
ENDBRANCH   1   2
BRANCH   1   5
ATOM      5  C   UNL     1       6.789   0.330   1.906  1.00  0.00     0.043 C 
BRANCH   5   6
ATOM      6  C   UNL     1       7.390  -0.032   0.610  1.00  0.00    -0.044 A 
ATOM      7  C   UNL     1       7.882   0.942  -0.268  1.00  0.00     0.008 A 
ATOM      8  C   UNL     1       7.478  -1.356   0.244  1.00  0.00     0.054 A 
ATOM      9  C   UNL     1       8.436   0.543  -1.470  1.00  0.00     0.051 A 
ATOM     10  C   UNL     1       8.039  -1.754  -0.972  1.00  0.00     0.166 A 
ATOM     11  C   UNL     1       8.522  -0.797  -1.837  1.00  0.00     0.165 A 
ATOM     12  O   UNL     1       8.238  -2.987  -1.557  1.00  0.00    -0.454 OA
ATOM     13  O   UNL     1       9.014  -1.469  -2.945  1.00  0.00    -0.454 OA
ATOM     14  C   UNL     1       8.936  -2.863  -2.770  1.00  0.00     0.468 C 
ENDBRANCH   5   6
ENDBRANCH   1   5
TORSDOF 3
ENDMDL
