@<TRIPOS>MOLECULE
/home/cewinharhar/GITHUB/reincatalyze/data/processed/docking_pred/2023-May-25-1902_sub9_nm5_bs15_s42_ex16_mel10_mts10000_k50_ec01_g099_lra3e-4_lrc3e-3/b25c452ec0c0b8d96fec3e0f7bbac0cc4967bb63_ligand_9.pdbqt
 14 15 0 0 0
SMALL
GASTEIGER

@<TRIPOS>ATOM
      1  C          5.4830   -0.1860    1.9590 C.3     1  UNL1        0.0800
      2  C          5.2870    1.0220    1.1100 C.2     1  UNL1        0.1300
      3  C          5.9150    1.1430   -0.2330 C.3     1  UNL1        0.0870
      4  O          4.6020    1.9550    1.4970 O.2     1  UNL1       -0.3000
      5  C          6.4160   -1.1800    1.2950 C.3     1  UNL1        0.0430
      6  C          7.5520   -1.5290    2.1670 C.2     1  UNL1       -0.0440
      7  C          7.5640   -1.1910    3.5250 C.2     1  UNL1        0.0080
      8  C          8.6300   -2.2050    1.6430 C.2     1  UNL1        0.0540
      9  C          8.6580   -1.5460    4.2940 C.2     1  UNL1        0.0510
     10  C          9.7330   -2.5620    2.4250 C.2     1  UNL1        0.1660
     11  C          9.7470   -2.2290    3.7620 C.2     1  UNL1        0.1650
     12  O         10.9090   -3.2250    2.1450 O.2     1  UNL1       -0.4540
     13  O         10.9430   -2.7010    4.2800 O.2     1  UNL1       -0.4540
     14  C         11.6690   -3.4180    3.3100 C.3     1  UNL1        0.4680
@<TRIPOS>BOND
     1     3     2    1
     2     2     4    2
     3     2     1    1
     4     5     1    1
     5     5     6    1
     6     8     6    2
     7     8    10    1
     8    12    10    1
     9    12    14    1
    10     6     7    1
    11    10    11    2
    12    14    13    1
    13     7     9    2
    14    11    13    1
    15    11     9    1
