@<TRIPOS>MOLECULE
/home/cewinharhar/GITHUB/reincatalyze/data/processed/docking_pred/2023-May-25-1902_sub9_nm5_bs15_s42_ex16_mel10_mts10000_k50_ec01_g099_lra3e-4_lrc3e-3/b393d0f0af23d36e99ef7bf88514b4beffd0378d_ligand_9.pdbqt
 14 15 0 0 0
SMALL
GASTEIGER

@<TRIPOS>ATOM
      1  C          6.3510    1.2070    0.9060 C.3     1  UNL1        0.0800
      2  C          5.6490    0.3910    1.9360 C.2     1  UNL1        0.1300
      3  C          6.2490   -0.8520    2.4900 C.3     1  UNL1        0.0870
      4  O          4.5520    0.7210    2.3560 O.2     1  UNL1       -0.3000
      5  C          5.8370    0.8980   -0.4860 C.3     1  UNL1        0.0430
      6  C          6.8000    0.0920   -1.2580 C.2     1  UNL1       -0.0440
      7  C          7.5020    0.6300   -2.3430 C.2     1  UNL1        0.0080
      8  C          7.0240   -1.2200   -0.9110 C.2     1  UNL1        0.0540
      9  C          8.3930   -0.1730   -3.0300 C.2     1  UNL1        0.0510
     10  C          7.9270   -2.0280   -1.6080 C.2     1  UNL1        0.1660
     11  C          8.6170   -1.5000   -2.6770 C.2     1  UNL1        0.1650
     12  O          8.3200   -3.3420   -1.4620 O.2     1  UNL1       -0.4540
     13  O          9.4280   -2.5110   -3.1690 O.2     1  UNL1       -0.4540
     14  C          9.3380   -3.6680   -2.3730 C.3     1  UNL1        0.4680
@<TRIPOS>BOND
     1    13    11    1
     2    13    14    1
     3     9    11    2
     4     9     7    1
     5    11    10    1
     6    14    12    1
     7     7     6    2
     8    10    12    1
     9    10     8    2
    10     6     8    1
    11     6     5    1
    12     5     1    1
    13     1     2    1
    14     2     4    2
    15     2     3    1
