MODEL 1
REMARK VINA RESULT:      -7.6      0.000      0.000
REMARK SMILES CC(=O)CCc1ccc2c(c1)OCO2
REMARK SMILES IDX 4 1 2 2 1 3 3 4 5 5 6 6 7 7 11 8 8 9 10 10 9 11 12 12 14 13
REMARK SMILES IDX 13 14
REMARK H PARENT
REMARK Flexibility Score: inf
ROOT
ATOM      1  C   UNL     1       5.507   1.903   1.274  1.00  0.00     0.080 C 
ENDROOT
BRANCH   1   2
ATOM      2  C   UNL     1       5.062   0.683   2.003  1.00  0.00     0.130 C 
ATOM      3  C   UNL     1       5.938  -0.512   2.134  1.00  0.00     0.087 C 
ATOM      4  O   UNL     1       3.955   0.628   2.515  1.00  0.00    -0.300 OA
ENDBRANCH   1   2
BRANCH   1   5
ATOM      5  C   UNL     1       5.386   1.725  -0.226  1.00  0.00     0.043 C 
BRANCH   5   6
ATOM      6  C   UNL     1       6.555   1.028  -0.790  1.00  0.00    -0.044 A 
ATOM      7  C   UNL     1       7.861   1.470  -0.545  1.00  0.00     0.008 A 
ATOM      8  C   UNL     1       6.372  -0.087  -1.576  1.00  0.00     0.054 A 
ATOM      9  C   UNL     1       8.920   0.776  -1.100  1.00  0.00     0.051 A 
ATOM     10  C   UNL     1       7.446  -0.786  -2.134  1.00  0.00     0.166 A 
ATOM     11  C   UNL     1       8.731  -0.351  -1.895  1.00  0.00     0.165 A 
ATOM     12  O   UNL     1       7.524  -1.904  -2.938  1.00  0.00    -0.454 OA
ATOM     13  O   UNL     1       9.579  -1.220  -2.562  1.00  0.00    -0.454 OA
ATOM     14  C   UNL     1       8.861  -2.272  -3.161  1.00  0.00     0.468 C 
ENDBRANCH   5   6
ENDBRANCH   1   5
TORSDOF 3
ENDMDL
MODEL 2
REMARK VINA RESULT:      -7.4      1.914      2.392
REMARK SMILES CC(=O)CCc1ccc2c(c1)OCO2
REMARK SMILES IDX 4 1 2 2 1 3 3 4 5 5 6 6 7 7 11 8 8 9 10 10 9 11 12 12 14 13
REMARK SMILES IDX 13 14
REMARK H PARENT
REMARK Flexibility Score: inf
ROOT
ATOM      1  C   UNL     1       5.766   1.370  -0.343  1.00  0.00     0.080 C 
ENDROOT
BRANCH   1   2
ATOM      2  C   UNL     1       5.120   1.300   0.997  1.00  0.00     0.130 C 
ATOM      3  C   UNL     1       5.421   0.199   1.952  1.00  0.00     0.087 C 
ATOM      4  O   UNL     1       4.320   2.149   1.353  1.00  0.00    -0.300 OA
ENDBRANCH   1   2
BRANCH   1   5
ATOM      5  C   UNL     1       7.255   1.106  -0.252  1.00  0.00     0.043 C 
BRANCH   5   6
ATOM      6  C   UNL     1       7.620  -0.183  -0.867  1.00  0.00    -0.044 A 
ATOM      7  C   UNL     1       7.684  -0.339  -2.257  1.00  0.00     0.008 A 
ATOM      8  C   UNL     1       7.910  -1.264  -0.067  1.00  0.00     0.054 A 
ATOM      9  C   UNL     1       8.033  -1.571  -2.778  1.00  0.00     0.051 A 
ATOM     10  C   UNL     1       8.263  -2.508  -0.599  1.00  0.00     0.166 A 
ATOM     11  C   UNL     1       8.324  -2.663  -1.966  1.00  0.00     0.165 A 
ATOM     12  O   UNL     1       8.590  -3.717  -0.023  1.00  0.00    -0.454 OA
ATOM     13  O   UNL     1       8.693  -3.977  -2.204  1.00  0.00    -0.454 OA
ATOM     14  C   UNL     1       8.960  -4.656  -1.000  1.00  0.00     0.468 C 
ENDBRANCH   5   6
ENDBRANCH   1   5
TORSDOF 3
ENDMDL
MODEL 3
REMARK VINA RESULT:      -7.2      2.054      2.629
REMARK SMILES CC(=O)CCc1ccc2c(c1)OCO2
REMARK SMILES IDX 4 1 2 2 1 3 3 4 5 5 6 6 7 7 11 8 8 9 10 10 9 11 12 12 14 13
REMARK SMILES IDX 13 14
REMARK H PARENT
REMARK Flexibility Score: inf
ROOT
ATOM      1  C   UNL     1       5.420  -0.056   2.010  1.00  0.00     0.080 C 
ENDROOT
BRANCH   1   2
ATOM      2  C   UNL     1       4.578   1.148   1.764  1.00  0.00     0.130 C 
ATOM      3  C   UNL     1       4.913   2.132   0.701  1.00  0.00     0.087 C 
ATOM      4  O   UNL     1       3.581   1.363   2.435  1.00  0.00    -0.300 OA
ENDBRANCH   1   2
BRANCH   1   5
ATOM      5  C   UNL     1       6.859   0.186   1.600  1.00  0.00     0.043 C 
BRANCH   5   6
ATOM      6  C   UNL     1       7.287  -0.739   0.535  1.00  0.00    -0.044 A 
ATOM      7  C   UNL     1       7.163  -0.405  -0.818  1.00  0.00     0.008 A 
ATOM      8  C   UNL     1       7.825  -1.961   0.869  1.00  0.00     0.054 A 
ATOM      9  C   UNL     1       7.583  -1.313  -1.774  1.00  0.00     0.051 A 
ATOM     10  C   UNL     1       8.248  -2.875  -0.101  1.00  0.00     0.166 A 
ATOM     11  C   UNL     1       8.126  -2.548  -1.433  1.00  0.00     0.165 A 
ATOM     12  O   UNL     1       8.806  -4.133  -0.026  1.00  0.00    -0.454 OA
ATOM     13  O   UNL     1       8.617  -3.624  -2.156  1.00  0.00    -0.454 OA
ATOM     14  C   UNL     1       9.142  -4.613  -1.303  1.00  0.00     0.468 C 
ENDBRANCH   5   6
ENDBRANCH   1   5
TORSDOF 3
ENDMDL
MODEL 4
REMARK VINA RESULT:      -7.1      1.248      1.451
REMARK SMILES CC(=O)CCc1ccc2c(c1)OCO2
REMARK SMILES IDX 4 1 2 2 1 3 3 4 5 5 6 6 7 7 11 8 8 9 10 10 9 11 12 12 14 13
REMARK SMILES IDX 13 14
REMARK H PARENT
REMARK Flexibility Score: inf
ROOT
ATOM      1  C   UNL     1       6.351   1.207   0.906  1.00  0.00     0.080 C 
ENDROOT
BRANCH   1   2
ATOM      2  C   UNL     1       5.649   0.391   1.936  1.00  0.00     0.130 C 
ATOM      3  C   UNL     1       6.249  -0.852   2.490  1.00  0.00     0.087 C 
ATOM      4  O   UNL     1       4.552   0.721   2.356  1.00  0.00    -0.300 OA
ENDBRANCH   1   2
BRANCH   1   5
ATOM      5  C   UNL     1       5.837   0.898  -0.486  1.00  0.00     0.043 C 
BRANCH   5   6
ATOM      6  C   UNL     1       6.800   0.092  -1.258  1.00  0.00    -0.044 A 
ATOM      7  C   UNL     1       7.502   0.630  -2.343  1.00  0.00     0.008 A 
ATOM      8  C   UNL     1       7.024  -1.220  -0.911  1.00  0.00     0.054 A 
ATOM      9  C   UNL     1       8.393  -0.173  -3.030  1.00  0.00     0.051 A 
ATOM     10  C   UNL     1       7.927  -2.028  -1.608  1.00  0.00     0.166 A 
ATOM     11  C   UNL     1       8.617  -1.500  -2.677  1.00  0.00     0.165 A 
ATOM     12  O   UNL     1       8.320  -3.342  -1.462  1.00  0.00    -0.454 OA
ATOM     13  O   UNL     1       9.428  -2.511  -3.169  1.00  0.00    -0.454 OA
ATOM     14  C   UNL     1       9.338  -3.668  -2.373  1.00  0.00     0.468 C 
ENDBRANCH   5   6
ENDBRANCH   1   5
TORSDOF 3
ENDMDL
MODEL 5
REMARK VINA RESULT:      -6.8      1.919      2.565
REMARK SMILES CC(=O)CCc1ccc2c(c1)OCO2
REMARK SMILES IDX 4 1 2 2 1 3 3 4 5 5 6 6 7 7 11 8 8 9 10 10 9 11 12 12 14 13
REMARK SMILES IDX 13 14
REMARK H PARENT
REMARK Flexibility Score: inf
ROOT
ATOM      1  C   UNL     1       6.871   1.460   1.068  1.00  0.00     0.080 C 
ENDROOT
BRANCH   1   2
ATOM      2  C   UNL     1       5.421   1.757   0.898  1.00  0.00     0.130 C 
ATOM      3  C   UNL     1       4.853   2.145  -0.421  1.00  0.00     0.087 C 
ATOM      4  O   UNL     1       4.652   1.690   1.843  1.00  0.00    -0.300 OA
ENDBRANCH   1   2
BRANCH   1   5
ATOM      5  C   UNL     1       7.598   1.488  -0.261  1.00  0.00     0.043 C 
BRANCH   5   6
ATOM      6  C   UNL     1       7.821   0.131  -0.791  1.00  0.00    -0.044 A 
ATOM      7  C   UNL     1       7.761  -0.139  -2.163  1.00  0.00     0.008 A 
ATOM      8  C   UNL     1       8.098  -0.903   0.074  1.00  0.00     0.054 A 
ATOM      9  C   UNL     1       7.979  -1.431  -2.603  1.00  0.00     0.051 A 
ATOM     10  C   UNL     1       8.319  -2.208  -0.376  1.00  0.00     0.166 A 
ATOM     11  C   UNL     1       8.258  -2.474  -1.725  1.00  0.00     0.165 A 
ATOM     12  O   UNL     1       8.606  -3.390   0.274  1.00  0.00    -0.454 OA
ATOM     13  O   UNL     1       8.513  -3.828  -1.878  1.00  0.00    -0.454 OA
ATOM     14  C   UNL     1       8.829  -4.429  -0.645  1.00  0.00     0.468 C 
ENDBRANCH   5   6
ENDBRANCH   1   5
TORSDOF 3
ENDMDL
