@<TRIPOS>MOLECULE
/home/cewinharhar/GITHUB/reincatalyze/data/processed/docking_pred/2023-May-25-1902_sub9_nm5_bs15_s42_ex16_mel10_mts10000_k50_ec01_g099_lra3e-4_lrc3e-3/b393d0f0af23d36e99ef7bf88514b4beffd0378d_ligand_9.pdbqt
 14 15 0 0 0
SMALL
GASTEIGER

@<TRIPOS>ATOM
      1  C          5.7660    1.3700   -0.3430 C.3     1  UNL1        0.0800
      2  C          5.1200    1.3000    0.9970 C.2     1  UNL1        0.1300
      3  C          5.4210    0.1990    1.9520 C.3     1  UNL1        0.0870
      4  O          4.3200    2.1490    1.3530 O.2     1  UNL1       -0.3000
      5  C          7.2550    1.1060   -0.2520 C.3     1  UNL1        0.0430
      6  C          7.6200   -0.1830   -0.8670 C.2     1  UNL1       -0.0440
      7  C          7.6840   -0.3390   -2.2570 C.2     1  UNL1        0.0080
      8  C          7.9100   -1.2640   -0.0670 C.2     1  UNL1        0.0540
      9  C          8.0330   -1.5710   -2.7780 C.2     1  UNL1        0.0510
     10  C          8.2630   -2.5080   -0.5990 C.2     1  UNL1        0.1660
     11  C          8.3240   -2.6630   -1.9660 C.2     1  UNL1        0.1650
     12  O          8.5900   -3.7170   -0.0230 O.2     1  UNL1       -0.4540
     13  O          8.6930   -3.9770   -2.2040 O.2     1  UNL1       -0.4540
     14  C          8.9600   -4.6560   -1.0000 C.3     1  UNL1        0.4680
@<TRIPOS>BOND
     1     9     7    1
     2     9    11    2
     3     7     6    2
     4    13    11    1
     5    13    14    1
     6    11    10    1
     7    14    12    1
     8     6     5    1
     9     6     8    1
    10    10     8    2
    11    10    12    1
    12     1     5    1
    13     1     2    1
    14     2     4    2
    15     2     3    1
