@<TRIPOS>MOLECULE
/home/cewinharhar/GITHUB/reincatalyze/data/processed/docking_pred/2023-May-25-1902_sub9_nm5_bs15_s42_ex16_mel10_mts10000_k50_ec01_g099_lra3e-4_lrc3e-3/b393d0f0af23d36e99ef7bf88514b4beffd0378d_ligand_9.pdbqt
 14 15 0 0 0
SMALL
GASTEIGER

@<TRIPOS>ATOM
      1  C          6.8710    1.4600    1.0680 C.3     1  UNL1        0.0800
      2  C          5.4210    1.7570    0.8980 C.2     1  UNL1        0.1300
      3  C          4.8530    2.1450   -0.4210 C.3     1  UNL1        0.0870
      4  O          4.6520    1.6900    1.8430 O.2     1  UNL1       -0.3000
      5  C          7.5980    1.4880   -0.2610 C.3     1  UNL1        0.0430
      6  C          7.8210    0.1310   -0.7910 C.2     1  UNL1       -0.0440
      7  C          7.7610   -0.1390   -2.1630 C.2     1  UNL1        0.0080
      8  C          8.0980   -0.9030    0.0740 C.2     1  UNL1        0.0540
      9  C          7.9790   -1.4310   -2.6030 C.2     1  UNL1        0.0510
     10  C          8.3190   -2.2080   -0.3760 C.2     1  UNL1        0.1660
     11  C          8.2580   -2.4740   -1.7250 C.2     1  UNL1        0.1650
     12  O          8.6060   -3.3900    0.2740 O.2     1  UNL1       -0.4540
     13  O          8.5130   -3.8280   -1.8780 O.2     1  UNL1       -0.4540
     14  C          8.8290   -4.4290   -0.6450 C.3     1  UNL1        0.4680
@<TRIPOS>BOND
     1     9     7    1
     2     9    11    2
     3     7     6    2
     4    13    11    1
     5    13    14    1
     6    11    10    1
     7     6     5    1
     8     6     8    1
     9    14    12    1
    10     3     2    1
    11    10     8    2
    12    10    12    1
    13     5     1    1
    14     2     1    1
    15     2     4    2
