@<TRIPOS>MOLECULE
/home/cewinharhar/GITHUB/reincatalyze/data/processed/docking_pred/2023-May-25-1902_sub9_nm5_bs15_s42_ex16_mel10_mts10000_k50_ec01_g099_lra3e-4_lrc3e-3/b393d0f0af23d36e99ef7bf88514b4beffd0378d_ligand_9.pdbqt
 14 15 0 0 0
SMALL
GASTEIGER

@<TRIPOS>ATOM
      1  C          5.5070    1.9030    1.2740 C.3     1  UNL1        0.0800
      2  C          5.0620    0.6830    2.0030 C.2     1  UNL1        0.1300
      3  C          5.9380   -0.5120    2.1340 C.3     1  UNL1        0.0870
      4  O          3.9550    0.6280    2.5150 O.2     1  UNL1       -0.3000
      5  C          5.3860    1.7250   -0.2260 C.3     1  UNL1        0.0430
      6  C          6.5550    1.0280   -0.7900 C.2     1  UNL1       -0.0440
      7  C          7.8610    1.4700   -0.5450 C.2     1  UNL1        0.0080
      8  C          6.3720   -0.0870   -1.5760 C.2     1  UNL1        0.0540
      9  C          8.9200    0.7760   -1.1000 C.2     1  UNL1        0.0510
     10  C          7.4460   -0.7860   -2.1340 C.2     1  UNL1        0.1660
     11  C          8.7310   -0.3510   -1.8950 C.2     1  UNL1        0.1650
     12  O          7.5240   -1.9040   -2.9380 O.2     1  UNL1       -0.4540
     13  O          9.5790   -1.2200   -2.5620 O.2     1  UNL1       -0.4540
     14  C          8.8610   -2.2720   -3.1610 C.3     1  UNL1        0.4680
@<TRIPOS>BOND
     1    14    12    1
     2    14    13    1
     3    12    10    1
     4    13    11    1
     5    10    11    2
     6    10     8    1
     7    11     9    1
     8     8     6    2
     9     9     7    2
    10     6     7    1
    11     6     5    1
    12     5     1    1
    13     1     2    1
    14     2     3    1
    15     2     4    2
