@<TRIPOS>MOLECULE
/home/cewinharhar/GITHUB/reincatalyze/data/processed/docking_pred/2023-May-25-1902_sub9_nm5_bs15_s42_ex16_mel10_mts10000_k50_ec01_g099_lra3e-4_lrc3e-3/b3ccd1df948aefc26948fdc9bbc960af2f6fd47d_ligand_9.pdbqt
 14 15 0 0 0
SMALL
GASTEIGER

@<TRIPOS>ATOM
      1  C          5.5350    1.8940    1.2790 C.3     1  UNL1        0.0800
      2  C          5.0900    0.6720    2.0060 C.2     1  UNL1        0.1300
      3  C          5.9800   -0.5090    2.1640 C.3     1  UNL1        0.0870
      4  O          3.9750    0.6060    2.4970 O.2     1  UNL1       -0.3000
      5  C          5.4090    1.7170   -0.2220 C.3     1  UNL1        0.0430
      6  C          6.5750    1.0170   -0.7890 C.2     1  UNL1       -0.0440
      7  C          7.8830    1.4510   -0.5400 C.2     1  UNL1        0.0080
      8  C          6.3860   -0.0910   -1.5820 C.2     1  UNL1        0.0540
      9  C          8.9380    0.7530   -1.0990 C.2     1  UNL1        0.0510
     10  C          7.4570   -0.7930   -2.1440 C.2     1  UNL1        0.1660
     11  C          8.7430   -0.3670   -1.9010 C.2     1  UNL1        0.1650
     12  O          7.5290   -1.9060   -2.9550 O.2     1  UNL1       -0.4540
     13  O          9.5880   -1.2370   -2.5730 O.2     1  UNL1       -0.4540
     14  C          8.8640   -2.2800   -3.1800 C.3     1  UNL1        0.4680
@<TRIPOS>BOND
     1    14    12    1
     2    14    13    1
     3    12    10    1
     4    13    11    1
     5    10    11    2
     6    10     8    1
     7    11     9    1
     8     8     6    2
     9     9     7    2
    10     6     7    1
    11     6     5    1
    12     5     1    1
    13     1     2    1
    14     2     3    1
    15     2     4    2
