@<TRIPOS>MOLECULE
/home/cewinharhar/GITHUB/reincatalyze/data/processed/docking_pred/2023-May-25-1902_sub9_nm5_bs15_s42_ex16_mel10_mts10000_k50_ec01_g099_lra3e-4_lrc3e-3/b3ccd1df948aefc26948fdc9bbc960af2f6fd47d_ligand_9.pdbqt
 14 15 0 0 0
SMALL
GASTEIGER

@<TRIPOS>ATOM
      1  C          5.7750    1.3700   -0.2790 C.3     1  UNL1        0.0800
      2  C          5.1770    1.2660    1.0820 C.2     1  UNL1        0.1300
      3  C          5.4280    0.0910    1.9580 C.3     1  UNL1        0.0870
      4  O          4.4570    2.1500    1.5180 O.2     1  UNL1       -0.3000
      5  C          7.2700    1.1200   -0.2430 C.3     1  UNL1        0.0430
      6  C          7.6210   -0.1790   -0.8440 C.2     1  UNL1       -0.0440
      7  C          7.6500   -0.3610   -2.2310 C.2     1  UNL1        0.0080
      8  C          7.9330   -1.2450   -0.0310 C.2     1  UNL1        0.0540
      9  C          7.9880   -1.6020   -2.7380 C.2     1  UNL1        0.0510
     10  C          8.2750   -2.4980   -0.5480 C.2     1  UNL1        0.1660
     11  C          8.3020   -2.6780   -1.9130 C.2     1  UNL1        0.1650
     12  O          8.6200   -3.6960    0.0410 O.2     1  UNL1       -0.4540
     13  O          8.6680   -3.9960   -2.1360 O.2     1  UNL1       -0.4540
     14  C          8.9660   -4.6520   -0.9270 C.3     1  UNL1        0.4680
@<TRIPOS>BOND
     1     9     7    1
     2     9    11    2
     3     7     6    2
     4    13    11    1
     5    13    14    1
     6    11    10    1
     7    14    12    1
     8     6     5    1
     9     6     8    1
    10    10     8    2
    11    10    12    1
    12     1     5    1
    13     1     2    1
    14     2     4    2
    15     2     3    1
