@<TRIPOS>MOLECULE
/home/cewinharhar/GITHUB/reincatalyze/data/processed/docking_pred/2023-May-25-1902_sub9_nm5_bs15_s42_ex16_mel10_mts10000_k50_ec01_g099_lra3e-4_lrc3e-3/b3ccd1df948aefc26948fdc9bbc960af2f6fd47d_ligand_9.pdbqt
 14 15 0 0 0
SMALL
GASTEIGER

@<TRIPOS>ATOM
      1  C          6.3860    1.1690    0.9700 C.3     1  UNL1        0.0800
      2  C          5.6810    0.3300    1.9790 C.2     1  UNL1        0.1300
      3  C          6.3120   -0.8820    2.5660 C.3     1  UNL1        0.0870
      4  O          4.5550    0.6150    2.3540 O.2     1  UNL1       -0.3000
      5  C          5.8670    0.9020   -0.4280 C.3     1  UNL1        0.0430
      6  C          6.8100    0.0880   -1.2160 C.2     1  UNL1       -0.0440
      7  C          7.4830    0.6130   -2.3250 C.2     1  UNL1        0.0080
      8  C          7.0440   -1.2200   -0.8590 C.2     1  UNL1        0.0540
      9  C          8.3570   -0.1980   -3.0250 C.2     1  UNL1        0.0510
     10  C          7.9300   -2.0360   -1.5700 C.2     1  UNL1        0.1660
     11  C          8.5910   -1.5210   -2.6620 C.2     1  UNL1        0.1650
     12  O          8.3270   -3.3480   -1.4180 O.2     1  UNL1       -0.4540
     13  O          9.3900   -2.5370   -3.1630 O.2     1  UNL1       -0.4540
     14  C          9.3210   -3.6840   -2.3510 C.3     1  UNL1        0.4680
@<TRIPOS>BOND
     1    13    11    1
     2    13    14    1
     3     9    11    2
     4     9     7    1
     5    11    10    1
     6    14    12    1
     7     7     6    2
     8    10    12    1
     9    10     8    2
    10     6     8    1
    11     6     5    1
    12     5     1    1
    13     1     2    1
    14     2     4    2
    15     2     3    1
