MODEL 1
REMARK VINA RESULT:      -7.7      0.000      0.000
REMARK SMILES CC(=O)CCc1ccc2c(c1)OCO2
REMARK SMILES IDX 4 1 2 2 1 3 3 4 5 5 6 6 7 7 11 8 8 9 10 10 9 11 12 12 14 13
REMARK SMILES IDX 13 14
REMARK H PARENT
REMARK Flexibility Score: inf
ROOT
ATOM      1  C   UNL     1       5.535   1.894   1.279  1.00  0.00     0.080 C 
ENDROOT
BRANCH   1   2
ATOM      2  C   UNL     1       5.090   0.672   2.006  1.00  0.00     0.130 C 
ATOM      3  C   UNL     1       5.980  -0.509   2.164  1.00  0.00     0.087 C 
ATOM      4  O   UNL     1       3.975   0.606   2.497  1.00  0.00    -0.300 OA
ENDBRANCH   1   2
BRANCH   1   5
ATOM      5  C   UNL     1       5.409   1.717  -0.222  1.00  0.00     0.043 C 
BRANCH   5   6
ATOM      6  C   UNL     1       6.575   1.017  -0.789  1.00  0.00    -0.044 A 
ATOM      7  C   UNL     1       7.883   1.451  -0.540  1.00  0.00     0.008 A 
ATOM      8  C   UNL     1       6.386  -0.091  -1.582  1.00  0.00     0.054 A 
ATOM      9  C   UNL     1       8.938   0.753  -1.099  1.00  0.00     0.051 A 
ATOM     10  C   UNL     1       7.457  -0.793  -2.144  1.00  0.00     0.166 A 
ATOM     11  C   UNL     1       8.743  -0.367  -1.901  1.00  0.00     0.165 A 
ATOM     12  O   UNL     1       7.529  -1.906  -2.955  1.00  0.00    -0.454 OA
ATOM     13  O   UNL     1       9.588  -1.237  -2.573  1.00  0.00    -0.454 OA
ATOM     14  C   UNL     1       8.864  -2.280  -3.180  1.00  0.00     0.468 C 
ENDBRANCH   5   6
ENDBRANCH   1   5
TORSDOF 3
ENDMDL
MODEL 2
REMARK VINA RESULT:      -7.4      1.937      2.397
REMARK SMILES CC(=O)CCc1ccc2c(c1)OCO2
REMARK SMILES IDX 4 1 2 2 1 3 3 4 5 5 6 6 7 7 11 8 8 9 10 10 9 11 12 12 14 13
REMARK SMILES IDX 13 14
REMARK H PARENT
REMARK Flexibility Score: inf
ROOT
ATOM      1  C   UNL     1       5.775   1.370  -0.279  1.00  0.00     0.080 C 
ENDROOT
BRANCH   1   2
ATOM      2  C   UNL     1       5.177   1.266   1.082  1.00  0.00     0.130 C 
ATOM      3  C   UNL     1       5.428   0.091   1.958  1.00  0.00     0.087 C 
ATOM      4  O   UNL     1       4.457   2.150   1.518  1.00  0.00    -0.300 OA
ENDBRANCH   1   2
BRANCH   1   5
ATOM      5  C   UNL     1       7.270   1.120  -0.243  1.00  0.00     0.043 C 
BRANCH   5   6
ATOM      6  C   UNL     1       7.621  -0.179  -0.844  1.00  0.00    -0.044 A 
ATOM      7  C   UNL     1       7.650  -0.361  -2.231  1.00  0.00     0.008 A 
ATOM      8  C   UNL     1       7.933  -1.245  -0.031  1.00  0.00     0.054 A 
ATOM      9  C   UNL     1       7.988  -1.602  -2.738  1.00  0.00     0.051 A 
ATOM     10  C   UNL     1       8.275  -2.498  -0.548  1.00  0.00     0.166 A 
ATOM     11  C   UNL     1       8.302  -2.678  -1.913  1.00  0.00     0.165 A 
ATOM     12  O   UNL     1       8.620  -3.696   0.041  1.00  0.00    -0.454 OA
ATOM     13  O   UNL     1       8.668  -3.996  -2.136  1.00  0.00    -0.454 OA
ATOM     14  C   UNL     1       8.966  -4.652  -0.927  1.00  0.00     0.468 C 
ENDBRANCH   5   6
ENDBRANCH   1   5
TORSDOF 3
ENDMDL
MODEL 3
REMARK VINA RESULT:      -7.2      2.043      2.619
REMARK SMILES CC(=O)CCc1ccc2c(c1)OCO2
REMARK SMILES IDX 4 1 2 2 1 3 3 4 5 5 6 6 7 7 11 8 8 9 10 10 9 11 12 12 14 13
REMARK SMILES IDX 13 14
REMARK H PARENT
REMARK Flexibility Score: inf
ROOT
ATOM      1  C   UNL     1       5.394  -0.062   2.012  1.00  0.00     0.080 C 
ENDROOT
BRANCH   1   2
ATOM      2  C   UNL     1       4.557   1.147   1.771  1.00  0.00     0.130 C 
ATOM      3  C   UNL     1       4.899   2.136   0.714  1.00  0.00     0.087 C 
ATOM      4  O   UNL     1       3.560   1.362   2.441  1.00  0.00    -0.300 OA
ENDBRANCH   1   2
BRANCH   1   5
ATOM      5  C   UNL     1       6.836   0.179   1.612  1.00  0.00     0.043 C 
BRANCH   5   6
ATOM      6  C   UNL     1       7.267  -0.737   0.541  1.00  0.00    -0.044 A 
ATOM      7  C   UNL     1       7.137  -0.396  -0.810  1.00  0.00     0.008 A 
ATOM      8  C   UNL     1       7.812  -1.958   0.865  1.00  0.00     0.054 A 
ATOM      9  C   UNL     1       7.559  -1.295  -1.773  1.00  0.00     0.051 A 
ATOM     10  C   UNL     1       8.238  -2.863  -0.111  1.00  0.00     0.166 A 
ATOM     11  C   UNL     1       8.110  -2.529  -1.441  1.00  0.00     0.165 A 
ATOM     12  O   UNL     1       8.803  -4.119  -0.045  1.00  0.00    -0.454 OA
ATOM     13  O   UNL     1       8.606  -3.598  -2.172  1.00  0.00    -0.454 OA
ATOM     14  C   UNL     1       9.138  -4.589  -1.326  1.00  0.00     0.468 C 
ENDBRANCH   5   6
ENDBRANCH   1   5
TORSDOF 3
ENDMDL
MODEL 4
REMARK VINA RESULT:      -7.1      1.256      1.461
REMARK SMILES CC(=O)CCc1ccc2c(c1)OCO2
REMARK SMILES IDX 4 1 2 2 1 3 3 4 5 5 6 6 7 7 11 8 8 9 10 10 9 11 12 12 14 13
REMARK SMILES IDX 13 14
REMARK H PARENT
REMARK Flexibility Score: inf
ROOT
ATOM      1  C   UNL     1       6.386   1.169   0.970  1.00  0.00     0.080 C 
ENDROOT
BRANCH   1   2
ATOM      2  C   UNL     1       5.681   0.330   1.979  1.00  0.00     0.130 C 
ATOM      3  C   UNL     1       6.312  -0.882   2.566  1.00  0.00     0.087 C 
ATOM      4  O   UNL     1       4.555   0.615   2.354  1.00  0.00    -0.300 OA
ENDBRANCH   1   2
BRANCH   1   5
ATOM      5  C   UNL     1       5.867   0.902  -0.428  1.00  0.00     0.043 C 
BRANCH   5   6
ATOM      6  C   UNL     1       6.810   0.088  -1.216  1.00  0.00    -0.044 A 
ATOM      7  C   UNL     1       7.483   0.613  -2.325  1.00  0.00     0.008 A 
ATOM      8  C   UNL     1       7.044  -1.220  -0.859  1.00  0.00     0.054 A 
ATOM      9  C   UNL     1       8.357  -0.198  -3.025  1.00  0.00     0.051 A 
ATOM     10  C   UNL     1       7.930  -2.036  -1.570  1.00  0.00     0.166 A 
ATOM     11  C   UNL     1       8.591  -1.521  -2.662  1.00  0.00     0.165 A 
ATOM     12  O   UNL     1       8.327  -3.348  -1.418  1.00  0.00    -0.454 OA
ATOM     13  O   UNL     1       9.390  -2.537  -3.163  1.00  0.00    -0.454 OA
ATOM     14  C   UNL     1       9.321  -3.684  -2.351  1.00  0.00     0.468 C 
ENDBRANCH   5   6
ENDBRANCH   1   5
TORSDOF 3
ENDMDL
MODEL 5
REMARK VINA RESULT:      -6.8      1.188      5.164
REMARK SMILES CC(=O)CCc1ccc2c(c1)OCO2
REMARK SMILES IDX 4 1 2 2 1 3 3 4 5 5 6 6 7 7 11 8 8 9 10 10 9 11 12 12 14 13
REMARK SMILES IDX 13 14
REMARK H PARENT
REMARK Flexibility Score: inf
ROOT
ATOM      1  C   UNL     1       8.348   0.189  -2.676  1.00  0.00     0.080 C 
ENDROOT
BRANCH   1   2
ATOM      2  C   UNL     1       8.058  -1.270  -2.766  1.00  0.00     0.130 C 
ATOM      3  C   UNL     1       9.131  -2.264  -3.032  1.00  0.00     0.087 C 
ATOM      4  O   UNL     1       6.922  -1.693  -2.622  1.00  0.00    -0.300 OA
ENDBRANCH   1   2
BRANCH   1   5
ATOM      5  C   UNL     1       8.876   0.561  -1.305  1.00  0.00     0.043 C 
BRANCH   5   6
ATOM      6  C   UNL     1       7.843   0.420  -0.264  1.00  0.00    -0.044 A 
ATOM      7  C   UNL     1       7.951  -0.537   0.752  1.00  0.00     0.008 A 
ATOM      8  C   UNL     1       6.742   1.246  -0.279  1.00  0.00     0.054 A 
ATOM      9  C   UNL     1       6.950  -0.623   1.703  1.00  0.00     0.051 A 
ATOM     10  C   UNL     1       5.733   1.156   0.685  1.00  0.00     0.166 A 
ATOM     11  C   UNL     1       5.838   0.213   1.684  1.00  0.00     0.165 A 
ATOM     12  O   UNL     1       4.558   1.849   0.883  1.00  0.00    -0.454 OA
ATOM     13  O   UNL     1       4.714   0.350   2.484  1.00  0.00    -0.454 OA
ATOM     14  C   UNL     1       3.921   1.435   2.065  1.00  0.00     0.468 C 
ENDBRANCH   5   6
ENDBRANCH   1   5
TORSDOF 3
ENDMDL
