@<TRIPOS>MOLECULE
/home/cewinharhar/GITHUB/reincatalyze/data/processed/docking_pred/2023-May-25-1902_sub9_nm5_bs15_s42_ex16_mel10_mts10000_k50_ec01_g099_lra3e-4_lrc3e-3/b3ccd1df948aefc26948fdc9bbc960af2f6fd47d_ligand_9.pdbqt
 14 15 0 0 0
SMALL
GASTEIGER

@<TRIPOS>ATOM
      1  C          5.3940   -0.0620    2.0120 C.3     1  UNL1        0.0800
      2  C          4.5570    1.1470    1.7710 C.2     1  UNL1        0.1300
      3  C          4.8990    2.1360    0.7140 C.3     1  UNL1        0.0870
      4  O          3.5600    1.3620    2.4410 O.2     1  UNL1       -0.3000
      5  C          6.8360    0.1790    1.6120 C.3     1  UNL1        0.0430
      6  C          7.2670   -0.7370    0.5410 C.2     1  UNL1       -0.0440
      7  C          7.1370   -0.3960   -0.8100 C.2     1  UNL1        0.0080
      8  C          7.8120   -1.9580    0.8650 C.2     1  UNL1        0.0540
      9  C          7.5590   -1.2950   -1.7730 C.2     1  UNL1        0.0510
     10  C          8.2380   -2.8630   -0.1110 C.2     1  UNL1        0.1660
     11  C          8.1100   -2.5290   -1.4410 C.2     1  UNL1        0.1650
     12  O          8.8030   -4.1190   -0.0450 O.2     1  UNL1       -0.4540
     13  O          8.6060   -3.5980   -2.1720 O.2     1  UNL1       -0.4540
     14  C          9.1380   -4.5890   -1.3260 C.3     1  UNL1        0.4680
@<TRIPOS>BOND
     1    13    11    1
     2    13    14    1
     3     9    11    2
     4     9     7    1
     5    11    10    1
     6    14    12    1
     7     7     6    2
     8    10    12    1
     9    10     8    2
    10     6     8    1
    11     6     5    1
    12     3     2    1
    13     5     1    1
    14     2     1    1
    15     2     4    2
