@<TRIPOS>MOLECULE
/home/cewinharhar/GITHUB/reincatalyze/data/processed/docking_pred/2023-May-25-1902_sub9_nm5_bs15_s42_ex16_mel10_mts10000_k50_ec01_g099_lra3e-4_lrc3e-3/b3efa5aa79561967f2a1346927635c3d7bfec8a2_ligand_9.pdbqt
 14 15 0 0 0
SMALL
GASTEIGER

@<TRIPOS>ATOM
      1  C          8.2660    0.1870   -2.6510 C.3     1  UNL1        0.0800
      2  C          8.0130   -1.2790   -2.7390 C.2     1  UNL1        0.1300
      3  C          9.1120   -2.2460   -3.0000 C.3     1  UNL1        0.0870
      4  O          6.8880   -1.7300   -2.5990 O.2     1  UNL1       -0.3000
      5  C          8.7870    0.5740   -1.2810 C.3     1  UNL1        0.0430
      6  C          7.7530    0.4310   -0.2420 C.2     1  UNL1       -0.0440
      7  C          7.8060   -0.5950    0.7090 C.2     1  UNL1        0.0080
      8  C          6.7050    1.3230   -0.1940 C.2     1  UNL1        0.0540
      9  C          6.8080   -0.6790    1.6620 C.2     1  UNL1        0.0510
     10  C          5.6980    1.2330    0.7720 C.2     1  UNL1        0.1660
     11  C          5.7500    0.2240    1.7070 C.2     1  UNL1        0.1650
     12  O          4.5700    1.9840    1.0250 O.2     1  UNL1       -0.4540
     13  O          4.6410    0.3780    2.5250 O.2     1  UNL1       -0.4540
     14  C          3.9160    1.5360    2.1840 C.3     1  UNL1        0.4680
@<TRIPOS>BOND
     1     3     2    1
     2     2     1    1
     3     2     4    2
     4     1     5    1
     5     5     6    1
     6     6     8    2
     7     6     7    1
     8     8    10    1
     9     7     9    2
    10    10    12    1
    11    10    11    2
    12    12    14    1
    13     9    11    1
    14    11    13    1
    15    14    13    1
