@<TRIPOS>MOLECULE
/home/cewinharhar/GITHUB/reincatalyze/data/processed/docking_pred/2023-May-25-1902_sub9_nm5_bs15_s42_ex16_mel10_mts10000_k50_ec01_g099_lra3e-4_lrc3e-3/b3efa5aa79561967f2a1346927635c3d7bfec8a2_ligand_9.pdbqt
 14 15 0 0 0
SMALL
GASTEIGER

@<TRIPOS>ATOM
      1  C          5.4440    0.0010    2.0560 C.3     1  UNL1        0.0800
      2  C          4.6190    1.2210    1.8330 C.2     1  UNL1        0.1300
      3  C          4.8880    2.1500    0.7030 C.3     1  UNL1        0.0870
      4  O          3.6910    1.4940    2.5770 O.2     1  UNL1       -0.3000
      5  C          6.8850    0.2290    1.6440 C.3     1  UNL1        0.0430
      6  C          7.2990   -0.6940    0.5720 C.2     1  UNL1       -0.0440
      7  C          7.1770   -0.3490   -0.7790 C.2     1  UNL1        0.0080
      8  C          7.8210   -1.9250    0.8960 C.2     1  UNL1        0.0540
      9  C          7.5830   -1.2560   -1.7420 C.2     1  UNL1        0.0510
     10  C          8.2310   -2.8380   -0.0810 C.2     1  UNL1        0.1660
     11  C          8.1100   -2.5000   -1.4110 C.2     1  UNL1        0.1650
     12  O          8.7720   -4.1040   -0.0170 O.2     1  UNL1       -0.4540
     13  O          8.5860   -3.5770   -2.1430 O.2     1  UNL1       -0.4540
     14  C          9.0990   -4.5790   -1.2970 C.3     1  UNL1        0.4680
@<TRIPOS>BOND
     1    13    11    1
     2    13    14    1
     3     9    11    2
     4     9     7    1
     5    11    10    1
     6    14    12    1
     7     7     6    2
     8    10    12    1
     9    10     8    2
    10     6     8    1
    11     6     5    1
    12     3     2    1
    13     5     1    1
    14     2     1    1
    15     2     4    2
