@<TRIPOS>MOLECULE
/home/cewinharhar/GITHUB/reincatalyze/data/processed/docking_pred/2023-May-25-1902_sub9_nm5_bs15_s42_ex16_mel10_mts10000_k50_ec01_g099_lra3e-4_lrc3e-3/b3efa5aa79561967f2a1346927635c3d7bfec8a2_ligand_9.pdbqt
 14 15 0 0 0
SMALL
GASTEIGER

@<TRIPOS>ATOM
      1  C          5.0590    0.8090    1.5510 C.3     1  UNL1        0.0800
      2  C          6.1580    0.1950    2.3480 C.2     1  UNL1        0.1300
      3  C          6.4480   -1.2620    2.2860 C.3     1  UNL1        0.0870
      4  O          6.8570    0.8770    3.0810 O.2     1  UNL1       -0.3000
      5  C          5.6060    1.7070    0.4590 C.3     1  UNL1        0.0430
      6  C          6.6700    1.0410   -0.3140 C.2     1  UNL1       -0.0440
      7  C          7.9860    1.5170   -0.3090 C.2     1  UNL1        0.0080
      8  C          6.3730   -0.0760   -1.0600 C.2     1  UNL1        0.0540
      9  C          8.9430    0.8510   -1.0530 C.2     1  UNL1        0.0510
     10  C          7.3440   -0.7460   -1.8110 C.2     1  UNL1        0.1660
     11  C          8.6400   -0.2790   -1.8070 C.2     1  UNL1        0.1650
     12  O          7.3020   -1.8600   -2.6220 O.2     1  UNL1       -0.4540
     13  O          9.3730   -1.1240   -2.6240 O.2     1  UNL1       -0.4540
     14  C          8.5840   -2.1930   -3.0890 C.3     1  UNL1        0.4680
@<TRIPOS>BOND
     1    14    13    1
     2    14    12    1
     3    13    11    1
     4    12    10    1
     5    10    11    2
     6    10     8    1
     7    11     9    1
     8     8     6    2
     9     9     7    2
    10     6     7    1
    11     6     5    1
    12     5     1    1
    13     1     2    1
    14     3     2    1
    15     2     4    2
