@<TRIPOS>MOLECULE
/home/cewinharhar/GITHUB/reincatalyze/data/processed/docking_pred/2023-May-25-1902_sub9_nm5_bs15_s42_ex16_mel10_mts10000_k50_ec01_g099_lra3e-4_lrc3e-3/b3efa5aa79561967f2a1346927635c3d7bfec8a2_ligand_9.pdbqt
 14 15 0 0 0
SMALL
GASTEIGER

@<TRIPOS>ATOM
      1  C          5.4360    1.3430    0.2880 C.3     1  UNL1        0.0800
      2  C          5.2430    1.2350    1.7610 C.2     1  UNL1        0.1300
      3  C          6.3590    0.8600    2.6700 C.3     1  UNL1        0.0870
      4  O          4.1540    1.4520    2.2680 O.2     1  UNL1       -0.3000
      5  C          6.9080    1.3540   -0.0750 C.3     1  UNL1        0.0430
      6  C          7.3170    0.1020   -0.7350 C.2     1  UNL1       -0.0440
      7  C          7.3150   -0.0270   -2.1290 C.2     1  UNL1        0.0080
      8  C          7.7160   -0.9730    0.0270 C.2     1  UNL1        0.0540
      9  C          7.7110   -1.2260   -2.6920 C.2     1  UNL1        0.0510
     10  C          8.1150   -2.1830   -0.5470 C.2     1  UNL1        0.1660
     11  C          8.1120   -2.3110   -1.9190 C.2     1  UNL1        0.1650
     12  O          8.5470   -3.3790   -0.0150 O.2     1  UNL1       -0.4540
     13  O          8.5480   -3.5950   -2.2020 O.2     1  UNL1       -0.4540
     14  C          8.9210   -4.2770   -1.0280 C.3     1  UNL1        0.4680
@<TRIPOS>BOND
     1     9     7    1
     2     9    11    2
     3    13    11    1
     4    13    14    1
     5     7     6    2
     6    11    10    1
     7    14    12    1
     8     6     5    1
     9     6     8    1
    10    10    12    1
    11    10     8    2
    12     5     1    1
    13     1     2    1
    14     2     4    2
    15     2     3    1
