MODEL 1
REMARK VINA RESULT:      -7.9      0.000      0.000
REMARK SMILES CC(=O)CCc1ccc2c(c1)OCO2
REMARK SMILES IDX 4 1 2 2 1 3 3 4 5 5 6 6 7 7 11 8 8 9 10 10 9 11 12 12 14 13
REMARK SMILES IDX 13 14
REMARK H PARENT
REMARK Flexibility Score: inf
ROOT
ATOM      1  C   UNL     1       5.504   2.069   1.366  1.00  0.00     0.080 C 
ENDROOT
BRANCH   1   2
ATOM      2  C   UNL     1       4.907   0.913   2.092  1.00  0.00     0.130 C 
ATOM      3  C   UNL     1       5.607  -0.395   2.189  1.00  0.00     0.087 C 
ATOM      4  O   UNL     1       3.816   1.009   2.632  1.00  0.00    -0.300 OA
ENDBRANCH   1   2
BRANCH   1   5
ATOM      5  C   UNL     1       5.383   1.898  -0.135  1.00  0.00     0.043 C 
BRANCH   5   6
ATOM      6  C   UNL     1       6.533   1.167  -0.697  1.00  0.00    -0.044 A 
ATOM      7  C   UNL     1       7.850   1.553  -0.424  1.00  0.00     0.008 A 
ATOM      8  C   UNL     1       6.318   0.076  -1.508  1.00  0.00     0.054 A 
ATOM      9  C   UNL     1       8.890   0.829  -0.979  1.00  0.00     0.051 A 
ATOM     10  C   UNL     1       7.372  -0.653  -2.065  1.00  0.00     0.166 A 
ATOM     11  C   UNL     1       8.669  -0.273  -1.799  1.00  0.00     0.165 A 
ATOM     12  O   UNL     1       7.418  -1.757  -2.890  1.00  0.00    -0.454 OA
ATOM     13  O   UNL     1       9.493  -1.162  -2.472  1.00  0.00    -0.454 OA
ATOM     14  C   UNL     1       8.743  -2.173  -3.102  1.00  0.00     0.468 C 
ENDBRANCH   5   6
ENDBRANCH   1   5
TORSDOF 3
ENDMDL
MODEL 2
REMARK VINA RESULT:      -7.5      2.117      2.640
REMARK SMILES CC(=O)CCc1ccc2c(c1)OCO2
REMARK SMILES IDX 4 1 2 2 1 3 3 4 5 5 6 6 7 7 11 8 8 9 10 10 9 11 12 12 14 13
REMARK SMILES IDX 13 14
REMARK H PARENT
REMARK Flexibility Score: inf
ROOT
ATOM      1  C   UNL     1       5.444   0.001   2.056  1.00  0.00     0.080 C 
ENDROOT
BRANCH   1   2
ATOM      2  C   UNL     1       4.619   1.221   1.833  1.00  0.00     0.130 C 
ATOM      3  C   UNL     1       4.888   2.150   0.703  1.00  0.00     0.087 C 
ATOM      4  O   UNL     1       3.691   1.494   2.577  1.00  0.00    -0.300 OA
ENDBRANCH   1   2
BRANCH   1   5
ATOM      5  C   UNL     1       6.885   0.229   1.644  1.00  0.00     0.043 C 
BRANCH   5   6
ATOM      6  C   UNL     1       7.299  -0.694   0.572  1.00  0.00    -0.044 A 
ATOM      7  C   UNL     1       7.177  -0.349  -0.779  1.00  0.00     0.008 A 
ATOM      8  C   UNL     1       7.821  -1.925   0.896  1.00  0.00     0.054 A 
ATOM      9  C   UNL     1       7.583  -1.256  -1.742  1.00  0.00     0.051 A 
ATOM     10  C   UNL     1       8.231  -2.838  -0.081  1.00  0.00     0.166 A 
ATOM     11  C   UNL     1       8.110  -2.500  -1.411  1.00  0.00     0.165 A 
ATOM     12  O   UNL     1       8.772  -4.104  -0.017  1.00  0.00    -0.454 OA
ATOM     13  O   UNL     1       8.586  -3.577  -2.143  1.00  0.00    -0.454 OA
ATOM     14  C   UNL     1       9.099  -4.579  -1.297  1.00  0.00     0.468 C 
ENDBRANCH   5   6
ENDBRANCH   1   5
TORSDOF 3
ENDMDL
MODEL 3
REMARK VINA RESULT:      -7.4      1.780      2.177
REMARK SMILES CC(=O)CCc1ccc2c(c1)OCO2
REMARK SMILES IDX 4 1 2 2 1 3 3 4 5 5 6 6 7 7 11 8 8 9 10 10 9 11 12 12 14 13
REMARK SMILES IDX 13 14
REMARK H PARENT
REMARK Flexibility Score: inf
ROOT
ATOM      1  C   UNL     1       5.436   1.343   0.288  1.00  0.00     0.080 C 
ENDROOT
BRANCH   1   2
ATOM      2  C   UNL     1       5.243   1.235   1.761  1.00  0.00     0.130 C 
ATOM      3  C   UNL     1       6.359   0.860   2.670  1.00  0.00     0.087 C 
ATOM      4  O   UNL     1       4.154   1.452   2.268  1.00  0.00    -0.300 OA
ENDBRANCH   1   2
BRANCH   1   5
ATOM      5  C   UNL     1       6.908   1.354  -0.075  1.00  0.00     0.043 C 
BRANCH   5   6
ATOM      6  C   UNL     1       7.317   0.102  -0.735  1.00  0.00    -0.044 A 
ATOM      7  C   UNL     1       7.315  -0.027  -2.129  1.00  0.00     0.008 A 
ATOM      8  C   UNL     1       7.716  -0.973   0.027  1.00  0.00     0.054 A 
ATOM      9  C   UNL     1       7.711  -1.226  -2.692  1.00  0.00     0.051 A 
ATOM     10  C   UNL     1       8.115  -2.183  -0.547  1.00  0.00     0.166 A 
ATOM     11  C   UNL     1       8.112  -2.311  -1.919  1.00  0.00     0.165 A 
ATOM     12  O   UNL     1       8.547  -3.379  -0.015  1.00  0.00    -0.454 OA
ATOM     13  O   UNL     1       8.548  -3.595  -2.202  1.00  0.00    -0.454 OA
ATOM     14  C   UNL     1       8.921  -4.277  -1.028  1.00  0.00     0.468 C 
ENDBRANCH   5   6
ENDBRANCH   1   5
TORSDOF 3
ENDMDL
MODEL 4
REMARK VINA RESULT:      -7.3      0.966      1.070
REMARK SMILES CC(=O)CCc1ccc2c(c1)OCO2
REMARK SMILES IDX 4 1 2 2 1 3 3 4 5 5 6 6 7 7 11 8 8 9 10 10 9 11 12 12 14 13
REMARK SMILES IDX 13 14
REMARK H PARENT
REMARK Flexibility Score: inf
ROOT
ATOM      1  C   UNL     1       5.059   0.809   1.551  1.00  0.00     0.080 C 
ENDROOT
BRANCH   1   2
ATOM      2  C   UNL     1       6.158   0.195   2.348  1.00  0.00     0.130 C 
ATOM      3  C   UNL     1       6.448  -1.262   2.286  1.00  0.00     0.087 C 
ATOM      4  O   UNL     1       6.857   0.877   3.081  1.00  0.00    -0.300 OA
ENDBRANCH   1   2
BRANCH   1   5
ATOM      5  C   UNL     1       5.606   1.707   0.459  1.00  0.00     0.043 C 
BRANCH   5   6
ATOM      6  C   UNL     1       6.670   1.041  -0.314  1.00  0.00    -0.044 A 
ATOM      7  C   UNL     1       7.986   1.517  -0.309  1.00  0.00     0.008 A 
ATOM      8  C   UNL     1       6.373  -0.076  -1.060  1.00  0.00     0.054 A 
ATOM      9  C   UNL     1       8.943   0.851  -1.053  1.00  0.00     0.051 A 
ATOM     10  C   UNL     1       7.344  -0.746  -1.811  1.00  0.00     0.166 A 
ATOM     11  C   UNL     1       8.640  -0.279  -1.807  1.00  0.00     0.165 A 
ATOM     12  O   UNL     1       7.302  -1.860  -2.622  1.00  0.00    -0.454 OA
ATOM     13  O   UNL     1       9.373  -1.124  -2.624  1.00  0.00    -0.454 OA
ATOM     14  C   UNL     1       8.584  -2.193  -3.089  1.00  0.00     0.468 C 
ENDBRANCH   5   6
ENDBRANCH   1   5
TORSDOF 3
ENDMDL
MODEL 5
REMARK VINA RESULT:      -7.2      1.214      5.214
REMARK SMILES CC(=O)CCc1ccc2c(c1)OCO2
REMARK SMILES IDX 4 1 2 2 1 3 3 4 5 5 6 6 7 7 11 8 8 9 10 10 9 11 12 12 14 13
REMARK SMILES IDX 13 14
REMARK H PARENT
REMARK Flexibility Score: inf
ROOT
ATOM      1  C   UNL     1       8.266   0.187  -2.651  1.00  0.00     0.080 C 
ENDROOT
BRANCH   1   2
ATOM      2  C   UNL     1       8.013  -1.279  -2.739  1.00  0.00     0.130 C 
ATOM      3  C   UNL     1       9.112  -2.246  -3.000  1.00  0.00     0.087 C 
ATOM      4  O   UNL     1       6.888  -1.730  -2.599  1.00  0.00    -0.300 OA
ENDBRANCH   1   2
BRANCH   1   5
ATOM      5  C   UNL     1       8.787   0.574  -1.281  1.00  0.00     0.043 C 
BRANCH   5   6
ATOM      6  C   UNL     1       7.753   0.431  -0.242  1.00  0.00    -0.044 A 
ATOM      7  C   UNL     1       7.806  -0.595   0.709  1.00  0.00     0.008 A 
ATOM      8  C   UNL     1       6.705   1.323  -0.194  1.00  0.00     0.054 A 
ATOM      9  C   UNL     1       6.808  -0.679   1.662  1.00  0.00     0.051 A 
ATOM     10  C   UNL     1       5.698   1.233   0.772  1.00  0.00     0.166 A 
ATOM     11  C   UNL     1       5.750   0.224   1.707  1.00  0.00     0.165 A 
ATOM     12  O   UNL     1       4.570   1.984   1.025  1.00  0.00    -0.454 OA
ATOM     13  O   UNL     1       4.641   0.378   2.525  1.00  0.00    -0.454 OA
ATOM     14  C   UNL     1       3.916   1.536   2.184  1.00  0.00     0.468 C 
ENDBRANCH   5   6
ENDBRANCH   1   5
TORSDOF 3
ENDMDL
