@<TRIPOS>MOLECULE
/home/cewinharhar/GITHUB/reincatalyze/data/processed/docking_pred/2023-May-25-1902_sub9_nm5_bs15_s42_ex16_mel10_mts10000_k50_ec01_g099_lra3e-4_lrc3e-3/b3efa5aa79561967f2a1346927635c3d7bfec8a2_ligand_9.pdbqt
 14 15 0 0 0
SMALL
GASTEIGER

@<TRIPOS>ATOM
      1  C          5.5040    2.0690    1.3660 C.3     1  UNL1        0.0800
      2  C          4.9070    0.9130    2.0920 C.2     1  UNL1        0.1300
      3  C          5.6070   -0.3950    2.1890 C.3     1  UNL1        0.0870
      4  O          3.8160    1.0090    2.6320 O.2     1  UNL1       -0.3000
      5  C          5.3830    1.8980   -0.1350 C.3     1  UNL1        0.0430
      6  C          6.5330    1.1670   -0.6970 C.2     1  UNL1       -0.0440
      7  C          7.8500    1.5530   -0.4240 C.2     1  UNL1        0.0080
      8  C          6.3180    0.0760   -1.5080 C.2     1  UNL1        0.0540
      9  C          8.8900    0.8290   -0.9790 C.2     1  UNL1        0.0510
     10  C          7.3720   -0.6530   -2.0650 C.2     1  UNL1        0.1660
     11  C          8.6690   -0.2730   -1.7990 C.2     1  UNL1        0.1650
     12  O          7.4180   -1.7570   -2.8900 O.2     1  UNL1       -0.4540
     13  O          9.4930   -1.1620   -2.4720 O.2     1  UNL1       -0.4540
     14  C          8.7430   -2.1730   -3.1020 C.3     1  UNL1        0.4680
@<TRIPOS>BOND
     1    14    12    1
     2    14    13    1
     3    12    10    1
     4    13    11    1
     5    10    11    2
     6    10     8    1
     7    11     9    1
     8     8     6    2
     9     9     7    2
    10     6     7    1
    11     6     5    1
    12     5     1    1
    13     1     2    1
    14     2     3    1
    15     2     4    2
