MODEL 1
REMARK VINA RESULT:      -7.7      0.000      0.000
REMARK SMILES CC(=O)CCc1ccc2c(c1)OCO2
REMARK SMILES IDX 4 1 2 2 1 3 3 4 5 5 6 6 7 7 11 8 8 9 10 10 9 11 12 12 14 13
REMARK SMILES IDX 13 14
REMARK H PARENT
REMARK Flexibility Score: inf
ROOT
ATOM      1  C   UNL     1       5.508   1.911   1.268  1.00  0.00     0.080 C 
ENDROOT
BRANCH   1   2
ATOM      2  C   UNL     1       5.063   0.692   2.000  1.00  0.00     0.130 C 
ATOM      3  C   UNL     1       5.942  -0.500   2.140  1.00  0.00     0.087 C 
ATOM      4  O   UNL     1       3.955   0.636   2.510  1.00  0.00    -0.300 OA
ENDBRANCH   1   2
BRANCH   1   5
ATOM      5  C   UNL     1       5.386   1.727  -0.231  1.00  0.00     0.043 C 
BRANCH   5   6
ATOM      6  C   UNL     1       6.556   1.031  -0.794  1.00  0.00    -0.044 A 
ATOM      7  C   UNL     1       7.861   1.473  -0.546  1.00  0.00     0.008 A 
ATOM      8  C   UNL     1       6.374  -0.083  -1.581  1.00  0.00     0.054 A 
ATOM      9  C   UNL     1       8.921   0.779  -1.100  1.00  0.00     0.051 A 
ATOM     10  C   UNL     1       7.449  -0.782  -2.138  1.00  0.00     0.166 A 
ATOM     11  C   UNL     1       8.733  -0.347  -1.896  1.00  0.00     0.165 A 
ATOM     12  O   UNL     1       7.529  -1.899  -2.943  1.00  0.00    -0.454 OA
ATOM     13  O   UNL     1       9.583  -1.216  -2.562  1.00  0.00    -0.454 OA
ATOM     14  C   UNL     1       8.866  -2.267  -3.164  1.00  0.00     0.468 C 
ENDBRANCH   5   6
ENDBRANCH   1   5
TORSDOF 3
ENDMDL
MODEL 2
REMARK VINA RESULT:      -7.5      1.921      2.381
REMARK SMILES CC(=O)CCc1ccc2c(c1)OCO2
REMARK SMILES IDX 4 1 2 2 1 3 3 4 5 5 6 6 7 7 11 8 8 9 10 10 9 11 12 12 14 13
REMARK SMILES IDX 13 14
REMARK H PARENT
REMARK Flexibility Score: inf
ROOT
ATOM      1  C   UNL     1       5.728   1.338  -0.287  1.00  0.00     0.080 C 
ENDROOT
BRANCH   1   2
ATOM      2  C   UNL     1       5.122   1.275   1.072  1.00  0.00     0.130 C 
ATOM      3  C   UNL     1       5.423   0.161   2.010  1.00  0.00     0.087 C 
ATOM      4  O   UNL     1       4.354   2.142   1.456  1.00  0.00    -0.300 OA
ENDBRANCH   1   2
BRANCH   1   5
ATOM      5  C   UNL     1       7.226   1.106  -0.233  1.00  0.00     0.043 C 
BRANCH   5   6
ATOM      6  C   UNL     1       7.602  -0.179  -0.847  1.00  0.00    -0.044 A 
ATOM      7  C   UNL     1       7.681  -0.333  -2.236  1.00  0.00     0.008 A 
ATOM      8  C   UNL     1       7.888  -1.261  -0.045  1.00  0.00     0.054 A 
ATOM      9  C   UNL     1       8.040  -1.564  -2.755  1.00  0.00     0.051 A 
ATOM     10  C   UNL     1       8.252  -2.502  -0.575  1.00  0.00     0.166 A 
ATOM     11  C   UNL     1       8.328  -2.655  -1.941  1.00  0.00     0.165 A 
ATOM     12  O   UNL     1       8.579  -3.711   0.002  1.00  0.00    -0.454 OA
ATOM     13  O   UNL     1       8.705  -3.968  -2.178  1.00  0.00    -0.454 OA
ATOM     14  C   UNL     1       8.962  -4.647  -0.972  1.00  0.00     0.468 C 
ENDBRANCH   5   6
ENDBRANCH   1   5
TORSDOF 3
ENDMDL
MODEL 3
REMARK VINA RESULT:      -7.2      2.072      2.623
REMARK SMILES CC(=O)CCc1ccc2c(c1)OCO2
REMARK SMILES IDX 4 1 2 2 1 3 3 4 5 5 6 6 7 7 11 8 8 9 10 10 9 11 12 12 14 13
REMARK SMILES IDX 13 14
REMARK H PARENT
REMARK Flexibility Score: inf
ROOT
ATOM      1  C   UNL     1       5.529   0.006   1.979  1.00  0.00     0.080 C 
ENDROOT
BRANCH   1   2
ATOM      2  C   UNL     1       4.652   1.167   1.663  1.00  0.00     0.130 C 
ATOM      3  C   UNL     1       4.985   2.124   0.574  1.00  0.00     0.087 C 
ATOM      4  O   UNL     1       3.627   1.368   2.295  1.00  0.00    -0.300 OA
ENDBRANCH   1   2
BRANCH   1   5
ATOM      5  C   UNL     1       6.952   0.249   1.516  1.00  0.00     0.043 C 
BRANCH   5   6
ATOM      6  C   UNL     1       7.356  -0.703   0.466  1.00  0.00    -0.044 A 
ATOM      7  C   UNL     1       7.229  -0.393  -0.893  1.00  0.00     0.008 A 
ATOM      8  C   UNL     1       7.873  -1.929   0.820  1.00  0.00     0.054 A 
ATOM      9  C   UNL     1       7.626  -1.326  -1.833  1.00  0.00     0.051 A 
ATOM     10  C   UNL     1       8.273  -2.868  -0.135  1.00  0.00     0.166 A 
ATOM     11  C   UNL     1       8.148  -2.565  -1.473  1.00  0.00     0.165 A 
ATOM     12  O   UNL     1       8.808  -4.135  -0.040  1.00  0.00    -0.454 OA
ATOM     13  O   UNL     1       8.614  -3.663  -2.178  1.00  0.00    -0.454 OA
ATOM     14  C   UNL     1       9.127  -4.645  -1.310  1.00  0.00     0.468 C 
ENDBRANCH   5   6
ENDBRANCH   1   5
TORSDOF 3
ENDMDL
MODEL 4
REMARK VINA RESULT:      -7.1      1.256      1.466
REMARK SMILES CC(=O)CCc1ccc2c(c1)OCO2
REMARK SMILES IDX 4 1 2 2 1 3 3 4 5 5 6 6 7 7 11 8 8 9 10 10 9 11 12 12 14 13
REMARK SMILES IDX 13 14
REMARK H PARENT
REMARK Flexibility Score: inf
ROOT
ATOM      1  C   UNL     1       6.380   1.204   0.943  1.00  0.00     0.080 C 
ENDROOT
BRANCH   1   2
ATOM      2  C   UNL     1       5.651   0.373   1.941  1.00  0.00     0.130 C 
ATOM      3  C   UNL     1       6.255  -0.854   2.525  1.00  0.00     0.087 C 
ATOM      4  O   UNL     1       4.529   0.677   2.310  1.00  0.00    -0.300 OA
ENDBRANCH   1   2
BRANCH   1   5
ATOM      5  C   UNL     1       5.878   0.943  -0.463  1.00  0.00     0.043 C 
BRANCH   5   6
ATOM      6  C   UNL     1       6.821   0.115  -1.236  1.00  0.00    -0.044 A 
ATOM      7  C   UNL     1       7.503   0.623  -2.347  1.00  0.00     0.008 A 
ATOM      8  C   UNL     1       7.046  -1.191  -0.862  1.00  0.00     0.054 A 
ATOM      9  C   UNL     1       8.376  -0.201  -3.033  1.00  0.00     0.051 A 
ATOM     10  C   UNL     1       7.931  -2.020  -1.559  1.00  0.00     0.166 A 
ATOM     11  C   UNL     1       8.601  -1.520  -2.653  1.00  0.00     0.165 A 
ATOM     12  O   UNL     1       8.320  -3.331  -1.390  1.00  0.00    -0.454 OA
ATOM     13  O   UNL     1       9.397  -2.546  -3.138  1.00  0.00    -0.454 OA
ATOM     14  C   UNL     1       9.319  -3.684  -2.313  1.00  0.00     0.468 C 
ENDBRANCH   5   6
ENDBRANCH   1   5
TORSDOF 3
ENDMDL
MODEL 5
REMARK VINA RESULT:      -6.8      1.197      5.175
REMARK SMILES CC(=O)CCc1ccc2c(c1)OCO2
REMARK SMILES IDX 4 1 2 2 1 3 3 4 5 5 6 6 7 7 11 8 8 9 10 10 9 11 12 12 14 13
REMARK SMILES IDX 13 14
REMARK H PARENT
REMARK Flexibility Score: inf
ROOT
ATOM      1  C   UNL     1       8.334   0.165  -2.690  1.00  0.00     0.080 C 
ENDROOT
BRANCH   1   2
ATOM      2  C   UNL     1       8.079  -1.299  -2.785  1.00  0.00     0.130 C 
ATOM      3  C   UNL     1       9.184  -2.273  -2.992  1.00  0.00     0.087 C 
ATOM      4  O   UNL     1       6.946  -1.745  -2.696  1.00  0.00    -0.300 OA
ENDBRANCH   1   2
BRANCH   1   5
ATOM      5  C   UNL     1       8.870   0.543  -1.323  1.00  0.00     0.043 C 
BRANCH   5   6
ATOM      6  C   UNL     1       7.839   0.414  -0.278  1.00  0.00    -0.044 A 
ATOM      7  C   UNL     1       7.948  -0.535   0.746  1.00  0.00     0.008 A 
ATOM      8  C   UNL     1       6.740   1.241  -0.297  1.00  0.00     0.054 A 
ATOM      9  C   UNL     1       6.951  -0.610   1.700  1.00  0.00     0.051 A 
ATOM     10  C   UNL     1       5.734   1.162   0.671  1.00  0.00     0.166 A 
ATOM     11  C   UNL     1       5.840   0.229   1.678  1.00  0.00     0.165 A 
ATOM     12  O   UNL     1       4.561   1.860   0.867  1.00  0.00    -0.454 OA
ATOM     13  O   UNL     1       4.719   0.375   2.480  1.00  0.00    -0.454 OA
ATOM     14  C   UNL     1       3.928   1.458   2.054  1.00  0.00     0.468 C 
ENDBRANCH   5   6
ENDBRANCH   1   5
TORSDOF 3
ENDMDL
