@<TRIPOS>MOLECULE
/home/cewinharhar/GITHUB/reincatalyze/data/processed/docking_pred/2023-May-25-1902_sub9_nm5_bs15_s42_ex16_mel10_mts10000_k50_ec01_g099_lra3e-4_lrc3e-3/b590df4aad401e291154b1741be08749940afe84_ligand_9.pdbqt
 14 15 0 0 0
SMALL
GASTEIGER

@<TRIPOS>ATOM
      1  C          5.5420    1.9020    1.2820 C.3     1  UNL1        0.0800
      2  C          5.1070    0.6800    2.0140 C.2     1  UNL1        0.1300
      3  C          6.0080   -0.4910    2.1840 C.3     1  UNL1        0.0870
      4  O          3.9890    0.6050    2.4980 O.2     1  UNL1       -0.3000
      5  C          5.4120    1.7200   -0.2180 C.3     1  UNL1        0.0430
      6  C          6.5760    1.0160   -0.7860 C.2     1  UNL1       -0.0440
      7  C          7.8850    1.4450   -0.5380 C.2     1  UNL1        0.0080
      8  C          6.3820   -0.0920   -1.5780 C.2     1  UNL1        0.0540
      9  C          8.9380    0.7440   -1.0980 C.2     1  UNL1        0.0510
     10  C          7.4500   -0.7980   -2.1410 C.2     1  UNL1        0.1660
     11  C          8.7380   -0.3760   -1.8990 C.2     1  UNL1        0.1650
     12  O          7.5170   -1.9120   -2.9510 O.2     1  UNL1       -0.4540
     13  O          9.5790   -1.2500   -2.5710 O.2     1  UNL1       -0.4540
     14  C          8.8500   -2.2910   -3.1770 C.3     1  UNL1        0.4680
@<TRIPOS>BOND
     1    14    12    1
     2    14    13    1
     3    12    10    1
     4    13    11    1
     5    10    11    2
     6    10     8    1
     7    11     9    1
     8     8     6    2
     9     9     7    2
    10     6     7    1
    11     6     5    1
    12     5     1    1
    13     1     2    1
    14     2     3    1
    15     2     4    2
