@<TRIPOS>MOLECULE
/home/cewinharhar/GITHUB/reincatalyze/data/processed/docking_pred/2023-May-25-1902_sub9_nm5_bs15_s42_ex16_mel10_mts10000_k50_ec01_g099_lra3e-4_lrc3e-3/b5d8ef79598a19f225f638ddcef2ce8c15e2d4c1_ligand_9.pdbqt
 14 15 0 0 0
SMALL
GASTEIGER

@<TRIPOS>ATOM
      1  C          5.5010    1.9430    1.2480 C.3     1  UNL1        0.0800
      2  C          5.0770    0.7260    1.9960 C.2     1  UNL1        0.1300
      3  C          5.9840   -0.4400    2.1690 C.3     1  UNL1        0.0870
      4  O          3.9640    0.6520    2.4920 O.2     1  UNL1       -0.3000
      5  C          5.3780    1.7390   -0.2490 C.3     1  UNL1        0.0430
      6  C          6.5490    1.0360   -0.8030 C.2     1  UNL1       -0.0440
      7  C          7.8540    1.4680   -0.5420 C.2     1  UNL1        0.0080
      8  C          6.3650   -0.0740   -1.5960 C.2     1  UNL1        0.0540
      9  C          8.9140    0.7680   -1.0890 C.2     1  UNL1        0.0510
     10  C          7.4400   -0.7790   -2.1460 C.2     1  UNL1        0.1660
     11  C          8.7250   -0.3540   -1.8900 C.2     1  UNL1        0.1650
     12  O          7.5190   -1.8940   -2.9530 O.2     1  UNL1       -0.4540
     13  O          9.5750   -1.2270   -2.5520 O.2     1  UNL1       -0.4540
     14  C          8.8550   -2.2710   -3.1640 C.3     1  UNL1        0.4680
@<TRIPOS>BOND
     1    14    12    1
     2    14    13    1
     3    12    10    1
     4    13    11    1
     5    10    11    2
     6    10     8    1
     7    11     9    1
     8     8     6    2
     9     9     7    2
    10     6     7    1
    11     6     5    1
    12     5     1    1
    13     1     2    1
    14     2     3    1
    15     2     4    2
