MODEL 1
REMARK VINA RESULT:      -7.2      0.000      0.000
REMARK SMILES CC(=O)CCc1ccc2c(c1)OCO2
REMARK SMILES IDX 4 1 2 2 1 3 3 4 5 5 6 6 7 7 11 8 8 9 10 10 9 11 12 12 14 13
REMARK SMILES IDX 13 14
REMARK H PARENT
REMARK Flexibility Score: inf
ROOT
ATOM      1  C   UNL     1       5.482   1.934   1.274  1.00  0.00     0.080 C 
ENDROOT
BRANCH   1   2
ATOM      2  C   UNL     1       5.011   0.718   1.995  1.00  0.00     0.130 C 
ATOM      3  C   UNL     1       5.861  -0.497   2.114  1.00  0.00     0.087 C 
ATOM      4  O   UNL     1       3.906   0.684   2.511  1.00  0.00    -0.300 OA
ENDBRANCH   1   2
BRANCH   1   5
ATOM      5  C   UNL     1       5.377   1.759  -0.228  1.00  0.00     0.043 C 
BRANCH   5   6
ATOM      6  C   UNL     1       6.549   1.055  -0.779  1.00  0.00    -0.044 A 
ATOM      7  C   UNL     1       7.855   1.468  -0.490  1.00  0.00     0.008 A 
ATOM      8  C   UNL     1       6.367  -0.036  -1.597  1.00  0.00     0.054 A 
ATOM      9  C   UNL     1       8.916   0.768  -1.035  1.00  0.00     0.051 A 
ATOM     10  C   UNL     1       7.443  -0.741  -2.145  1.00  0.00     0.166 A 
ATOM     11  C   UNL     1       8.728  -0.335  -1.862  1.00  0.00     0.165 A 
ATOM     12  O   UNL     1       7.522  -1.840  -2.974  1.00  0.00    -0.454 OA
ATOM     13  O   UNL     1       9.579  -1.202  -2.529  1.00  0.00    -0.454 OA
ATOM     14  C   UNL     1       8.858  -2.226  -3.173  1.00  0.00     0.468 C 
ENDBRANCH   5   6
ENDBRANCH   1   5
TORSDOF 3
ENDMDL
MODEL 2
REMARK VINA RESULT:      -7.1      2.714      3.971
REMARK SMILES CC(=O)CCc1ccc2c(c1)OCO2
REMARK SMILES IDX 4 1 2 2 1 3 3 4 5 5 6 6 7 7 11 8 8 9 10 10 9 11 12 12 14 13
REMARK SMILES IDX 13 14
REMARK H PARENT
REMARK Flexibility Score: inf
ROOT
ATOM      1  C   UNL     1       9.650   1.083   2.647  1.00  0.00     0.080 C 
ENDROOT
BRANCH   1   2
ATOM      2  C   UNL     1      11.134   0.955   2.651  1.00  0.00     0.130 C 
ATOM      3  C   UNL     1      11.995   1.878   3.438  1.00  0.00     0.087 C 
ATOM      4  O   UNL     1      11.689   0.083   2.003  1.00  0.00    -0.300 OA
ENDBRANCH   1   2
BRANCH   1   5
ATOM      5  C   UNL     1       9.172   1.911   1.471  1.00  0.00     0.043 C 
BRANCH   5   6
ATOM      6  C   UNL     1       8.436   1.092   0.491  1.00  0.00    -0.044 A 
ATOM      7  C   UNL     1       7.037   1.103   0.430  1.00  0.00     0.008 A 
ATOM      8  C   UNL     1       9.130   0.297  -0.393  1.00  0.00     0.054 A 
ATOM      9  C   UNL     1       6.401   0.315  -0.512  1.00  0.00     0.051 A 
ATOM     10  C   UNL     1       8.481  -0.497  -1.343  1.00  0.00     0.166 A 
ATOM     11  C   UNL     1       7.105  -0.489  -1.403  1.00  0.00     0.165 A 
ATOM     12  O   UNL     1       8.939  -1.361  -2.316  1.00  0.00    -0.454 OA
ATOM     13  O   UNL     1       6.743  -1.355  -2.422  1.00  0.00    -0.454 OA
ATOM     14  C   UNL     1       7.876  -1.860  -3.087  1.00  0.00     0.468 C 
ENDBRANCH   5   6
ENDBRANCH   1   5
TORSDOF 3
ENDMDL
MODEL 3
REMARK VINA RESULT:      -7.1      1.968      2.431
REMARK SMILES CC(=O)CCc1ccc2c(c1)OCO2
REMARK SMILES IDX 4 1 2 2 1 3 3 4 5 5 6 6 7 7 11 8 8 9 10 10 9 11 12 12 14 13
REMARK SMILES IDX 13 14
REMARK H PARENT
REMARK Flexibility Score: inf
ROOT
ATOM      1  C   UNL     1       5.686   1.212  -0.333  1.00  0.00     0.080 C 
ENDROOT
BRANCH   1   2
ATOM      2  C   UNL     1       5.129   1.230   1.049  1.00  0.00     0.130 C 
ATOM      3  C   UNL     1       5.408   0.135   2.017  1.00  0.00     0.087 C 
ATOM      4  O   UNL     1       4.423   2.150   1.428  1.00  0.00    -0.300 OA
ENDBRANCH   1   2
BRANCH   1   5
ATOM      5  C   UNL     1       7.194   1.061  -0.317  1.00  0.00     0.043 C 
BRANCH   5   6
ATOM      6  C   UNL     1       7.621  -0.225  -0.896  1.00  0.00    -0.044 A 
ATOM      7  C   UNL     1       7.802  -0.384  -2.275  1.00  0.00     0.008 A 
ATOM      8  C   UNL     1       7.852  -1.302  -0.070  1.00  0.00     0.054 A 
ATOM      9  C   UNL     1       8.204  -1.614  -2.761  1.00  0.00     0.051 A 
ATOM     10  C   UNL     1       8.259  -2.543  -0.567  1.00  0.00     0.166 A 
ATOM     11  C   UNL     1       8.436  -2.701  -1.924  1.00  0.00     0.165 A 
ATOM     12  O   UNL     1       8.548  -3.749   0.037  1.00  0.00    -0.454 OA
ATOM     13  O   UNL     1       8.835  -4.013  -2.126  1.00  0.00    -0.454 OA
ATOM     14  C   UNL     1       9.006  -4.687  -0.902  1.00  0.00     0.468 C 
ENDBRANCH   5   6
ENDBRANCH   1   5
TORSDOF 3
ENDMDL
MODEL 4
REMARK VINA RESULT:      -7.0      3.366      4.350
REMARK SMILES CC(=O)CCc1ccc2c(c1)OCO2
REMARK SMILES IDX 4 1 2 2 1 3 3 4 5 5 6 6 7 7 11 8 8 9 10 10 9 11 12 12 14 13
REMARK SMILES IDX 13 14
REMARK H PARENT
REMARK Flexibility Score: inf
ROOT
ATOM      1  C   UNL     1       5.828  -0.057   1.578  1.00  0.00     0.080 C 
ENDROOT
BRANCH   1   2
ATOM      2  C   UNL     1       4.893   1.096   1.455  1.00  0.00     0.130 C 
ATOM      3  C   UNL     1       5.053   2.121   0.389  1.00  0.00     0.087 C 
ATOM      4  O   UNL     1       3.962   1.233   2.232  1.00  0.00    -0.300 OA
ENDBRANCH   1   2
BRANCH   1   5
ATOM      5  C   UNL     1       6.991   0.073   0.615  1.00  0.00     0.043 C 
BRANCH   5   6
ATOM      6  C   UNL     1       8.208   0.559   1.290  1.00  0.00    -0.044 A 
ATOM      7  C   UNL     1       8.208   1.740   2.041  1.00  0.00     0.008 A 
ATOM      8  C   UNL     1       9.378  -0.159   1.188  1.00  0.00     0.054 A 
ATOM      9  C   UNL     1       9.379   2.146   2.653  1.00  0.00     0.051 A 
ATOM     10  C   UNL     1      10.560   0.255   1.810  1.00  0.00     0.166 A 
ATOM     11  C   UNL     1      10.560   1.418   2.548  1.00  0.00     0.165 A 
ATOM     12  O   UNL     1      11.832  -0.274   1.858  1.00  0.00    -0.454 OA
ATOM     13  O   UNL     1      11.846   1.579   3.040  1.00  0.00    -0.454 OA
ATOM     14  C   UNL     1      12.661   0.483   2.702  1.00  0.00     0.468 C 
ENDBRANCH   5   6
ENDBRANCH   1   5
TORSDOF 3
ENDMDL
MODEL 5
REMARK VINA RESULT:      -6.9      3.238      4.247
REMARK SMILES CC(=O)CCc1ccc2c(c1)OCO2
REMARK SMILES IDX 4 1 2 2 1 3 3 4 5 5 6 6 7 7 11 8 8 9 10 10 9 11 12 12 14 13
REMARK SMILES IDX 13 14
REMARK H PARENT
REMARK Flexibility Score: inf
ROOT
ATOM      1  C   UNL     1       5.783   0.814   0.287  1.00  0.00     0.080 C 
ENDROOT
BRANCH   1   2
ATOM      2  C   UNL     1       5.512   0.140   1.587  1.00  0.00     0.130 C 
ATOM      3  C   UNL     1       6.236  -1.095   1.992  1.00  0.00     0.087 C 
ATOM      4  O   UNL     1       4.682   0.584   2.363  1.00  0.00    -0.300 OA
ENDBRANCH   1   2
BRANCH   1   5
ATOM      5  C   UNL     1       6.555   2.103   0.486  1.00  0.00     0.043 C 
BRANCH   5   6
ATOM      6  C   UNL     1       7.981   1.850   0.758  1.00  0.00    -0.044 A 
ATOM      7  C   UNL     1       8.828   1.309  -0.216  1.00  0.00     0.008 A 
ATOM      8  C   UNL     1       8.503   2.150   1.995  1.00  0.00     0.054 A 
ATOM      9  C   UNL     1      10.158   1.093   0.096  1.00  0.00     0.051 A 
ATOM     10  C   UNL     1       9.849   1.931   2.306  1.00  0.00     0.166 A 
ATOM     11  C   UNL     1      10.683   1.398   1.348  1.00  0.00     0.165 A 
ATOM     12  O   UNL     1      10.597   2.141   3.445  1.00  0.00    -0.454 OA
ATOM     13  O   UNL     1      11.939   1.292   1.925  1.00  0.00    -0.454 OA
ATOM     14  C   UNL     1      11.950   1.836   3.223  1.00  0.00     0.468 C 
ENDBRANCH   5   6
ENDBRANCH   1   5
TORSDOF 3
ENDMDL
