@<TRIPOS>MOLECULE
/home/cewinharhar/GITHUB/reincatalyze/data/processed/docking_pred/2023-May-25-1902_sub9_nm5_bs15_s42_ex16_mel10_mts10000_k50_ec01_g099_lra3e-4_lrc3e-3/b5f7d4a2d914252a6bbd971338c7ac1ea6a3e46f_ligand_9.pdbqt
 14 15 0 0 0
SMALL
GASTEIGER

@<TRIPOS>ATOM
      1  C          5.6860    1.2120   -0.3330 C.3     1  UNL1        0.0800
      2  C          5.1290    1.2300    1.0490 C.2     1  UNL1        0.1300
      3  C          5.4080    0.1350    2.0170 C.3     1  UNL1        0.0870
      4  O          4.4230    2.1500    1.4280 O.2     1  UNL1       -0.3000
      5  C          7.1940    1.0610   -0.3170 C.3     1  UNL1        0.0430
      6  C          7.6210   -0.2250   -0.8960 C.2     1  UNL1       -0.0440
      7  C          7.8020   -0.3840   -2.2750 C.2     1  UNL1        0.0080
      8  C          7.8520   -1.3020   -0.0700 C.2     1  UNL1        0.0540
      9  C          8.2040   -1.6140   -2.7610 C.2     1  UNL1        0.0510
     10  C          8.2590   -2.5430   -0.5670 C.2     1  UNL1        0.1660
     11  C          8.4360   -2.7010   -1.9240 C.2     1  UNL1        0.1650
     12  O          8.5480   -3.7490    0.0370 O.2     1  UNL1       -0.4540
     13  O          8.8350   -4.0130   -2.1260 O.2     1  UNL1       -0.4540
     14  C          9.0060   -4.6870   -0.9020 C.3     1  UNL1        0.4680
@<TRIPOS>BOND
     1     9     7    1
     2     9    11    2
     3     7     6    2
     4    13    11    1
     5    13    14    1
     6    11    10    1
     7    14    12    1
     8     6     5    1
     9     6     8    1
    10    10     8    2
    11    10    12    1
    12     1     5    1
    13     1     2    1
    14     2     4    2
    15     2     3    1
