@<TRIPOS>MOLECULE
/home/cewinharhar/GITHUB/reincatalyze/data/processed/docking_pred/2023-May-25-1902_sub9_nm5_bs15_s42_ex16_mel10_mts10000_k50_ec01_g099_lra3e-4_lrc3e-3/b5f7d4a2d914252a6bbd971338c7ac1ea6a3e46f_ligand_9.pdbqt
 14 15 0 0 0
SMALL
GASTEIGER

@<TRIPOS>ATOM
      1  C          5.7830    0.8140    0.2870 C.3     1  UNL1        0.0800
      2  C          5.5120    0.1400    1.5870 C.2     1  UNL1        0.1300
      3  C          6.2360   -1.0950    1.9920 C.3     1  UNL1        0.0870
      4  O          4.6820    0.5840    2.3630 O.2     1  UNL1       -0.3000
      5  C          6.5550    2.1030    0.4860 C.3     1  UNL1        0.0430
      6  C          7.9810    1.8500    0.7580 C.2     1  UNL1       -0.0440
      7  C          8.8280    1.3090   -0.2160 C.2     1  UNL1        0.0080
      8  C          8.5030    2.1500    1.9950 C.2     1  UNL1        0.0540
      9  C         10.1580    1.0930    0.0960 C.2     1  UNL1        0.0510
     10  C          9.8490    1.9310    2.3060 C.2     1  UNL1        0.1660
     11  C         10.6830    1.3980    1.3480 C.2     1  UNL1        0.1650
     12  O         10.5970    2.1410    3.4450 O.2     1  UNL1       -0.4540
     13  O         11.9390    1.2920    1.9250 O.2     1  UNL1       -0.4540
     14  C         11.9500    1.8360    3.2230 C.3     1  UNL1        0.4680
@<TRIPOS>BOND
     1     7     9    1
     2     7     6    2
     3     9    11    2
     4     1     5    1
     5     1     2    1
     6     5     6    1
     7     6     8    1
     8    11    13    1
     9    11    10    1
    10     2     3    1
    11     2     4    2
    12    13    14    1
    13     8    10    2
    14    10    12    1
    15    14    12    1
