@<TRIPOS>MOLECULE
/home/cewinharhar/GITHUB/reincatalyze/data/processed/docking_pred/2023-May-25-1902_sub9_nm5_bs15_s42_ex16_mel10_mts10000_k50_ec01_g099_lra3e-4_lrc3e-3/b5f7d4a2d914252a6bbd971338c7ac1ea6a3e46f_ligand_9.pdbqt
 14 15 0 0 0
SMALL
GASTEIGER

@<TRIPOS>ATOM
      1  C          5.4820    1.9340    1.2740 C.3     1  UNL1        0.0800
      2  C          5.0110    0.7180    1.9950 C.2     1  UNL1        0.1300
      3  C          5.8610   -0.4970    2.1140 C.3     1  UNL1        0.0870
      4  O          3.9060    0.6840    2.5110 O.2     1  UNL1       -0.3000
      5  C          5.3770    1.7590   -0.2280 C.3     1  UNL1        0.0430
      6  C          6.5490    1.0550   -0.7790 C.2     1  UNL1       -0.0440
      7  C          7.8550    1.4680   -0.4900 C.2     1  UNL1        0.0080
      8  C          6.3670   -0.0360   -1.5970 C.2     1  UNL1        0.0540
      9  C          8.9160    0.7680   -1.0350 C.2     1  UNL1        0.0510
     10  C          7.4430   -0.7410   -2.1450 C.2     1  UNL1        0.1660
     11  C          8.7280   -0.3350   -1.8620 C.2     1  UNL1        0.1650
     12  O          7.5220   -1.8400   -2.9740 O.2     1  UNL1       -0.4540
     13  O          9.5790   -1.2020   -2.5290 O.2     1  UNL1       -0.4540
     14  C          8.8580   -2.2260   -3.1730 C.3     1  UNL1        0.4680
@<TRIPOS>BOND
     1    14    12    1
     2    14    13    1
     3    12    10    1
     4    13    11    1
     5    10    11    2
     6    10     8    1
     7    11     9    1
     8     8     6    2
     9     9     7    2
    10     6     7    1
    11     6     5    1
    12     5     1    1
    13     1     2    1
    14     2     3    1
    15     2     4    2
