@<TRIPOS>MOLECULE
/home/cewinharhar/GITHUB/reincatalyze/data/processed/docking_pred/2023-May-25-1902_sub9_nm5_bs15_s42_ex16_mel10_mts10000_k50_ec01_g099_lra3e-4_lrc3e-3/b658f69152bbaa0d4df6d0fc1d77222c9f34aa3c_ligand_9.pdbqt
 14 15 0 0 0
SMALL
GASTEIGER

@<TRIPOS>ATOM
      1  C          8.3110    0.1870   -2.6960 C.3     1  UNL1        0.0800
      2  C          8.0330   -1.2750   -2.7660 C.2     1  UNL1        0.1300
      3  C          9.1140   -2.2640   -3.0200 C.3     1  UNL1        0.0870
      4  O          6.9010   -1.7050   -2.6160 O.2     1  UNL1       -0.3000
      5  C          8.8450    0.5810   -1.3330 C.3     1  UNL1        0.0430
      6  C          7.8230    0.4320   -0.2820 C.2     1  UNL1       -0.0440
      7  C          7.9480   -0.5240    0.7320 C.2     1  UNL1        0.0080
      8  C          6.7160    1.2500   -0.2870 C.2     1  UNL1        0.0540
      9  C          6.9570   -0.6170    1.6920 C.2     1  UNL1        0.0510
     10  C          5.7180    1.1530    0.6870 C.2     1  UNL1        0.1660
     11  C          5.8390    0.2110    1.6850 C.2     1  UNL1        0.1650
     12  O          4.5400    1.8380    0.8970 O.2     1  UNL1       -0.4540
     13  O          4.7230    0.3400    2.4960 O.2     1  UNL1       -0.4540
     14  C          3.9180    1.4200    2.0850 C.3     1  UNL1        0.4680
@<TRIPOS>BOND
     1     3     2    1
     2     2     1    1
     3     2     4    2
     4     1     5    1
     5     5     6    1
     6     8     6    2
     7     8    10    1
     8     6     7    1
     9    10    12    1
    10    10    11    2
    11     7     9    2
    12    12    14    1
    13    11     9    1
    14    11    13    1
    15    14    13    1
