@<TRIPOS>MOLECULE
/home/cewinharhar/GITHUB/reincatalyze/data/processed/docking_pred/2023-May-25-1902_sub9_nm5_bs15_s42_ex16_mel10_mts10000_k50_ec01_g099_lra3e-4_lrc3e-3/b658f69152bbaa0d4df6d0fc1d77222c9f34aa3c_ligand_9.pdbqt
 14 15 0 0 0
SMALL
GASTEIGER

@<TRIPOS>ATOM
      1  C          6.3980    1.1530    0.9210 C.3     1  UNL1        0.0800
      2  C          5.6750    0.3470    1.9430 C.2     1  UNL1        0.1300
      3  C          6.2630   -0.8910    2.5210 C.3     1  UNL1        0.0870
      4  O          4.5700    0.6820    2.3390 O.2     1  UNL1       -0.3000
      5  C          5.8800    0.8650   -0.4740 C.3     1  UNL1        0.0430
      6  C          6.8290    0.0500   -1.2530 C.2     1  UNL1       -0.0440
      7  C          7.5150    0.5740   -2.3540 C.2     1  UNL1        0.0080
      8  C          7.0560   -1.2600   -0.8950 C.2     1  UNL1        0.0540
      9  C          8.3940   -0.2390   -3.0460 C.2     1  UNL1        0.0510
     10  C          7.9470   -2.0770   -1.5970 C.2     1  UNL1        0.1660
     11  C          8.6210   -1.5620   -2.6820 C.2     1  UNL1        0.1650
     12  O          8.3380   -3.3900   -1.4430 O.2     1  UNL1       -0.4540
     13  O          9.4220   -2.5800   -3.1760 O.2     1  UNL1       -0.4540
     14  C          9.3420   -3.7290   -2.3660 C.3     1  UNL1        0.4680
@<TRIPOS>BOND
     1    13    11    1
     2    13    14    1
     3     9    11    2
     4     9     7    1
     5    11    10    1
     6    14    12    1
     7     7     6    2
     8    10    12    1
     9    10     8    2
    10     6     8    1
    11     6     5    1
    12     5     1    1
    13     1     2    1
    14     2     4    2
    15     2     3    1
