@<TRIPOS>MOLECULE
/home/cewinharhar/GITHUB/reincatalyze/data/processed/docking_pred/2023-May-25-1902_sub9_nm5_bs15_s42_ex16_mel10_mts10000_k50_ec01_g099_lra3e-4_lrc3e-3/b658f69152bbaa0d4df6d0fc1d77222c9f34aa3c_ligand_9.pdbqt
 14 15 0 0 0
SMALL
GASTEIGER

@<TRIPOS>ATOM
      1  C          5.5880    1.8520    1.3100 C.3     1  UNL1        0.0800
      2  C          5.1370    0.6360    2.0430 C.2     1  UNL1        0.1300
      3  C          6.0210   -0.5490    2.2060 C.3     1  UNL1        0.0870
      4  O          4.0210    0.5770    2.5330 O.2     1  UNL1       -0.3000
      5  C          5.4360    1.6800   -0.1880 C.3     1  UNL1        0.0430
      6  C          6.5960    0.9890   -0.7800 C.2     1  UNL1       -0.0440
      7  C          7.9030    1.4430   -0.5700 C.2     1  UNL1        0.0080
      8  C          6.4000   -0.1300   -1.5560 C.2     1  UNL1        0.0540
      9  C          8.9530    0.7540   -1.1500 C.2     1  UNL1        0.0510
     10  C          7.4650   -0.8240   -2.1390 C.2     1  UNL1        0.1660
     11  C          8.7520   -0.3780   -1.9350 C.2     1  UNL1        0.1650
     12  O          7.5310   -1.9440   -2.9400 O.2     1  UNL1       -0.4540
     13  O          9.5900   -1.2430   -2.6200 O.2     1  UNL1       -0.4540
     14  C          8.8640   -2.3030   -3.1960 C.3     1  UNL1        0.4680
@<TRIPOS>BOND
     1    14    12    1
     2    14    13    1
     3    12    10    1
     4    13    11    1
     5    10    11    2
     6    10     8    1
     7    11     9    1
     8     8     6    2
     9     9     7    2
    10     6     7    1
    11     6     5    1
    12     5     1    1
    13     1     2    1
    14     2     3    1
    15     2     4    2
