@<TRIPOS>MOLECULE
/home/cewinharhar/GITHUB/reincatalyze/data/processed/docking_pred/2023-May-25-1902_sub9_nm5_bs15_s42_ex16_mel10_mts10000_k50_ec01_g099_lra3e-4_lrc3e-3/b8d8050f43b71ccf975db7ed0a80e234855f027b_ligand_9.pdbqt
 14 15 0 0 0
SMALL
GASTEIGER

@<TRIPOS>ATOM
      1  C          6.9130    0.9620    1.1870 C.3     1  UNL1        0.0800
      2  C          5.4630    1.1280    1.4840 C.2     1  UNL1        0.1300
      3  C          4.6350    2.1460    0.7840 C.3     1  UNL1        0.0870
      4  O          4.9100    0.4290    2.3170 O.2     1  UNL1       -0.3000
      5  C          7.1870    1.0710   -0.3000 C.3     1  UNL1        0.0430
      6  C          7.5680   -0.2280   -0.8820 C.2     1  UNL1       -0.0440
      7  C          7.6090   -0.4270   -2.2670 C.2     1  UNL1        0.0080
      8  C          7.8940   -1.2780   -0.0540 C.2     1  UNL1        0.0540
      9  C          7.9750   -1.6680   -2.7560 C.2     1  UNL1        0.0510
     10  C          8.2640   -2.5300   -0.5530 C.2     1  UNL1        0.1660
     11  C          8.3040   -2.7270   -1.9160 C.2     1  UNL1        0.1650
     12  O          8.6270   -3.7140    0.0530 O.2     1  UNL1       -0.4540
     13  O          8.6960   -4.0410   -2.1200 O.2     1  UNL1       -0.4540
     14  C          8.9990   -4.6760   -0.9000 C.3     1  UNL1        0.4680
@<TRIPOS>BOND
     1     9     7    1
     2     9    11    2
     3     7     6    2
     4    13    11    1
     5    13    14    1
     6    11    10    1
     7    14    12    1
     8     6     5    1
     9     6     8    1
    10    10     8    2
    11    10    12    1
    12     5     1    1
    13     3     2    1
    14     1     2    1
    15     2     4    2
