@<TRIPOS>MOLECULE
/home/cewinharhar/GITHUB/reincatalyze/data/processed/docking_pred/2023-May-25-1902_sub9_nm5_bs15_s42_ex16_mel10_mts10000_k50_ec01_g099_lra3e-4_lrc3e-3/b99eeed02ad73e34178363463c07c25b6fbf2bee_ligand_9.pdbqt
 14 15 0 0 0
SMALL
GASTEIGER

@<TRIPOS>ATOM
      1  C          5.8280   -0.0570    1.5780 C.3     1  UNL1        0.0800
      2  C          4.8930    1.0960    1.4550 C.2     1  UNL1        0.1300
      3  C          5.0530    2.1210    0.3890 C.3     1  UNL1        0.0870
      4  O          3.9620    1.2330    2.2320 O.2     1  UNL1       -0.3000
      5  C          6.9910    0.0730    0.6150 C.3     1  UNL1        0.0430
      6  C          8.2080    0.5590    1.2900 C.2     1  UNL1       -0.0440
      7  C          8.2080    1.7400    2.0410 C.2     1  UNL1        0.0080
      8  C          9.3780   -0.1590    1.1880 C.2     1  UNL1        0.0540
      9  C          9.3790    2.1460    2.6530 C.2     1  UNL1        0.0510
     10  C         10.5600    0.2550    1.8100 C.2     1  UNL1        0.1660
     11  C         10.5600    1.4180    2.5480 C.2     1  UNL1        0.1650
     12  O         11.8320   -0.2740    1.8580 O.2     1  UNL1       -0.4540
     13  O         11.8460    1.5790    3.0400 O.2     1  UNL1       -0.4540
     14  C         12.6610    0.4830    2.7020 C.3     1  UNL1        0.4680
@<TRIPOS>BOND
     1     3     2    1
     2     5     6    1
     3     5     1    1
     4     8     6    2
     5     8    10    1
     6     6     7    1
     7     2     1    1
     8     2     4    2
     9    10    12    1
    10    10    11    2
    11    12    14    1
    12     7     9    2
    13    11     9    1
    14    11    13    1
    15    14    13    1
