@<TRIPOS>MOLECULE
/home/cewinharhar/GITHUB/reincatalyze/data/processed/docking_pred/2023-May-25-1902_sub9_nm5_bs15_s42_ex16_mel10_mts10000_k50_ec01_g099_lra3e-4_lrc3e-3/b99eeed02ad73e34178363463c07c25b6fbf2bee_ligand_9.pdbqt
 14 15 0 0 0
SMALL
GASTEIGER

@<TRIPOS>ATOM
      1  C          9.6500    1.0830    2.6470 C.3     1  UNL1        0.0800
      2  C         11.1340    0.9550    2.6510 C.2     1  UNL1        0.1300
      3  C         11.9950    1.8780    3.4380 C.3     1  UNL1        0.0870
      4  O         11.6890    0.0830    2.0030 O.2     1  UNL1       -0.3000
      5  C          9.1720    1.9110    1.4710 C.3     1  UNL1        0.0430
      6  C          8.4360    1.0920    0.4910 C.2     1  UNL1       -0.0440
      7  C          7.0370    1.1030    0.4300 C.2     1  UNL1        0.0080
      8  C          9.1300    0.2970   -0.3930 C.2     1  UNL1        0.0540
      9  C          6.4010    0.3150   -0.5120 C.2     1  UNL1        0.0510
     10  C          8.4810   -0.4970   -1.3430 C.2     1  UNL1        0.1660
     11  C          7.1050   -0.4890   -1.4030 C.2     1  UNL1        0.1650
     12  O          8.9390   -1.3610   -2.3160 O.2     1  UNL1       -0.4540
     13  O          6.7430   -1.3550   -2.4220 O.2     1  UNL1       -0.4540
     14  C          7.8760   -1.8600   -3.0870 C.3     1  UNL1        0.4680
@<TRIPOS>BOND
     1    14    13    1
     2    14    12    1
     3    13    11    1
     4    12    10    1
     5    11    10    2
     6    11     9    1
     7    10     8    1
     8     9     7    2
     9     8     6    2
    10     7     6    1
    11     6     5    1
    12     5     1    1
    13     4     2    2
    14     1     2    1
    15     2     3    1
