@<TRIPOS>MOLECULE
/home/cewinharhar/GITHUB/reincatalyze/data/processed/docking_pred/2023-May-25-1902_sub9_nm5_bs15_s42_ex16_mel10_mts10000_k50_ec01_g099_lra3e-4_lrc3e-3/ba254a63d1f23417312e0ffefa4719b754a9a4bf_ligand_9.pdbqt
 14 15 0 0 0
SMALL
GASTEIGER

@<TRIPOS>ATOM
      1  C          5.5170    0.0020    1.9670 C.3     1  UNL1        0.0800
      2  C          4.6450    1.1680    1.6520 C.2     1  UNL1        0.1300
      3  C          4.9730    2.1130    0.5510 C.3     1  UNL1        0.0870
      4  O          3.6290    1.3830    2.2930 O.2     1  UNL1       -0.3000
      5  C          6.9430    0.2440    1.5150 C.3     1  UNL1        0.0430
      6  C          7.3530   -0.7080    0.4670 C.2     1  UNL1       -0.0440
      7  C          7.2360   -0.3960   -0.8920 C.2     1  UNL1        0.0080
      8  C          7.8660   -1.9350    0.8230 C.2     1  UNL1        0.0540
      9  C          7.6380   -1.3290   -1.8310 C.2     1  UNL1        0.0510
     10  C          8.2720   -2.8740   -0.1310 C.2     1  UNL1        0.1660
     11  C          8.1560   -2.5690   -1.4680 C.2     1  UNL1        0.1650
     12  O          8.8040   -4.1420   -0.0330 O.2     1  UNL1       -0.4540
     13  O          8.6260   -3.6660   -2.1720 O.2     1  UNL1       -0.4540
     14  C          9.1310   -4.6500   -1.3010 C.3     1  UNL1        0.4680
@<TRIPOS>BOND
     1    13    11    1
     2    13    14    1
     3     9    11    2
     4     9     7    1
     5    11    10    1
     6    14    12    1
     7     7     6    2
     8    10    12    1
     9    10     8    2
    10     6     8    1
    11     6     5    1
    12     3     2    1
    13     5     1    1
    14     2     1    1
    15     2     4    2
