@<TRIPOS>MOLECULE
/home/cewinharhar/GITHUB/reincatalyze/data/processed/docking_pred/2023-May-25-1902_sub9_nm5_bs15_s42_ex16_mel10_mts10000_k50_ec01_g099_lra3e-4_lrc3e-3/ba254a63d1f23417312e0ffefa4719b754a9a4bf_ligand_9.pdbqt
 14 15 0 0 0
SMALL
GASTEIGER

@<TRIPOS>ATOM
      1  C          6.3580    1.2320    0.8770 C.3     1  UNL1        0.0800
      2  C          5.6630    0.4190    1.9130 C.2     1  UNL1        0.1300
      3  C          6.2790   -0.8080    2.4870 C.3     1  UNL1        0.0870
      4  O          4.5590    0.7380    2.3240 O.2     1  UNL1       -0.3000
      5  C          5.8470    0.9060   -0.5130 C.3     1  UNL1        0.0430
      6  C          6.8120    0.0930   -1.2740 C.2     1  UNL1       -0.0440
      7  C          7.5300    0.6250   -2.3500 C.2     1  UNL1        0.0080
      8  C          7.0220   -1.2220   -0.9240 C.2     1  UNL1        0.0540
      9  C          8.4240   -0.1850   -3.0270 C.2     1  UNL1        0.0510
     10  C          7.9270   -2.0370   -1.6110 C.2     1  UNL1        0.1660
     11  C          8.6330   -1.5140   -2.6710 C.2     1  UNL1        0.1650
     12  O          8.3070   -3.3530   -1.4600 O.2     1  UNL1       -0.4540
     13  O          9.4420   -2.5310   -3.1540 O.2     1  UNL1       -0.4540
     14  C          9.3330   -3.6880   -2.3590 C.3     1  UNL1        0.4680
@<TRIPOS>BOND
     1    13    11    1
     2    13    14    1
     3     9    11    2
     4     9     7    1
     5    11    10    1
     6    14    12    1
     7     7     6    2
     8    10    12    1
     9    10     8    2
    10     6     8    1
    11     6     5    1
    12     5     1    1
    13     1     2    1
    14     2     4    2
    15     2     3    1
