MODEL 1
REMARK VINA RESULT:      -7.6      0.000      0.000
REMARK SMILES CC(=O)CCc1ccc2c(c1)OCO2
REMARK SMILES IDX 4 1 2 2 1 3 3 4 5 5 6 6 7 7 11 8 8 9 10 10 9 11 12 12 14 13
REMARK SMILES IDX 13 14
REMARK H PARENT
REMARK Flexibility Score: inf
ROOT
ATOM      1  C   UNL     1       5.508   1.934   1.259  1.00  0.00     0.080 C 
ENDROOT
BRANCH   1   2
ATOM      2  C   UNL     1       5.070   0.719   2.002  1.00  0.00     0.130 C 
ATOM      3  C   UNL     1       5.962  -0.460   2.167  1.00  0.00     0.087 C 
ATOM      4  O   UNL     1       3.957   0.656   2.499  1.00  0.00    -0.300 OA
ENDBRANCH   1   2
BRANCH   1   5
ATOM      5  C   UNL     1       5.384   1.737  -0.239  1.00  0.00     0.043 C 
BRANCH   5   6
ATOM      6  C   UNL     1       6.555   1.036  -0.797  1.00  0.00    -0.044 A 
ATOM      7  C   UNL     1       7.860   1.471  -0.540  1.00  0.00     0.008 A 
ATOM      8  C   UNL     1       6.371  -0.074  -1.588  1.00  0.00     0.054 A 
ATOM      9  C   UNL     1       8.920   0.773  -1.090  1.00  0.00     0.051 A 
ATOM     10  C   UNL     1       7.446  -0.777  -2.141  1.00  0.00     0.166 A 
ATOM     11  C   UNL     1       8.731  -0.349  -1.890  1.00  0.00     0.165 A 
ATOM     12  O   UNL     1       7.524  -1.892  -2.948  1.00  0.00    -0.454 OA
ATOM     13  O   UNL     1       9.580  -1.221  -2.555  1.00  0.00    -0.454 OA
ATOM     14  C   UNL     1       8.861  -2.266  -3.163  1.00  0.00     0.468 C 
ENDBRANCH   5   6
ENDBRANCH   1   5
TORSDOF 3
ENDMDL
MODEL 2
REMARK VINA RESULT:      -7.5      1.923      2.373
REMARK SMILES CC(=O)CCc1ccc2c(c1)OCO2
REMARK SMILES IDX 4 1 2 2 1 3 3 4 5 5 6 6 7 7 11 8 8 9 10 10 9 11 12 12 14 13
REMARK SMILES IDX 13 14
REMARK H PARENT
REMARK Flexibility Score: inf
ROOT
ATOM      1  C   UNL     1       5.738   1.383  -0.281  1.00  0.00     0.080 C 
ENDROOT
BRANCH   1   2
ATOM      2  C   UNL     1       5.091   1.279   1.057  1.00  0.00     0.130 C 
ATOM      3  C   UNL     1       5.366   0.137   1.970  1.00  0.00     0.087 C 
ATOM      4  O   UNL     1       4.310   2.133   1.444  1.00  0.00    -0.300 OA
ENDBRANCH   1   2
BRANCH   1   5
ATOM      5  C   UNL     1       7.229   1.124  -0.193  1.00  0.00     0.043 C 
BRANCH   5   6
ATOM      6  C   UNL     1       7.598  -0.160  -0.814  1.00  0.00    -0.044 A 
ATOM      7  C   UNL     1       7.667  -0.310  -2.204  1.00  0.00     0.008 A 
ATOM      8  C   UNL     1       7.885  -1.245  -0.017  1.00  0.00     0.054 A 
ATOM      9  C   UNL     1       8.020  -1.539  -2.730  1.00  0.00     0.051 A 
ATOM     10  C   UNL     1       8.242  -2.486  -0.554  1.00  0.00     0.166 A 
ATOM     11  C   UNL     1       8.310  -2.634  -1.922  1.00  0.00     0.165 A 
ATOM     12  O   UNL     1       8.568  -3.698   0.017  1.00  0.00    -0.454 OA
ATOM     13  O   UNL     1       8.681  -3.947  -2.165  1.00  0.00    -0.454 OA
ATOM     14  C   UNL     1       8.944  -4.632  -0.963  1.00  0.00     0.468 C 
ENDBRANCH   5   6
ENDBRANCH   1   5
TORSDOF 3
ENDMDL
MODEL 3
REMARK VINA RESULT:      -7.2      2.080      2.629
REMARK SMILES CC(=O)CCc1ccc2c(c1)OCO2
REMARK SMILES IDX 4 1 2 2 1 3 3 4 5 5 6 6 7 7 11 8 8 9 10 10 9 11 12 12 14 13
REMARK SMILES IDX 13 14
REMARK H PARENT
REMARK Flexibility Score: inf
ROOT
ATOM      1  C   UNL     1       5.517   0.002   1.967  1.00  0.00     0.080 C 
ENDROOT
BRANCH   1   2
ATOM      2  C   UNL     1       4.645   1.168   1.652  1.00  0.00     0.130 C 
ATOM      3  C   UNL     1       4.973   2.113   0.551  1.00  0.00     0.087 C 
ATOM      4  O   UNL     1       3.629   1.383   2.293  1.00  0.00    -0.300 OA
ENDBRANCH   1   2
BRANCH   1   5
ATOM      5  C   UNL     1       6.943   0.244   1.515  1.00  0.00     0.043 C 
BRANCH   5   6
ATOM      6  C   UNL     1       7.353  -0.708   0.467  1.00  0.00    -0.044 A 
ATOM      7  C   UNL     1       7.236  -0.396  -0.892  1.00  0.00     0.008 A 
ATOM      8  C   UNL     1       7.866  -1.935   0.823  1.00  0.00     0.054 A 
ATOM      9  C   UNL     1       7.638  -1.329  -1.831  1.00  0.00     0.051 A 
ATOM     10  C   UNL     1       8.272  -2.874  -0.131  1.00  0.00     0.166 A 
ATOM     11  C   UNL     1       8.156  -2.569  -1.468  1.00  0.00     0.165 A 
ATOM     12  O   UNL     1       8.804  -4.142  -0.033  1.00  0.00    -0.454 OA
ATOM     13  O   UNL     1       8.626  -3.666  -2.172  1.00  0.00    -0.454 OA
ATOM     14  C   UNL     1       9.131  -4.650  -1.301  1.00  0.00     0.468 C 
ENDBRANCH   5   6
ENDBRANCH   1   5
TORSDOF 3
ENDMDL
MODEL 4
REMARK VINA RESULT:      -7.1      1.250      1.462
REMARK SMILES CC(=O)CCc1ccc2c(c1)OCO2
REMARK SMILES IDX 4 1 2 2 1 3 3 4 5 5 6 6 7 7 11 8 8 9 10 10 9 11 12 12 14 13
REMARK SMILES IDX 13 14
REMARK H PARENT
REMARK Flexibility Score: inf
ROOT
ATOM      1  C   UNL     1       6.358   1.232   0.877  1.00  0.00     0.080 C 
ENDROOT
BRANCH   1   2
ATOM      2  C   UNL     1       5.663   0.419   1.913  1.00  0.00     0.130 C 
ATOM      3  C   UNL     1       6.279  -0.808   2.487  1.00  0.00     0.087 C 
ATOM      4  O   UNL     1       4.559   0.738   2.324  1.00  0.00    -0.300 OA
ENDBRANCH   1   2
BRANCH   1   5
ATOM      5  C   UNL     1       5.847   0.906  -0.513  1.00  0.00     0.043 C 
BRANCH   5   6
ATOM      6  C   UNL     1       6.812   0.093  -1.274  1.00  0.00    -0.044 A 
ATOM      7  C   UNL     1       7.530   0.625  -2.350  1.00  0.00     0.008 A 
ATOM      8  C   UNL     1       7.022  -1.222  -0.924  1.00  0.00     0.054 A 
ATOM      9  C   UNL     1       8.424  -0.185  -3.027  1.00  0.00     0.051 A 
ATOM     10  C   UNL     1       7.927  -2.037  -1.611  1.00  0.00     0.166 A 
ATOM     11  C   UNL     1       8.633  -1.514  -2.671  1.00  0.00     0.165 A 
ATOM     12  O   UNL     1       8.307  -3.353  -1.460  1.00  0.00    -0.454 OA
ATOM     13  O   UNL     1       9.442  -2.531  -3.154  1.00  0.00    -0.454 OA
ATOM     14  C   UNL     1       9.333  -3.688  -2.359  1.00  0.00     0.468 C 
ENDBRANCH   5   6
ENDBRANCH   1   5
TORSDOF 3
ENDMDL
MODEL 5
REMARK VINA RESULT:      -6.9      1.914      2.544
REMARK SMILES CC(=O)CCc1ccc2c(c1)OCO2
REMARK SMILES IDX 4 1 2 2 1 3 3 4 5 5 6 6 7 7 11 8 8 9 10 10 9 11 12 12 14 13
REMARK SMILES IDX 13 14
REMARK H PARENT
REMARK Flexibility Score: inf
ROOT
ATOM      1  C   UNL     1       6.706   0.576   1.086  1.00  0.00     0.080 C 
ENDROOT
BRANCH   1   2
ATOM      2  C   UNL     1       5.340   1.041   1.453  1.00  0.00     0.130 C 
ATOM      3  C   UNL     1       4.670   2.150   0.722  1.00  0.00     0.087 C 
ATOM      4  O   UNL     1       4.726   0.521   2.371  1.00  0.00    -0.300 OA
ENDBRANCH   1   2
BRANCH   1   5
ATOM      5  C   UNL     1       6.971   0.758  -0.396  1.00  0.00     0.043 C 
BRANCH   5   6
ATOM      6  C   UNL     1       7.503  -0.470  -1.011  1.00  0.00    -0.044 A 
ATOM      7  C   UNL     1       7.758  -0.551  -2.385  1.00  0.00     0.008 A 
ATOM      8  C   UNL     1       7.761  -1.570  -0.225  1.00  0.00     0.054 A 
ATOM      9  C   UNL     1       8.258  -1.730  -2.907  1.00  0.00     0.051 A 
ATOM     10  C   UNL     1       8.268  -2.760  -0.757  1.00  0.00     0.166 A 
ATOM     11  C   UNL     1       8.518  -2.841  -2.109  1.00  0.00     0.165 A 
ATOM     12  O   UNL     1       8.602  -3.974  -0.195  1.00  0.00    -0.454 OA
ATOM     13  O   UNL     1       9.007  -4.115  -2.351  1.00  0.00    -0.454 OA
ATOM     14  C   UNL     1       9.161  -4.836  -1.152  1.00  0.00     0.468 C 
ENDBRANCH   5   6
ENDBRANCH   1   5
TORSDOF 3
ENDMDL
