@<TRIPOS>MOLECULE
/home/cewinharhar/GITHUB/reincatalyze/data/processed/docking_pred/2023-May-25-1902_sub9_nm5_bs15_s42_ex16_mel10_mts10000_k50_ec01_g099_lra3e-4_lrc3e-3/bae690ffab80532c90b6f683492bf7de3cce581e_ligand_9.pdbqt
 14 15 0 0 0
SMALL
GASTEIGER

@<TRIPOS>ATOM
      1  C          7.0030    1.0940    0.9010 C.3     1  UNL1        0.0800
      2  C          5.5800    1.1810    1.3310 C.2     1  UNL1        0.1300
      3  C          4.6350    2.1500    0.7130 C.3     1  UNL1        0.0870
      4  O          5.1450    0.4550    2.2100 O.2     1  UNL1       -0.3000
      5  C          7.1210    1.0670   -0.6100 C.3     1  UNL1        0.0430
      6  C          7.5780   -0.2450   -1.0990 C.2     1  UNL1       -0.0440
      7  C          7.8100   -0.4810   -2.4600 C.2     1  UNL1        0.0080
      8  C          7.7890   -1.2710   -0.2060 C.2     1  UNL1        0.0540
      9  C          8.2400   -1.7330   -2.8610 C.2     1  UNL1        0.0510
     10  C          8.2240   -2.5350   -0.6170 C.2     1  UNL1        0.1660
     11  C          8.4510   -2.7670   -1.9550 C.2     1  UNL1        0.1650
     12  O          8.5010   -3.7010    0.0660 O.2     1  UNL1       -0.4540
     13  O          8.8680   -4.0850   -2.0680 O.2     1  UNL1       -0.4540
     14  C          9.0010   -4.6860   -0.8020 C.3     1  UNL1        0.4680
@<TRIPOS>BOND
     1     9     7    1
     2     9    11    2
     3     7     6    2
     4    13    11    1
     5    13    14    1
     6    11    10    1
     7     6     5    1
     8     6     8    1
     9    14    12    1
    10    10     8    2
    11    10    12    1
    12     5     1    1
    13     3     2    1
    14     1     2    1
    15     2     4    2
