@<TRIPOS>MOLECULE
/home/cewinharhar/GITHUB/reincatalyze/data/processed/docking_pred/2023-May-25-1902_sub9_nm5_bs15_s42_ex16_mel10_mts10000_k50_ec01_g099_lra3e-4_lrc3e-3/bae690ffab80532c90b6f683492bf7de3cce581e_ligand_9.pdbqt
 14 15 0 0 0
SMALL
GASTEIGER

@<TRIPOS>ATOM
      1  C          5.4680   -0.0080    2.0390 C.3     1  UNL1        0.0800
      2  C          4.5670    1.1480    1.7730 C.2     1  UNL1        0.1300
      3  C          4.8580    2.1340    0.6980 C.3     1  UNL1        0.0870
      4  O          3.5570    1.3210    2.4360 O.2     1  UNL1       -0.3000
      5  C          6.8780    0.2710    1.5570 C.3     1  UNL1        0.0430
      6  C          7.2900   -0.6710    0.5010 C.2     1  UNL1       -0.0440
      7  C          7.1540   -0.3560   -0.8560 C.2     1  UNL1        0.0080
      8  C          7.8250   -1.8910    0.8460 C.2     1  UNL1        0.0540
      9  C          7.5590   -1.2800   -1.8030 C.2     1  UNL1        0.0510
     10  C          8.2340   -2.8210   -0.1150 C.2     1  UNL1        0.1660
     11  C          8.0990   -2.5130   -1.4500 C.2     1  UNL1        0.1650
     12  O          8.7860   -4.0810   -0.0280 O.2     1  UNL1       -0.4540
     13  O          8.5770   -3.6010   -2.1630 O.2     1  UNL1       -0.4540
     14  C          9.1060   -4.5800   -1.3010 C.3     1  UNL1        0.4680
@<TRIPOS>BOND
     1    13    11    1
     2    13    14    1
     3     9    11    2
     4     9     7    1
     5    11    10    1
     6    14    12    1
     7     7     6    2
     8    10    12    1
     9    10     8    2
    10     6     8    1
    11     6     5    1
    12     3     2    1
    13     5     1    1
    14     2     1    1
    15     2     4    2
