MODEL 1
REMARK VINA RESULT:      -7.7      0.000      0.000
REMARK SMILES CC(=O)CCc1ccc2c(c1)OCO2
REMARK SMILES IDX 4 1 2 2 1 3 3 4 5 5 6 6 7 7 11 8 8 9 10 10 9 11 12 12 14 13
REMARK SMILES IDX 13 14
REMARK H PARENT
REMARK Flexibility Score: inf
ROOT
ATOM      1  C   UNL     1       5.509   1.906   1.273  1.00  0.00     0.080 C 
ENDROOT
BRANCH   1   2
ATOM      2  C   UNL     1       5.048   0.693   2.004  1.00  0.00     0.130 C 
ATOM      3  C   UNL     1       5.908  -0.514   2.133  1.00  0.00     0.087 C 
ATOM      4  O   UNL     1       3.943   0.654   2.520  1.00  0.00    -0.300 OA
ENDBRANCH   1   2
BRANCH   1   5
ATOM      5  C   UNL     1       5.386   1.726  -0.227  1.00  0.00     0.043 C 
BRANCH   5   6
ATOM      6  C   UNL     1       6.556   1.030  -0.791  1.00  0.00    -0.044 A 
ATOM      7  C   UNL     1       7.861   1.472  -0.545  1.00  0.00     0.008 A 
ATOM      8  C   UNL     1       6.373  -0.084  -1.578  1.00  0.00     0.054 A 
ATOM      9  C   UNL     1       8.921   0.779  -1.100  1.00  0.00     0.051 A 
ATOM     10  C   UNL     1       7.448  -0.782  -2.137  1.00  0.00     0.166 A 
ATOM     11  C   UNL     1       8.732  -0.347  -1.896  1.00  0.00     0.165 A 
ATOM     12  O   UNL     1       7.527  -1.899  -2.942  1.00  0.00    -0.454 OA
ATOM     13  O   UNL     1       9.582  -1.215  -2.564  1.00  0.00    -0.454 OA
ATOM     14  C   UNL     1       8.864  -2.267  -3.165  1.00  0.00     0.468 C 
ENDBRANCH   5   6
ENDBRANCH   1   5
TORSDOF 3
ENDMDL
MODEL 2
REMARK VINA RESULT:      -7.5      1.919      2.405
REMARK SMILES CC(=O)CCc1ccc2c(c1)OCO2
REMARK SMILES IDX 4 1 2 2 1 3 3 4 5 5 6 6 7 7 11 8 8 9 10 10 9 11 12 12 14 13
REMARK SMILES IDX 13 14
REMARK H PARENT
REMARK Flexibility Score: inf
ROOT
ATOM      1  C   UNL     1       5.749   1.338  -0.368  1.00  0.00     0.080 C 
ENDROOT
BRANCH   1   2
ATOM      2  C   UNL     1       5.133   1.307   0.988  1.00  0.00     0.130 C 
ATOM      3  C   UNL     1       5.484   0.256   1.981  1.00  0.00     0.087 C 
ATOM      4  O   UNL     1       4.317   2.149   1.325  1.00  0.00    -0.300 OA
ENDBRANCH   1   2
BRANCH   1   5
ATOM      5  C   UNL     1       7.244   1.100  -0.299  1.00  0.00     0.043 C 
BRANCH   5   6
ATOM      6  C   UNL     1       7.620  -0.193  -0.899  1.00  0.00    -0.044 A 
ATOM      7  C   UNL     1       7.711  -0.359  -2.286  1.00  0.00     0.008 A 
ATOM      8  C   UNL     1       7.894  -1.269  -0.086  1.00  0.00     0.054 A 
ATOM      9  C   UNL     1       8.069  -1.595  -2.792  1.00  0.00     0.051 A 
ATOM     10  C   UNL     1       8.256  -2.516  -0.602  1.00  0.00     0.166 A 
ATOM     11  C   UNL     1       8.344  -2.681  -1.967  1.00  0.00     0.165 A 
ATOM     12  O   UNL     1       8.572  -3.722  -0.012  1.00  0.00    -0.454 OA
ATOM     13  O   UNL     1       8.717  -3.997  -2.189  1.00  0.00    -0.454 OA
ATOM     14  C   UNL     1       8.960  -4.668  -0.975  1.00  0.00     0.468 C 
ENDBRANCH   5   6
ENDBRANCH   1   5
TORSDOF 3
ENDMDL
MODEL 3
REMARK VINA RESULT:      -7.2      2.043      2.600
REMARK SMILES CC(=O)CCc1ccc2c(c1)OCO2
REMARK SMILES IDX 4 1 2 2 1 3 3 4 5 5 6 6 7 7 11 8 8 9 10 10 9 11 12 12 14 13
REMARK SMILES IDX 13 14
REMARK H PARENT
REMARK Flexibility Score: inf
ROOT
ATOM      1  C   UNL     1       5.468  -0.008   2.039  1.00  0.00     0.080 C 
ENDROOT
BRANCH   1   2
ATOM      2  C   UNL     1       4.567   1.148   1.773  1.00  0.00     0.130 C 
ATOM      3  C   UNL     1       4.858   2.134   0.698  1.00  0.00     0.087 C 
ATOM      4  O   UNL     1       3.557   1.321   2.436  1.00  0.00    -0.300 OA
ENDBRANCH   1   2
BRANCH   1   5
ATOM      5  C   UNL     1       6.878   0.271   1.557  1.00  0.00     0.043 C 
BRANCH   5   6
ATOM      6  C   UNL     1       7.290  -0.671   0.501  1.00  0.00    -0.044 A 
ATOM      7  C   UNL     1       7.154  -0.356  -0.856  1.00  0.00     0.008 A 
ATOM      8  C   UNL     1       7.825  -1.891   0.846  1.00  0.00     0.054 A 
ATOM      9  C   UNL     1       7.559  -1.280  -1.803  1.00  0.00     0.051 A 
ATOM     10  C   UNL     1       8.234  -2.821  -0.115  1.00  0.00     0.166 A 
ATOM     11  C   UNL     1       8.099  -2.513  -1.450  1.00  0.00     0.165 A 
ATOM     12  O   UNL     1       8.786  -4.081  -0.028  1.00  0.00    -0.454 OA
ATOM     13  O   UNL     1       8.577  -3.601  -2.163  1.00  0.00    -0.454 OA
ATOM     14  C   UNL     1       9.106  -4.580  -1.301  1.00  0.00     0.468 C 
ENDBRANCH   5   6
ENDBRANCH   1   5
TORSDOF 3
ENDMDL
MODEL 4
REMARK VINA RESULT:      -7.1      1.256      1.475
REMARK SMILES CC(=O)CCc1ccc2c(c1)OCO2
REMARK SMILES IDX 4 1 2 2 1 3 3 4 5 5 6 6 7 7 11 8 8 9 10 10 9 11 12 12 14 13
REMARK SMILES IDX 13 14
REMARK H PARENT
REMARK Flexibility Score: inf
ROOT
ATOM      1  C   UNL     1       6.393   1.176   0.936  1.00  0.00     0.080 C 
ENDROOT
BRANCH   1   2
ATOM      2  C   UNL     1       5.661   0.354   1.939  1.00  0.00     0.130 C 
ATOM      3  C   UNL     1       6.254  -0.881   2.519  1.00  0.00     0.087 C 
ATOM      4  O   UNL     1       4.546   0.673   2.318  1.00  0.00    -0.300 OA
ENDBRANCH   1   2
BRANCH   1   5
ATOM      5  C   UNL     1       5.882   0.914  -0.467  1.00  0.00     0.043 C 
BRANCH   5   6
ATOM      6  C   UNL     1       6.826   0.094  -1.248  1.00  0.00    -0.044 A 
ATOM      7  C   UNL     1       7.508   0.614  -2.354  1.00  0.00     0.008 A 
ATOM      8  C   UNL     1       7.051  -1.215  -0.888  1.00  0.00     0.054 A 
ATOM      9  C   UNL     1       8.382  -0.202  -3.048  1.00  0.00     0.051 A 
ATOM     10  C   UNL     1       7.937  -2.036  -1.593  1.00  0.00     0.166 A 
ATOM     11  C   UNL     1       8.607  -1.526  -2.682  1.00  0.00     0.165 A 
ATOM     12  O   UNL     1       8.326  -3.350  -1.438  1.00  0.00    -0.454 OA
ATOM     13  O   UNL     1       9.404  -2.546  -3.177  1.00  0.00    -0.454 OA
ATOM     14  C   UNL     1       9.324  -3.693  -2.364  1.00  0.00     0.468 C 
ENDBRANCH   5   6
ENDBRANCH   1   5
TORSDOF 3
ENDMDL
MODEL 5
REMARK VINA RESULT:      -6.8      1.946      2.549
REMARK SMILES CC(=O)CCc1ccc2c(c1)OCO2
REMARK SMILES IDX 4 1 2 2 1 3 3 4 5 5 6 6 7 7 11 8 8 9 10 10 9 11 12 12 14 13
REMARK SMILES IDX 13 14
REMARK H PARENT
REMARK Flexibility Score: inf
ROOT
ATOM      1  C   UNL     1       7.003   1.094   0.901  1.00  0.00     0.080 C 
ENDROOT
BRANCH   1   2
ATOM      2  C   UNL     1       5.580   1.181   1.331  1.00  0.00     0.130 C 
ATOM      3  C   UNL     1       4.635   2.150   0.713  1.00  0.00     0.087 C 
ATOM      4  O   UNL     1       5.145   0.455   2.210  1.00  0.00    -0.300 OA
ENDBRANCH   1   2
BRANCH   1   5
ATOM      5  C   UNL     1       7.121   1.067  -0.610  1.00  0.00     0.043 C 
BRANCH   5   6
ATOM      6  C   UNL     1       7.578  -0.245  -1.099  1.00  0.00    -0.044 A 
ATOM      7  C   UNL     1       7.810  -0.481  -2.460  1.00  0.00     0.008 A 
ATOM      8  C   UNL     1       7.789  -1.271  -0.206  1.00  0.00     0.054 A 
ATOM      9  C   UNL     1       8.240  -1.733  -2.861  1.00  0.00     0.051 A 
ATOM     10  C   UNL     1       8.224  -2.535  -0.617  1.00  0.00     0.166 A 
ATOM     11  C   UNL     1       8.451  -2.767  -1.955  1.00  0.00     0.165 A 
ATOM     12  O   UNL     1       8.501  -3.701   0.066  1.00  0.00    -0.454 OA
ATOM     13  O   UNL     1       8.868  -4.085  -2.068  1.00  0.00    -0.454 OA
ATOM     14  C   UNL     1       9.001  -4.686  -0.802  1.00  0.00     0.468 C 
ENDBRANCH   5   6
ENDBRANCH   1   5
TORSDOF 3
ENDMDL
