@<TRIPOS>MOLECULE
/home/cewinharhar/GITHUB/reincatalyze/data/processed/docking_pred/2023-May-25-1902_sub9_nm5_bs15_s42_ex16_mel10_mts10000_k50_ec01_g099_lra3e-4_lrc3e-3/bb8285001221c2ec88d34c7e342a921234d5c761_ligand_9.pdbqt
 14 15 0 0 0
SMALL
GASTEIGER

@<TRIPOS>ATOM
      1  C          5.7270    1.3620   -0.2890 C.3     1  UNL1        0.0800
      2  C          5.1150    1.2800    1.0670 C.2     1  UNL1        0.1300
      3  C          5.4040    0.1470    1.9870 C.3     1  UNL1        0.0870
      4  O          4.3540    2.1470    1.4640 O.2     1  UNL1       -0.3000
      5  C          7.2220    1.1180   -0.2340 C.3     1  UNL1        0.0430
      6  C          7.5880   -0.1700   -0.8510 C.2     1  UNL1       -0.0440
      7  C          7.6280   -0.3310   -2.2410 C.2     1  UNL1        0.0080
      8  C          7.9020   -1.2450   -0.0520 C.2     1  UNL1        0.0540
      9  C          7.9790   -1.5630   -2.7640 C.2     1  UNL1        0.0510
     10  C          8.2580   -2.4870   -0.5850 C.2     1  UNL1        0.1660
     11  C          8.2960   -2.6480   -1.9520 C.2     1  UNL1        0.1650
     12  O          8.6070   -3.6910   -0.0100 O.2     1  UNL1       -0.4540
     13  O          8.6730   -3.9600   -2.1910 O.2     1  UNL1       -0.4540
     14  C          8.9690   -4.6310   -0.9900 C.3     1  UNL1        0.4680
@<TRIPOS>BOND
     1     9     7    1
     2     9    11    2
     3     7     6    2
     4    13    11    1
     5    13    14    1
     6    11    10    1
     7    14    12    1
     8     6     5    1
     9     6     8    1
    10    10     8    2
    11    10    12    1
    12     1     5    1
    13     1     2    1
    14     2     4    2
    15     2     3    1
