@<TRIPOS>MOLECULE
/home/cewinharhar/GITHUB/reincatalyze/data/processed/docking_pred/2023-May-25-1902_sub9_nm5_bs15_s42_ex16_mel10_mts10000_k50_ec01_g099_lra3e-4_lrc3e-3/bb8285001221c2ec88d34c7e342a921234d5c761_ligand_9.pdbqt
 14 15 0 0 0
SMALL
GASTEIGER

@<TRIPOS>ATOM
      1  C          5.5350    1.9070    1.2550 C.3     1  UNL1        0.0800
      2  C          5.0860    0.7000    2.0040 C.2     1  UNL1        0.1300
      3  C          5.9670   -0.4860    2.1750 C.3     1  UNL1        0.0870
      4  O          3.9730    0.6500    2.5020 O.2     1  UNL1       -0.3000
      5  C          5.4030    1.7060   -0.2420 C.3     1  UNL1        0.0430
      6  C          6.5720    1.0080   -0.8050 C.2     1  UNL1       -0.0440
      7  C          7.8770    1.4480   -0.5580 C.2     1  UNL1        0.0080
      8  C          6.3870   -0.1060   -1.5920 C.2     1  UNL1        0.0540
      9  C          8.9360    0.7520   -1.1130 C.2     1  UNL1        0.0510
     10  C          7.4610   -0.8060   -2.1500 C.2     1  UNL1        0.1660
     11  C          8.7460   -0.3730   -1.9090 C.2     1  UNL1        0.1650
     12  O          7.5380   -1.9230   -2.9540 O.2     1  UNL1       -0.4540
     13  O          9.5940   -1.2440   -2.5760 O.2     1  UNL1       -0.4540
     14  C          8.8740   -2.2940   -3.1770 C.3     1  UNL1        0.4680
@<TRIPOS>BOND
     1    14    12    1
     2    14    13    1
     3    12    10    1
     4    13    11    1
     5    10    11    2
     6    10     8    1
     7    11     9    1
     8     8     6    2
     9     9     7    2
    10     6     7    1
    11     6     5    1
    12     5     1    1
    13     1     2    1
    14     2     3    1
    15     2     4    2
