@<TRIPOS>MOLECULE
/home/cewinharhar/GITHUB/reincatalyze/data/processed/docking_pred/2023-May-25-1902_sub9_nm5_bs15_s42_ex16_mel10_mts10000_k50_ec01_g099_lra3e-4_lrc3e-3/bb8285001221c2ec88d34c7e342a921234d5c761_ligand_9.pdbqt
 14 15 0 0 0
SMALL
GASTEIGER

@<TRIPOS>ATOM
      1  C          5.5540    0.0190    1.9460 C.3     1  UNL1        0.0800
      2  C          4.6600    1.1700    1.6400 C.2     1  UNL1        0.1300
      3  C          4.9520    2.1110    0.5250 C.3     1  UNL1        0.0870
      4  O          3.6540    1.3750    2.3000 O.2     1  UNL1       -0.3000
      5  C          6.9670    0.2760    1.4630 C.3     1  UNL1        0.0430
      6  C          7.3750   -0.6900    0.4260 C.2     1  UNL1       -0.0440
      7  C          7.2740   -0.3890   -0.9370 C.2     1  UNL1        0.0080
      8  C          7.8700   -1.9190    0.7970 C.2     1  UNL1        0.0540
      9  C          7.6720   -1.3340   -1.8640 C.2     1  UNL1        0.0510
     10  C          8.2720   -2.8720   -0.1450 C.2     1  UNL1        0.1660
     11  C          8.1720   -2.5760   -1.4860 C.2     1  UNL1        0.1650
     12  O          8.7880   -4.1450   -0.0320 O.2     1  UNL1       -0.4540
     13  O          8.6350   -3.6860   -2.1770 O.2     1  UNL1       -0.4540
     14  C          9.1200   -4.6680   -1.2930 C.3     1  UNL1        0.4680
@<TRIPOS>BOND
     1    13    11    1
     2    13    14    1
     3     9    11    2
     4     9     7    1
     5    11    10    1
     6    14    12    1
     7     7     6    2
     8    10    12    1
     9    10     8    2
    10     6     8    1
    11     6     5    1
    12     3     2    1
    13     5     1    1
    14     2     1    1
    15     2     4    2
