MODEL 1
REMARK VINA RESULT:      -7.7      0.000      0.000
REMARK SMILES CC(=O)CCc1ccc2c(c1)OCO2
REMARK SMILES IDX 4 1 2 2 1 3 3 4 5 5 6 6 7 7 11 8 8 9 10 10 9 11 12 12 14 13
REMARK SMILES IDX 13 14
REMARK H PARENT
REMARK Flexibility Score: inf
ROOT
ATOM      1  C   UNL     1       5.535   1.907   1.255  1.00  0.00     0.080 C 
ENDROOT
BRANCH   1   2
ATOM      2  C   UNL     1       5.086   0.700   2.004  1.00  0.00     0.130 C 
ATOM      3  C   UNL     1       5.967  -0.486   2.175  1.00  0.00     0.087 C 
ATOM      4  O   UNL     1       3.973   0.650   2.502  1.00  0.00    -0.300 OA
ENDBRANCH   1   2
BRANCH   1   5
ATOM      5  C   UNL     1       5.403   1.706  -0.242  1.00  0.00     0.043 C 
BRANCH   5   6
ATOM      6  C   UNL     1       6.572   1.008  -0.805  1.00  0.00    -0.044 A 
ATOM      7  C   UNL     1       7.877   1.448  -0.558  1.00  0.00     0.008 A 
ATOM      8  C   UNL     1       6.387  -0.106  -1.592  1.00  0.00     0.054 A 
ATOM      9  C   UNL     1       8.936   0.752  -1.113  1.00  0.00     0.051 A 
ATOM     10  C   UNL     1       7.461  -0.806  -2.150  1.00  0.00     0.166 A 
ATOM     11  C   UNL     1       8.746  -0.373  -1.909  1.00  0.00     0.165 A 
ATOM     12  O   UNL     1       7.538  -1.923  -2.954  1.00  0.00    -0.454 OA
ATOM     13  O   UNL     1       9.594  -1.244  -2.576  1.00  0.00    -0.454 OA
ATOM     14  C   UNL     1       8.874  -2.294  -3.177  1.00  0.00     0.468 C 
ENDBRANCH   5   6
ENDBRANCH   1   5
TORSDOF 3
ENDMDL
MODEL 2
REMARK VINA RESULT:      -7.5      1.903      2.362
REMARK SMILES CC(=O)CCc1ccc2c(c1)OCO2
REMARK SMILES IDX 4 1 2 2 1 3 3 4 5 5 6 6 7 7 11 8 8 9 10 10 9 11 12 12 14 13
REMARK SMILES IDX 13 14
REMARK H PARENT
REMARK Flexibility Score: inf
ROOT
ATOM      1  C   UNL     1       5.727   1.362  -0.289  1.00  0.00     0.080 C 
ENDROOT
BRANCH   1   2
ATOM      2  C   UNL     1       5.115   1.280   1.067  1.00  0.00     0.130 C 
ATOM      3  C   UNL     1       5.404   0.147   1.987  1.00  0.00     0.087 C 
ATOM      4  O   UNL     1       4.354   2.147   1.464  1.00  0.00    -0.300 OA
ENDBRANCH   1   2
BRANCH   1   5
ATOM      5  C   UNL     1       7.222   1.118  -0.234  1.00  0.00     0.043 C 
BRANCH   5   6
ATOM      6  C   UNL     1       7.588  -0.170  -0.851  1.00  0.00    -0.044 A 
ATOM      7  C   UNL     1       7.628  -0.331  -2.241  1.00  0.00     0.008 A 
ATOM      8  C   UNL     1       7.902  -1.245  -0.052  1.00  0.00     0.054 A 
ATOM      9  C   UNL     1       7.979  -1.563  -2.764  1.00  0.00     0.051 A 
ATOM     10  C   UNL     1       8.258  -2.487  -0.585  1.00  0.00     0.166 A 
ATOM     11  C   UNL     1       8.296  -2.648  -1.952  1.00  0.00     0.165 A 
ATOM     12  O   UNL     1       8.607  -3.691  -0.010  1.00  0.00    -0.454 OA
ATOM     13  O   UNL     1       8.673  -3.960  -2.191  1.00  0.00    -0.454 OA
ATOM     14  C   UNL     1       8.969  -4.631  -0.990  1.00  0.00     0.468 C 
ENDBRANCH   5   6
ENDBRANCH   1   5
TORSDOF 3
ENDMDL
MODEL 3
REMARK VINA RESULT:      -7.2      2.080      2.610
REMARK SMILES CC(=O)CCc1ccc2c(c1)OCO2
REMARK SMILES IDX 4 1 2 2 1 3 3 4 5 5 6 6 7 7 11 8 8 9 10 10 9 11 12 12 14 13
REMARK SMILES IDX 13 14
REMARK H PARENT
REMARK Flexibility Score: inf
ROOT
ATOM      1  C   UNL     1       5.554   0.019   1.946  1.00  0.00     0.080 C 
ENDROOT
BRANCH   1   2
ATOM      2  C   UNL     1       4.660   1.170   1.640  1.00  0.00     0.130 C 
ATOM      3  C   UNL     1       4.952   2.111   0.525  1.00  0.00     0.087 C 
ATOM      4  O   UNL     1       3.654   1.375   2.300  1.00  0.00    -0.300 OA
ENDBRANCH   1   2
BRANCH   1   5
ATOM      5  C   UNL     1       6.967   0.276   1.463  1.00  0.00     0.043 C 
BRANCH   5   6
ATOM      6  C   UNL     1       7.375  -0.690   0.426  1.00  0.00    -0.044 A 
ATOM      7  C   UNL     1       7.274  -0.389  -0.937  1.00  0.00     0.008 A 
ATOM      8  C   UNL     1       7.870  -1.919   0.797  1.00  0.00     0.054 A 
ATOM      9  C   UNL     1       7.672  -1.334  -1.864  1.00  0.00     0.051 A 
ATOM     10  C   UNL     1       8.272  -2.872  -0.145  1.00  0.00     0.166 A 
ATOM     11  C   UNL     1       8.172  -2.576  -1.486  1.00  0.00     0.165 A 
ATOM     12  O   UNL     1       8.788  -4.145  -0.032  1.00  0.00    -0.454 OA
ATOM     13  O   UNL     1       8.635  -3.686  -2.177  1.00  0.00    -0.454 OA
ATOM     14  C   UNL     1       9.120  -4.668  -1.293  1.00  0.00     0.468 C 
ENDBRANCH   5   6
ENDBRANCH   1   5
TORSDOF 3
ENDMDL
MODEL 4
REMARK VINA RESULT:      -7.1      1.248      1.449
REMARK SMILES CC(=O)CCc1ccc2c(c1)OCO2
REMARK SMILES IDX 4 1 2 2 1 3 3 4 5 5 6 6 7 7 11 8 8 9 10 10 9 11 12 12 14 13
REMARK SMILES IDX 13 14
REMARK H PARENT
REMARK Flexibility Score: inf
ROOT
ATOM      1  C   UNL     1       6.391   1.243   0.902  1.00  0.00     0.080 C 
ENDROOT
BRANCH   1   2
ATOM      2  C   UNL     1       5.679   0.407   1.908  1.00  0.00     0.130 C 
ATOM      3  C   UNL     1       6.309  -0.799   2.508  1.00  0.00     0.087 C 
ATOM      4  O   UNL     1       4.549   0.691   2.272  1.00  0.00    -0.300 OA
ENDBRANCH   1   2
BRANCH   1   5
ATOM      5  C   UNL     1       5.893   0.960  -0.501  1.00  0.00     0.043 C 
BRANCH   5   6
ATOM      6  C   UNL     1       6.839   0.121  -1.258  1.00  0.00    -0.044 A 
ATOM      7  C   UNL     1       7.548   0.623  -2.355  1.00  0.00     0.008 A 
ATOM      8  C   UNL     1       7.039  -1.189  -0.885  1.00  0.00     0.054 A 
ATOM      9  C   UNL     1       8.423  -0.211  -3.027  1.00  0.00     0.051 A 
ATOM     10  C   UNL     1       7.926  -2.028  -1.567  1.00  0.00     0.166 A 
ATOM     11  C   UNL     1       8.623  -1.535  -2.647  1.00  0.00     0.165 A 
ATOM     12  O   UNL     1       8.293  -3.345  -1.394  1.00  0.00    -0.454 OA
ATOM     13  O   UNL     1       9.414  -2.570  -3.120  1.00  0.00    -0.454 OA
ATOM     14  C   UNL     1       9.304  -3.709  -2.300  1.00  0.00     0.468 C 
ENDBRANCH   5   6
ENDBRANCH   1   5
TORSDOF 3
ENDMDL
MODEL 5
REMARK VINA RESULT:      -6.8      1.246      1.739
REMARK SMILES CC(=O)CCc1ccc2c(c1)OCO2
REMARK SMILES IDX 4 1 2 2 1 3 3 4 5 5 6 6 7 7 11 8 8 9 10 10 9 11 12 12 14 13
REMARK SMILES IDX 13 14
REMARK H PARENT
REMARK Flexibility Score: inf
ROOT
ATOM      1  C   UNL     1       5.332  -0.081   1.955  1.00  0.00     0.080 C 
ENDROOT
BRANCH   1   2
ATOM      2  C   UNL     1       4.451   1.108   1.786  1.00  0.00     0.130 C 
ATOM      3  C   UNL     1       4.733   2.150   0.763  1.00  0.00     0.087 C 
ATOM      4  O   UNL     1       3.465   1.263   2.489  1.00  0.00    -0.300 OA
ENDBRANCH   1   2
BRANCH   1   5
ATOM      5  C   UNL     1       6.796   0.306   1.894  1.00  0.00     0.043 C 
BRANCH   5   6
ATOM      6  C   UNL     1       7.400  -0.043   0.596  1.00  0.00    -0.044 A 
ATOM      7  C   UNL     1       7.902   0.938  -0.267  1.00  0.00     0.008 A 
ATOM      8  C   UNL     1       7.480  -1.363   0.214  1.00  0.00     0.054 A 
ATOM      9  C   UNL     1       8.458   0.550  -1.473  1.00  0.00     0.051 A 
ATOM     10  C   UNL     1       8.044  -1.750  -1.006  1.00  0.00     0.166 A 
ATOM     11  C   UNL     1       8.537  -0.785  -1.856  1.00  0.00     0.165 A 
ATOM     12  O   UNL     1       8.236  -2.976  -1.605  1.00  0.00    -0.454 OA
ATOM     13  O   UNL     1       9.028  -1.446  -2.971  1.00  0.00    -0.454 OA
ATOM     14  C   UNL     1       8.940  -2.842  -2.814  1.00  0.00     0.468 C 
ENDBRANCH   5   6
ENDBRANCH   1   5
TORSDOF 3
ENDMDL
