@<TRIPOS>MOLECULE
/home/cewinharhar/GITHUB/reincatalyze/data/processed/docking_pred/2023-May-25-1902_sub9_nm5_bs15_s42_ex16_mel10_mts10000_k50_ec01_g099_lra3e-4_lrc3e-3/bb8285001221c2ec88d34c7e342a921234d5c761_ligand_9.pdbqt
 14 15 0 0 0
SMALL
GASTEIGER

@<TRIPOS>ATOM
      1  C          6.3910    1.2430    0.9020 C.3     1  UNL1        0.0800
      2  C          5.6790    0.4070    1.9080 C.2     1  UNL1        0.1300
      3  C          6.3090   -0.7990    2.5080 C.3     1  UNL1        0.0870
      4  O          4.5490    0.6910    2.2720 O.2     1  UNL1       -0.3000
      5  C          5.8930    0.9600   -0.5010 C.3     1  UNL1        0.0430
      6  C          6.8390    0.1210   -1.2580 C.2     1  UNL1       -0.0440
      7  C          7.5480    0.6230   -2.3550 C.2     1  UNL1        0.0080
      8  C          7.0390   -1.1890   -0.8850 C.2     1  UNL1        0.0540
      9  C          8.4230   -0.2110   -3.0270 C.2     1  UNL1        0.0510
     10  C          7.9260   -2.0280   -1.5670 C.2     1  UNL1        0.1660
     11  C          8.6230   -1.5350   -2.6470 C.2     1  UNL1        0.1650
     12  O          8.2930   -3.3450   -1.3940 O.2     1  UNL1       -0.4540
     13  O          9.4140   -2.5700   -3.1200 O.2     1  UNL1       -0.4540
     14  C          9.3040   -3.7090   -2.3000 C.3     1  UNL1        0.4680
@<TRIPOS>BOND
     1    13    11    1
     2    13    14    1
     3     9    11    2
     4     9     7    1
     5    11    10    1
     6     7     6    2
     7    14    12    1
     8    10    12    1
     9    10     8    2
    10     6     8    1
    11     6     5    1
    12     5     1    1
    13     1     2    1
    14     2     4    2
    15     2     3    1
