@<TRIPOS>MOLECULE
/home/cewinharhar/GITHUB/reincatalyze/data/processed/docking_pred/2023-May-25-1902_sub9_nm5_bs15_s42_ex16_mel10_mts10000_k50_ec01_g099_lra3e-4_lrc3e-3/bb8285001221c2ec88d34c7e342a921234d5c761_ligand_9.pdbqt
 14 15 0 0 0
SMALL
GASTEIGER

@<TRIPOS>ATOM
      1  C          5.3320   -0.0810    1.9550 C.3     1  UNL1        0.0800
      2  C          4.4510    1.1080    1.7860 C.2     1  UNL1        0.1300
      3  C          4.7330    2.1500    0.7630 C.3     1  UNL1        0.0870
      4  O          3.4650    1.2630    2.4890 O.2     1  UNL1       -0.3000
      5  C          6.7960    0.3060    1.8940 C.3     1  UNL1        0.0430
      6  C          7.4000   -0.0430    0.5960 C.2     1  UNL1       -0.0440
      7  C          7.9020    0.9380   -0.2670 C.2     1  UNL1        0.0080
      8  C          7.4800   -1.3630    0.2140 C.2     1  UNL1        0.0540
      9  C          8.4580    0.5500   -1.4730 C.2     1  UNL1        0.0510
     10  C          8.0440   -1.7500   -1.0060 C.2     1  UNL1        0.1660
     11  C          8.5370   -0.7850   -1.8560 C.2     1  UNL1        0.1650
     12  O          8.2360   -2.9760   -1.6050 O.2     1  UNL1       -0.4540
     13  O          9.0280   -1.4460   -2.9710 O.2     1  UNL1       -0.4540
     14  C          8.9400   -2.8420   -2.8140 C.3     1  UNL1        0.4680
@<TRIPOS>BOND
     1    13    14    1
     2    13    11    1
     3    14    12    1
     4    11     9    2
     5    11    10    1
     6    12    10    1
     7     9     7    1
     8    10     8    2
     9     7     6    2
    10     8     6    1
    11     6     5    1
    12     3     2    1
    13     2     1    1
    14     2     4    2
    15     5     1    1
