@<TRIPOS>MOLECULE
/home/cewinharhar/GITHUB/reincatalyze/data/processed/docking_pred/2023-May-25-1902_sub9_nm5_bs15_s42_ex16_mel10_mts10000_k50_ec01_g099_lra3e-4_lrc3e-3/bd46466a37b60c0e827a956a9d90ccf216a1d560_ligand_9.pdbqt
 14 15 0 0 0
SMALL
GASTEIGER

@<TRIPOS>ATOM
      1  C          5.3800   -0.3150    2.1100 C.3     1  UNL1        0.0800
      2  C          4.4800    0.8540    1.9110 C.2     1  UNL1        0.1300
      3  C          4.7090    1.8410    0.8220 C.3     1  UNL1        0.0870
      4  O          3.5210    1.0380    2.6440 O.2     1  UNL1       -0.3000
      5  C          6.7960   -0.0010    1.6690 C.3     1  UNL1        0.0430
      6  C          7.2390   -0.8870    0.5780 C.2     1  UNL1       -0.0440
      7  C          7.0580   -0.5400   -0.7660 C.2     1  UNL1        0.0080
      8  C          7.8470   -2.0850    0.8760 C.2     1  UNL1        0.0540
      9  C          7.4950   -1.4110   -1.7480 C.2     1  UNL1        0.0510
     10  C          8.2870   -2.9610   -0.1210 C.2     1  UNL1        0.1660
     11  C          8.1090   -2.6220   -1.4430 C.2     1  UNL1        0.1650
     12  O          8.9100   -4.1910   -0.0820 O.2     1  UNL1       -0.4540
     13  O          8.6320   -3.6600   -2.1980 O.2     1  UNL1       -0.4540
     14  C          9.2310   -4.6340   -1.3760 C.3     1  UNL1        0.4680
@<TRIPOS>BOND
     1    13    11    1
     2    13    14    1
     3     9    11    2
     4     9     7    1
     5    11    10    1
     6    14    12    1
     7     7     6    2
     8    10    12    1
     9    10     8    2
    10     6     8    1
    11     6     5    1
    12     3     2    1
    13     5     1    1
    14     2     1    1
    15     2     4    2
