@<TRIPOS>MOLECULE
/home/cewinharhar/GITHUB/reincatalyze/data/processed/docking_pred/2023-May-25-1902_sub9_nm5_bs15_s42_ex16_mel10_mts10000_k50_ec01_g099_lra3e-4_lrc3e-3/bd46466a37b60c0e827a956a9d90ccf216a1d560_ligand_9.pdbqt
 14 15 0 0 0
SMALL
GASTEIGER

@<TRIPOS>ATOM
      1  C          5.6450    0.2380    2.5280 C.3     1  UNL1        0.0800
      2  C          4.5180    1.0550    1.9980 C.2     1  UNL1        0.1300
      3  C          4.6360    1.8190    0.7270 C.3     1  UNL1        0.0870
      4  O          3.4560    1.1210    2.5970 O.2     1  UNL1       -0.3000
      5  C          5.7860   -1.0650    1.7670 C.3     1  UNL1        0.0430
      6  C          6.7960   -0.9680    0.6990 C.2     1  UNL1       -0.0440
      7  C          8.0360   -0.3560    0.9160 C.2     1  UNL1        0.0080
      8  C          6.5260   -1.4910   -0.5450 C.2     1  UNL1        0.0540
      9  C          8.9450   -0.2950   -0.1250 C.2     1  UNL1        0.0510
     10  C          7.4480   -1.4270   -1.5940 C.2     1  UNL1        0.1660
     11  C          8.6680   -0.8240   -1.3820 C.2     1  UNL1        0.1650
     12  O          7.4170   -1.8650   -2.9010 O.2     1  UNL1       -0.4540
     13  O          9.3680   -0.9050   -2.5750 O.2     1  UNL1       -0.4540
     14  C          8.6480   -1.6370   -3.5380 C.3     1  UNL1        0.4680
@<TRIPOS>BOND
     1    14    12    1
     2    14    13    1
     3    12    10    1
     4    13    11    1
     5    10    11    2
     6    10     8    1
     7    11     9    1
     8     8     6    2
     9     9     7    2
    10     6     7    1
    11     6     5    1
    12     3     2    1
    13     5     1    1
    14     2     1    1
    15     2     4    2
