@<TRIPOS>MOLECULE
/home/cewinharhar/GITHUB/reincatalyze/data/processed/docking_pred/2023-May-25-1902_sub9_nm5_bs15_s42_ex16_mel10_mts10000_k50_ec01_g099_lra3e-4_lrc3e-3/bd46466a37b60c0e827a956a9d90ccf216a1d560_ligand_9.pdbqt
 14 15 0 0 0
SMALL
GASTEIGER

@<TRIPOS>ATOM
      1  C          6.3160    0.5210    2.1580 C.3     1  UNL1        0.0800
      2  C          4.9280    0.9740    1.8640 C.2     1  UNL1        0.1300
      3  C          4.6330    1.9080    0.7440 C.3     1  UNL1        0.0870
      4  O          3.9870    0.5900    2.5390 O.2     1  UNL1       -0.3000
      5  C          6.4020   -0.9910    2.2100 C.3     1  UNL1        0.0430
      6  C          7.0790   -1.5410    1.0220 C.2     1  UNL1       -0.0440
      7  C          7.7770   -2.7530    1.0720 C.2     1  UNL1        0.0080
      8  C          7.0280   -0.8560   -0.1710 C.2     1  UNL1        0.0540
      9  C          8.3930   -3.2210   -0.0750 C.2     1  UNL1        0.0510
     10  C          7.6510   -1.3330   -1.3280 C.2     1  UNL1        0.1660
     11  C          8.3400   -2.5250   -1.2790 C.2     1  UNL1        0.1650
     12  O          7.7450   -0.8460   -2.6140 O.2     1  UNL1       -0.4540
     13  O          8.8460   -2.7470   -2.5500 O.2     1  UNL1       -0.4540
     14  C          8.4170   -1.7530   -3.4500 C.3     1  UNL1        0.4680
@<TRIPOS>BOND
     1    14    12    1
     2    14    13    1
     3    12    10    1
     4    13    11    1
     5    10    11    2
     6    10     8    1
     7    11     9    1
     8     8     6    2
     9     9     7    2
    10     3     2    1
    11     6     7    1
    12     6     5    1
    13     2     1    1
    14     2     4    2
    15     1     5    1
