@<TRIPOS>MOLECULE
/home/cewinharhar/GITHUB/reincatalyze/data/processed/docking_pred/2023-May-25-1902_sub9_nm5_bs15_s42_ex16_mel10_mts10000_k50_ec01_g099_lra3e-4_lrc3e-3/bd46466a37b60c0e827a956a9d90ccf216a1d560_ligand_9.pdbqt
 14 15 0 0 0
SMALL
GASTEIGER

@<TRIPOS>ATOM
      1  C          7.9690   -1.7880   -2.3750 C.3     1  UNL1        0.0800
      2  C          8.7050   -0.4970   -2.4800 C.2     1  UNL1        0.1300
      3  C          8.1480    0.6610   -3.2300 C.3     1  UNL1        0.0870
      4  O          9.7940   -0.3510   -1.9490 O.2     1  UNL1       -0.3000
      5  C          8.1230   -2.3980   -0.9960 C.3     1  UNL1        0.0430
      6  C          7.2960   -1.7010    0.0060 C.2     1  UNL1       -0.0440
      7  C          7.2220   -2.1430    1.3320 C.2     1  UNL1        0.0080
      8  C          6.5780   -0.5850   -0.3600 C.2     1  UNL1        0.0540
      9  C          6.4310   -1.4480    2.2280 C.2     1  UNL1        0.0510
     10  C          5.7790    0.1140    0.5500 C.2     1  UNL1        0.1660
     11  C          5.7050   -0.3210    1.8540 C.2     1  UNL1        0.1650
     12  O          4.9810    1.2330    0.4340 O.2     1  UNL1       -0.4540
     13  O          4.8550    0.5490    2.5190 O.2     1  UNL1       -0.4540
     14  C          4.4450    1.6010    1.6790 C.3     1  UNL1        0.4680
@<TRIPOS>BOND
     1     3     2    1
     2     2     1    1
     3     2     4    2
     4     1     5    1
     5     5     6    1
     6     8     6    2
     7     8    10    1
     8     6     7    1
     9    12    10    1
    10    12    14    1
    11    10    11    2
    12     7     9    2
    13    14    13    1
    14    11     9    1
    15    11    13    1
