MODEL 1
REMARK VINA RESULT:      -6.4      0.000      0.000
REMARK SMILES CC(=O)CCc1ccc2c(c1)OCO2
REMARK SMILES IDX 4 1 2 2 1 3 3 4 5 5 6 6 7 7 11 8 8 9 10 10 9 11 12 12 14 13
REMARK SMILES IDX 13 14
REMARK H PARENT
REMARK Flexibility Score: inf
ROOT
ATOM      1  C   UNL     1       5.380  -0.315   2.110  1.00  0.00     0.080 C 
ENDROOT
BRANCH   1   2
ATOM      2  C   UNL     1       4.480   0.854   1.911  1.00  0.00     0.130 C 
ATOM      3  C   UNL     1       4.709   1.841   0.822  1.00  0.00     0.087 C 
ATOM      4  O   UNL     1       3.521   1.038   2.644  1.00  0.00    -0.300 OA
ENDBRANCH   1   2
BRANCH   1   5
ATOM      5  C   UNL     1       6.796  -0.001   1.669  1.00  0.00     0.043 C 
BRANCH   5   6
ATOM      6  C   UNL     1       7.239  -0.887   0.578  1.00  0.00    -0.044 A 
ATOM      7  C   UNL     1       7.058  -0.540  -0.766  1.00  0.00     0.008 A 
ATOM      8  C   UNL     1       7.847  -2.085   0.876  1.00  0.00     0.054 A 
ATOM      9  C   UNL     1       7.495  -1.411  -1.748  1.00  0.00     0.051 A 
ATOM     10  C   UNL     1       8.287  -2.961  -0.121  1.00  0.00     0.166 A 
ATOM     11  C   UNL     1       8.109  -2.622  -1.443  1.00  0.00     0.165 A 
ATOM     12  O   UNL     1       8.910  -4.191  -0.082  1.00  0.00    -0.454 OA
ATOM     13  O   UNL     1       8.632  -3.660  -2.198  1.00  0.00    -0.454 OA
ATOM     14  C   UNL     1       9.231  -4.634  -1.376  1.00  0.00     0.468 C 
ENDBRANCH   5   6
ENDBRANCH   1   5
TORSDOF 3
ENDMDL
MODEL 2
REMARK VINA RESULT:      -5.8      1.151      2.089
REMARK SMILES CC(=O)CCc1ccc2c(c1)OCO2
REMARK SMILES IDX 4 1 2 2 1 3 3 4 5 5 6 6 7 7 11 8 8 9 10 10 9 11 12 12 14 13
REMARK SMILES IDX 13 14
REMARK H PARENT
REMARK Flexibility Score: inf
ROOT
ATOM      1  C   UNL     1       6.316   0.521   2.158  1.00  0.00     0.080 C 
ENDROOT
BRANCH   1   2
ATOM      2  C   UNL     1       4.928   0.974   1.864  1.00  0.00     0.130 C 
ATOM      3  C   UNL     1       4.633   1.908   0.744  1.00  0.00     0.087 C 
ATOM      4  O   UNL     1       3.987   0.590   2.539  1.00  0.00    -0.300 OA
ENDBRANCH   1   2
BRANCH   1   5
ATOM      5  C   UNL     1       6.402  -0.991   2.210  1.00  0.00     0.043 C 
BRANCH   5   6
ATOM      6  C   UNL     1       7.079  -1.541   1.022  1.00  0.00    -0.044 A 
ATOM      7  C   UNL     1       7.777  -2.753   1.072  1.00  0.00     0.008 A 
ATOM      8  C   UNL     1       7.028  -0.856  -0.171  1.00  0.00     0.054 A 
ATOM      9  C   UNL     1       8.393  -3.221  -0.075  1.00  0.00     0.051 A 
ATOM     10  C   UNL     1       7.651  -1.333  -1.328  1.00  0.00     0.166 A 
ATOM     11  C   UNL     1       8.340  -2.525  -1.279  1.00  0.00     0.165 A 
ATOM     12  O   UNL     1       7.745  -0.846  -2.614  1.00  0.00    -0.454 OA
ATOM     13  O   UNL     1       8.846  -2.747  -2.550  1.00  0.00    -0.454 OA
ATOM     14  C   UNL     1       8.417  -1.753  -3.450  1.00  0.00     0.468 C 
ENDBRANCH   5   6
ENDBRANCH   1   5
TORSDOF 3
ENDMDL
MODEL 3
REMARK VINA RESULT:      -5.6      1.351      6.122
REMARK SMILES CC(=O)CCc1ccc2c(c1)OCO2
REMARK SMILES IDX 4 1 2 2 1 3 3 4 5 5 6 6 7 7 11 8 8 9 10 10 9 11 12 12 14 13
REMARK SMILES IDX 13 14
REMARK H PARENT
REMARK Flexibility Score: inf
ROOT
ATOM      1  C   UNL     1       8.708  -4.018  -0.325  1.00  0.00     0.080 C 
ENDROOT
BRANCH   1   2
ATOM      2  C   UNL     1       9.269  -4.885  -1.398  1.00  0.00     0.130 C 
ATOM      3  C   UNL     1       8.906  -6.323  -1.509  1.00  0.00     0.087 C 
ATOM      4  O   UNL     1      10.049  -4.436  -2.223  1.00  0.00    -0.300 OA
ENDBRANCH   1   2
BRANCH   1   5
ATOM      5  C   UNL     1       8.357  -2.642  -0.856  1.00  0.00     0.043 C 
BRANCH   5   6
ATOM      6  C   UNL     1       7.499  -1.897   0.082  1.00  0.00    -0.044 A 
ATOM      7  C   UNL     1       7.387  -2.268   1.427  1.00  0.00     0.008 A 
ATOM      8  C   UNL     1       6.787  -0.806  -0.364  1.00  0.00     0.054 A 
ATOM      9  C   UNL     1       6.567  -1.531   2.261  1.00  0.00     0.051 A 
ATOM     10  C   UNL     1       5.960  -0.063   0.484  1.00  0.00     0.166 A 
ATOM     11  C   UNL     1       5.849  -0.429   1.807  1.00  0.00     0.165 A 
ATOM     12  O   UNL     1       5.162   1.044   0.285  1.00  0.00    -0.454 OA
ATOM     13  O   UNL     1       4.977   0.471   2.400  1.00  0.00    -0.454 OA
ATOM     14  C   UNL     1       4.588   1.475   1.493  1.00  0.00     0.468 C 
ENDBRANCH   5   6
ENDBRANCH   1   5
TORSDOF 3
ENDMDL
MODEL 4
REMARK VINA RESULT:      -5.6      1.830      5.435
REMARK SMILES CC(=O)CCc1ccc2c(c1)OCO2
REMARK SMILES IDX 4 1 2 2 1 3 3 4 5 5 6 6 7 7 11 8 8 9 10 10 9 11 12 12 14 13
REMARK SMILES IDX 13 14
REMARK H PARENT
REMARK Flexibility Score: inf
ROOT
ATOM      1  C   UNL     1       7.969  -1.788  -2.375  1.00  0.00     0.080 C 
ENDROOT
BRANCH   1   2
ATOM      2  C   UNL     1       8.705  -0.497  -2.480  1.00  0.00     0.130 C 
ATOM      3  C   UNL     1       8.148   0.661  -3.230  1.00  0.00     0.087 C 
ATOM      4  O   UNL     1       9.794  -0.351  -1.949  1.00  0.00    -0.300 OA
ENDBRANCH   1   2
BRANCH   1   5
ATOM      5  C   UNL     1       8.123  -2.398  -0.996  1.00  0.00     0.043 C 
BRANCH   5   6
ATOM      6  C   UNL     1       7.296  -1.701   0.006  1.00  0.00    -0.044 A 
ATOM      7  C   UNL     1       7.222  -2.143   1.332  1.00  0.00     0.008 A 
ATOM      8  C   UNL     1       6.578  -0.585  -0.360  1.00  0.00     0.054 A 
ATOM      9  C   UNL     1       6.431  -1.448   2.228  1.00  0.00     0.051 A 
ATOM     10  C   UNL     1       5.779   0.114   0.550  1.00  0.00     0.166 A 
ATOM     11  C   UNL     1       5.705  -0.321   1.854  1.00  0.00     0.165 A 
ATOM     12  O   UNL     1       4.981   1.233   0.434  1.00  0.00    -0.454 OA
ATOM     13  O   UNL     1       4.855   0.549   2.519  1.00  0.00    -0.454 OA
ATOM     14  C   UNL     1       4.445   1.601   1.679  1.00  0.00     0.468 C 
ENDBRANCH   5   6
ENDBRANCH   1   5
TORSDOF 3
ENDMDL
MODEL 5
REMARK VINA RESULT:      -5.6      1.847      2.131
REMARK SMILES CC(=O)CCc1ccc2c(c1)OCO2
REMARK SMILES IDX 4 1 2 2 1 3 3 4 5 5 6 6 7 7 11 8 8 9 10 10 9 11 12 12 14 13
REMARK SMILES IDX 13 14
REMARK H PARENT
REMARK Flexibility Score: inf
ROOT
ATOM      1  C   UNL     1       5.645   0.238   2.528  1.00  0.00     0.080 C 
ENDROOT
BRANCH   1   2
ATOM      2  C   UNL     1       4.518   1.055   1.998  1.00  0.00     0.130 C 
ATOM      3  C   UNL     1       4.636   1.819   0.727  1.00  0.00     0.087 C 
ATOM      4  O   UNL     1       3.456   1.121   2.597  1.00  0.00    -0.300 OA
ENDBRANCH   1   2
BRANCH   1   5
ATOM      5  C   UNL     1       5.786  -1.065   1.767  1.00  0.00     0.043 C 
BRANCH   5   6
ATOM      6  C   UNL     1       6.796  -0.968   0.699  1.00  0.00    -0.044 A 
ATOM      7  C   UNL     1       8.036  -0.356   0.916  1.00  0.00     0.008 A 
ATOM      8  C   UNL     1       6.526  -1.491  -0.545  1.00  0.00     0.054 A 
ATOM      9  C   UNL     1       8.945  -0.295  -0.125  1.00  0.00     0.051 A 
ATOM     10  C   UNL     1       7.448  -1.427  -1.594  1.00  0.00     0.166 A 
ATOM     11  C   UNL     1       8.668  -0.824  -1.382  1.00  0.00     0.165 A 
ATOM     12  O   UNL     1       7.417  -1.865  -2.901  1.00  0.00    -0.454 OA
ATOM     13  O   UNL     1       9.368  -0.905  -2.575  1.00  0.00    -0.454 OA
ATOM     14  C   UNL     1       8.648  -1.637  -3.538  1.00  0.00     0.468 C 
ENDBRANCH   5   6
ENDBRANCH   1   5
TORSDOF 3
ENDMDL
