@<TRIPOS>MOLECULE
/home/cewinharhar/GITHUB/reincatalyze/data/processed/docking_pred/2023-May-25-1902_sub9_nm5_bs15_s42_ex16_mel10_mts10000_k50_ec01_g099_lra3e-4_lrc3e-3/bdfc35a41e3d78d3bf59a6b88613069133e00868_ligand_9.pdbqt
 14 15 0 0 0
SMALL
GASTEIGER

@<TRIPOS>ATOM
      1  C          5.7320    1.3970   -0.2850 C.3     1  UNL1        0.0800
      2  C          5.0950    1.2850    1.0570 C.2     1  UNL1        0.1300
      3  C          5.3950    0.1510    1.9710 C.3     1  UNL1        0.0870
      4  O          4.3010    2.1260    1.4460 O.2     1  UNL1       -0.3000
      5  C          7.2240    1.1410   -0.2080 C.3     1  UNL1        0.0430
      6  C          7.5910   -0.1390   -0.8400 C.2     1  UNL1       -0.0440
      7  C          7.6460   -0.2810   -2.2310 C.2     1  UNL1        0.0080
      8  C          7.8920   -1.2270   -0.0520 C.2     1  UNL1        0.0540
      9  C          7.9980   -1.5070   -2.7670 C.2     1  UNL1        0.0510
     10  C          8.2480   -2.4630   -0.5990 C.2     1  UNL1        0.1660
     11  C          8.3010   -2.6040   -1.9680 C.2     1  UNL1        0.1650
     12  O          8.5860   -3.6770   -0.0380 O.2     1  UNL1       -0.4540
     13  O          8.6750   -3.9150   -2.2220 O.2     1  UNL1       -0.4540
     14  C          8.9540   -4.6040   -1.0260 C.3     1  UNL1        0.4680
@<TRIPOS>BOND
     1     9     7    1
     2     9    11    2
     3     7     6    2
     4    13    11    1
     5    13    14    1
     6    11    10    1
     7    14    12    1
     8     6     5    1
     9     6     8    1
    10    10     8    2
    11    10    12    1
    12     1     5    1
    13     1     2    1
    14     2     4    2
    15     2     3    1
