@<TRIPOS>MOLECULE
/home/cewinharhar/GITHUB/reincatalyze/data/processed/docking_pred/2023-May-25-1902_sub9_nm5_bs15_s42_ex16_mel10_mts10000_k50_ec01_g099_lra3e-4_lrc3e-3/bdfc35a41e3d78d3bf59a6b88613069133e00868_ligand_9.pdbqt
 14 15 0 0 0
SMALL
GASTEIGER

@<TRIPOS>ATOM
      1  C          6.9450    0.9500    1.1960 C.3     1  UNL1        0.0800
      2  C          5.4770    1.1520    1.3490 C.2     1  UNL1        0.1300
      3  C          4.7360    2.1500    0.5320 C.3     1  UNL1        0.0870
      4  O          4.8360    0.4990    2.1560 O.2     1  UNL1       -0.3000
      5  C          7.3730    1.0950   -0.2510 C.3     1  UNL1        0.0430
      6  C          7.7130   -0.2060   -0.8530 C.2     1  UNL1       -0.0440
      7  C          7.7980   -0.3720   -2.2400 C.2     1  UNL1        0.0080
      8  C          7.9580   -1.2900   -0.0410 C.2     1  UNL1        0.0540
      9  C          8.1230   -1.6170   -2.7480 C.2     1  UNL1        0.0510
     10  C          8.2870   -2.5460   -0.5600 C.2     1  UNL1        0.1660
     11  C          8.3690   -2.7110   -1.9250 C.2     1  UNL1        0.1650
     12  O          8.5700   -3.7610    0.0280 O.2     1  UNL1       -0.4540
     13  O          8.7060   -4.0360   -2.1490 O.2     1  UNL1       -0.4540
     14  C          8.9320   -4.7150   -0.9370 C.3     1  UNL1        0.4680
@<TRIPOS>BOND
     1     9     7    1
     2     9    11    2
     3     7     6    2
     4    13    11    1
     5    13    14    1
     6    11    10    1
     7    14    12    1
     8     6     5    1
     9     6     8    1
    10    10     8    2
    11    10    12    1
    12     5     1    1
    13     3     2    1
    14     1     2    1
    15     2     4    2
