@<TRIPOS>MOLECULE
/home/cewinharhar/GITHUB/reincatalyze/data/processed/docking_pred/2023-May-25-1902_sub9_nm5_bs15_s42_ex16_mel10_mts10000_k50_ec01_g099_lra3e-4_lrc3e-3/bdfc35a41e3d78d3bf59a6b88613069133e00868_ligand_9.pdbqt
 14 15 0 0 0
SMALL
GASTEIGER

@<TRIPOS>ATOM
      1  C          5.5630    1.8620    1.2960 C.3     1  UNL1        0.0800
      2  C          5.1060    0.6440    2.0220 C.2     1  UNL1        0.1300
      3  C          5.9880   -0.5420    2.1880 C.3     1  UNL1        0.0870
      4  O          3.9870    0.5850    2.5030 O.2     1  UNL1       -0.3000
      5  C          5.4250    1.6930   -0.2040 C.3     1  UNL1        0.0430
      6  C          6.5850    0.9940   -0.7850 C.2     1  UNL1       -0.0440
      7  C          7.8940    1.4380   -0.5640 C.2     1  UNL1        0.0080
      8  C          6.3890   -0.1240   -1.5630 C.2     1  UNL1        0.0540
      9  C          8.9440    0.7410   -1.1340 C.2     1  UNL1        0.0510
     10  C          7.4530   -0.8250   -2.1360 C.2     1  UNL1        0.1660
     11  C          8.7420   -0.3890   -1.9200 C.2     1  UNL1        0.1650
     12  O          7.5180   -1.9460   -2.9360 O.2     1  UNL1       -0.4540
     13  O          9.5790   -1.2610   -2.5980 O.2     1  UNL1       -0.4540
     14  C          8.8510   -2.3150   -3.1810 C.3     1  UNL1        0.4680
@<TRIPOS>BOND
     1    14    12    1
     2    14    13    1
     3    12    10    1
     4    13    11    1
     5    10    11    2
     6    10     8    1
     7    11     9    1
     8     8     6    2
     9     9     7    2
    10     6     7    1
    11     6     5    1
    12     5     1    1
    13     1     2    1
    14     2     3    1
    15     2     4    2
