MODEL 1
REMARK VINA RESULT:      -7.6      0.000      0.000
REMARK SMILES CC(=O)CCc1ccc2c(c1)OCO2
REMARK SMILES IDX 4 1 2 2 1 3 3 4 5 5 6 6 7 7 11 8 8 9 10 10 9 11 12 12 14 13
REMARK SMILES IDX 13 14
REMARK H PARENT
REMARK Flexibility Score: inf
ROOT
ATOM      1  C   UNL     1       5.534   1.940   1.259  1.00  0.00     0.080 C 
ENDROOT
BRANCH   1   2
ATOM      2  C   UNL     1       5.116   0.720   2.005  1.00  0.00     0.130 C 
ATOM      3  C   UNL     1       6.036  -0.434   2.192  1.00  0.00     0.087 C 
ATOM      4  O   UNL     1       3.998   0.633   2.487  1.00  0.00    -0.300 OA
ENDBRANCH   1   2
BRANCH   1   5
ATOM      5  C   UNL     1       5.405   1.741  -0.238  1.00  0.00     0.043 C 
BRANCH   5   6
ATOM      6  C   UNL     1       6.571   1.034  -0.797  1.00  0.00    -0.044 A 
ATOM      7  C   UNL     1       7.879   1.458  -0.539  1.00  0.00     0.008 A 
ATOM      8  C   UNL     1       6.380  -0.074  -1.592  1.00  0.00     0.054 A 
ATOM      9  C   UNL     1       8.934   0.754  -1.090  1.00  0.00     0.051 A 
ATOM     10  C   UNL     1       7.449  -0.783  -2.146  1.00  0.00     0.166 A 
ATOM     11  C   UNL     1       8.737  -0.365  -1.894  1.00  0.00     0.165 A 
ATOM     12  O   UNL     1       7.520  -1.896  -2.956  1.00  0.00    -0.454 OA
ATOM     13  O   UNL     1       9.580  -1.241  -2.560  1.00  0.00    -0.454 OA
ATOM     14  C   UNL     1       8.854  -2.280  -3.172  1.00  0.00     0.468 C 
ENDBRANCH   5   6
ENDBRANCH   1   5
TORSDOF 3
ENDMDL
MODEL 2
REMARK VINA RESULT:      -7.3      1.951      2.429
REMARK SMILES CC(=O)CCc1ccc2c(c1)OCO2
REMARK SMILES IDX 4 1 2 2 1 3 3 4 5 5 6 6 7 7 11 8 8 9 10 10 9 11 12 12 14 13
REMARK SMILES IDX 13 14
REMARK H PARENT
REMARK Flexibility Score: inf
ROOT
ATOM      1  C   UNL     1       5.758   1.281  -0.291  1.00  0.00     0.080 C 
ENDROOT
BRANCH   1   2
ATOM      2  C   UNL     1       5.199   1.214   1.088  1.00  0.00     0.130 C 
ATOM      3  C   UNL     1       5.381   0.013   1.947  1.00  0.00     0.087 C 
ATOM      4  O   UNL     1       4.571   2.150   1.556  1.00  0.00    -0.300 OA
ENDBRANCH   1   2
BRANCH   1   5
ATOM      5  C   UNL     1       7.257   1.060  -0.289  1.00  0.00     0.043 C 
BRANCH   5   6
ATOM      6  C   UNL     1       7.619  -0.239  -0.883  1.00  0.00    -0.044 A 
ATOM      7  C   UNL     1       7.650  -0.428  -2.269  1.00  0.00     0.008 A 
ATOM      8  C   UNL     1       7.937  -1.299  -0.064  1.00  0.00     0.054 A 
ATOM      9  C   UNL     1       7.998  -1.670  -2.770  1.00  0.00     0.051 A 
ATOM     10  C   UNL     1       8.288  -2.552  -0.575  1.00  0.00     0.166 A 
ATOM     11  C   UNL     1       8.319  -2.739  -1.939  1.00  0.00     0.165 A 
ATOM     12  O   UNL     1       8.640  -3.744   0.021  1.00  0.00    -0.454 OA
ATOM     13  O   UNL     1       8.694  -4.056  -2.155  1.00  0.00    -0.454 OA
ATOM     14  C   UNL     1       8.995  -4.704  -0.942  1.00  0.00     0.468 C 
ENDBRANCH   5   6
ENDBRANCH   1   5
TORSDOF 3
ENDMDL
MODEL 3
REMARK VINA RESULT:      -7.1      2.054      2.623
REMARK SMILES CC(=O)CCc1ccc2c(c1)OCO2
REMARK SMILES IDX 4 1 2 2 1 3 3 4 5 5 6 6 7 7 11 8 8 9 10 10 9 11 12 12 14 13
REMARK SMILES IDX 13 14
REMARK H PARENT
REMARK Flexibility Score: inf
ROOT
ATOM      1  C   UNL     1       5.454  -0.034   2.035  1.00  0.00     0.080 C 
ENDROOT
BRANCH   1   2
ATOM      2  C   UNL     1       4.582   1.144   1.771  1.00  0.00     0.130 C 
ATOM      3  C   UNL     1       4.903   2.129   0.703  1.00  0.00     0.087 C 
ATOM      4  O   UNL     1       3.572   1.336   2.428  1.00  0.00    -0.300 OA
ENDBRANCH   1   2
BRANCH   1   5
ATOM      5  C   UNL     1       6.880   0.226   1.590  1.00  0.00     0.043 C 
BRANCH   5   6
ATOM      6  C   UNL     1       7.300  -0.707   0.530  1.00  0.00    -0.044 A 
ATOM      7  C   UNL     1       7.178  -0.380  -0.826  1.00  0.00     0.008 A 
ATOM      8  C   UNL     1       7.829  -1.932   0.868  1.00  0.00     0.054 A 
ATOM      9  C   UNL     1       7.589  -1.295  -1.777  1.00  0.00     0.051 A 
ATOM     10  C   UNL     1       8.245  -2.854  -0.097  1.00  0.00     0.166 A 
ATOM     11  C   UNL     1       8.123  -2.532  -1.431  1.00  0.00     0.165 A 
ATOM     12  O   UNL     1       8.793  -4.116  -0.017  1.00  0.00    -0.454 OA
ATOM     13  O   UNL     1       8.606  -3.615  -2.150  1.00  0.00    -0.454 OA
ATOM     14  C   UNL     1       9.124  -4.604  -1.292  1.00  0.00     0.468 C 
ENDBRANCH   5   6
ENDBRANCH   1   5
TORSDOF 3
ENDMDL
MODEL 4
REMARK VINA RESULT:      -7.0      1.254      1.471
REMARK SMILES CC(=O)CCc1ccc2c(c1)OCO2
REMARK SMILES IDX 4 1 2 2 1 3 3 4 5 5 6 6 7 7 11 8 8 9 10 10 9 11 12 12 14 13
REMARK SMILES IDX 13 14
REMARK H PARENT
REMARK Flexibility Score: inf
ROOT
ATOM      1  C   UNL     1       6.337   1.228   0.876  1.00  0.00     0.080 C 
ENDROOT
BRANCH   1   2
ATOM      2  C   UNL     1       5.671   0.389   1.912  1.00  0.00     0.130 C 
ATOM      3  C   UNL     1       6.325  -0.821   2.476  1.00  0.00     0.087 C 
ATOM      4  O   UNL     1       4.560   0.675   2.329  1.00  0.00    -0.300 OA
ENDBRANCH   1   2
BRANCH   1   5
ATOM      5  C   UNL     1       5.830   0.893  -0.513  1.00  0.00     0.043 C 
BRANCH   5   6
ATOM      6  C   UNL     1       6.799   0.076  -1.266  1.00  0.00    -0.044 A 
ATOM      7  C   UNL     1       7.508   0.597  -2.353  1.00  0.00     0.008 A 
ATOM      8  C   UNL     1       7.020  -1.232  -0.897  1.00  0.00     0.054 A 
ATOM      9  C   UNL     1       8.405  -0.218  -3.022  1.00  0.00     0.051 A 
ATOM     10  C   UNL     1       7.928  -2.051  -1.575  1.00  0.00     0.166 A 
ATOM     11  C   UNL     1       8.626  -1.539  -2.647  1.00  0.00     0.165 A 
ATOM     12  O   UNL     1       8.318  -3.362  -1.406  1.00  0.00    -0.454 OA
ATOM     13  O   UNL     1       9.439  -2.558  -3.118  1.00  0.00    -0.454 OA
ATOM     14  C   UNL     1       9.343  -3.703  -2.304  1.00  0.00     0.468 C 
ENDBRANCH   5   6
ENDBRANCH   1   5
TORSDOF 3
ENDMDL
MODEL 5
REMARK VINA RESULT:      -6.7      1.177      5.178
REMARK SMILES CC(=O)CCc1ccc2c(c1)OCO2
REMARK SMILES IDX 4 1 2 2 1 3 3 4 5 5 6 6 7 7 11 8 8 9 10 10 9 11 12 12 14 13
REMARK SMILES IDX 13 14
REMARK H PARENT
REMARK Flexibility Score: inf
ROOT
ATOM      1  C   UNL     1       8.357   0.212  -2.601  1.00  0.00     0.080 C 
ENDROOT
BRANCH   1   2
ATOM      2  C   UNL     1       8.053  -1.241  -2.732  1.00  0.00     0.130 C 
ATOM      3  C   UNL     1       9.115  -2.236  -3.041  1.00  0.00     0.087 C 
ATOM      4  O   UNL     1       6.916  -1.658  -2.588  1.00  0.00    -0.300 OA
ENDBRANCH   1   2
BRANCH   1   5
ATOM      5  C   UNL     1       8.869   0.544  -1.214  1.00  0.00     0.043 C 
BRANCH   5   6
ATOM      6  C   UNL     1       7.812   0.414  -0.195  1.00  0.00    -0.044 A 
ATOM      7  C   UNL     1       7.883  -0.552   0.816  1.00  0.00     0.008 A 
ATOM      8  C   UNL     1       6.725   1.258  -0.228  1.00  0.00     0.054 A 
ATOM      9  C   UNL     1       6.861  -0.627   1.745  1.00  0.00     0.051 A 
ATOM     10  C   UNL     1       5.695   1.178   0.714  1.00  0.00     0.166 A 
ATOM     11  C   UNL     1       5.764   0.228   1.708  1.00  0.00     0.165 A 
ATOM     12  O   UNL     1       4.528   1.890   0.893  1.00  0.00    -0.454 OA
ATOM     13  O   UNL     1       4.626   0.378   2.486  1.00  0.00    -0.454 OA
ATOM     14  C   UNL     1       3.860   1.479   2.058  1.00  0.00     0.468 C 
ENDBRANCH   5   6
ENDBRANCH   1   5
TORSDOF 3
ENDMDL
