@<TRIPOS>MOLECULE
/home/cewinharhar/GITHUB/reincatalyze/data/processed/docking_pred/2023-May-25-1902_sub9_nm5_bs15_s42_ex16_mel10_mts10000_k50_ec01_g099_lra3e-4_lrc3e-3/be159ddb300952c005bf82764a5ce22912cca304_ligand_9.pdbqt
 14 15 0 0 0
SMALL
GASTEIGER

@<TRIPOS>ATOM
      1  C          8.3570    0.2120   -2.6010 C.3     1  UNL1        0.0800
      2  C          8.0530   -1.2410   -2.7320 C.2     1  UNL1        0.1300
      3  C          9.1150   -2.2360   -3.0410 C.3     1  UNL1        0.0870
      4  O          6.9160   -1.6580   -2.5880 O.2     1  UNL1       -0.3000
      5  C          8.8690    0.5440   -1.2140 C.3     1  UNL1        0.0430
      6  C          7.8120    0.4140   -0.1950 C.2     1  UNL1       -0.0440
      7  C          7.8830   -0.5520    0.8160 C.2     1  UNL1        0.0080
      8  C          6.7250    1.2580   -0.2280 C.2     1  UNL1        0.0540
      9  C          6.8610   -0.6270    1.7450 C.2     1  UNL1        0.0510
     10  C          5.6950    1.1780    0.7140 C.2     1  UNL1        0.1660
     11  C          5.7640    0.2280    1.7080 C.2     1  UNL1        0.1650
     12  O          4.5280    1.8900    0.8930 O.2     1  UNL1       -0.4540
     13  O          4.6260    0.3780    2.4860 O.2     1  UNL1       -0.4540
     14  C          3.8600    1.4790    2.0580 C.3     1  UNL1        0.4680
@<TRIPOS>BOND
     1     3     2    1
     2     2     1    1
     3     2     4    2
     4     1     5    1
     5     5     6    1
     6     8     6    2
     7     8    10    1
     8     6     7    1
     9    10    12    1
    10    10    11    2
    11     7     9    2
    12    12    14    1
    13    11     9    1
    14    11    13    1
    15    14    13    1
