@<TRIPOS>MOLECULE
/home/cewinharhar/GITHUB/reincatalyze/data/processed/docking_pred/2023-May-25-1902_sub9_nm5_bs15_s42_ex16_mel10_mts10000_k50_ec01_g099_lra3e-4_lrc3e-3/be159ddb300952c005bf82764a5ce22912cca304_ligand_9.pdbqt
 14 15 0 0 0
SMALL
GASTEIGER

@<TRIPOS>ATOM
      1  C          5.4540   -0.0340    2.0350 C.3     1  UNL1        0.0800
      2  C          4.5820    1.1440    1.7710 C.2     1  UNL1        0.1300
      3  C          4.9030    2.1290    0.7030 C.3     1  UNL1        0.0870
      4  O          3.5720    1.3360    2.4280 O.2     1  UNL1       -0.3000
      5  C          6.8800    0.2260    1.5900 C.3     1  UNL1        0.0430
      6  C          7.3000   -0.7070    0.5300 C.2     1  UNL1       -0.0440
      7  C          7.1780   -0.3800   -0.8260 C.2     1  UNL1        0.0080
      8  C          7.8290   -1.9320    0.8680 C.2     1  UNL1        0.0540
      9  C          7.5890   -1.2950   -1.7770 C.2     1  UNL1        0.0510
     10  C          8.2450   -2.8540   -0.0970 C.2     1  UNL1        0.1660
     11  C          8.1230   -2.5320   -1.4310 C.2     1  UNL1        0.1650
     12  O          8.7930   -4.1160   -0.0170 O.2     1  UNL1       -0.4540
     13  O          8.6060   -3.6150   -2.1500 O.2     1  UNL1       -0.4540
     14  C          9.1240   -4.6040   -1.2920 C.3     1  UNL1        0.4680
@<TRIPOS>BOND
     1    13    11    1
     2    13    14    1
     3     9    11    2
     4     9     7    1
     5    11    10    1
     6    14    12    1
     7     7     6    2
     8    10    12    1
     9    10     8    2
    10     6     8    1
    11     6     5    1
    12     3     2    1
    13     5     1    1
    14     2     1    1
    15     2     4    2
