MODEL 1
REMARK VINA RESULT:      -7.7      0.000      0.000
REMARK SMILES CC(=O)CCc1ccc2c(c1)OCO2
REMARK SMILES IDX 4 1 2 2 1 3 3 4 5 5 6 6 7 7 11 8 8 9 10 10 9 11 12 12 14 13
REMARK SMILES IDX 13 14
REMARK H PARENT
REMARK Flexibility Score: inf
ROOT
ATOM      1  C   UNL     1       5.538   1.890   1.288  1.00  0.00     0.080 C 
ENDROOT
BRANCH   1   2
ATOM      2  C   UNL     1       5.106   0.671   2.027  1.00  0.00     0.130 C 
ATOM      3  C   UNL     1       6.004  -0.504   2.186  1.00  0.00     0.087 C 
ATOM      4  O   UNL     1       3.995   0.602   2.527  1.00  0.00    -0.300 OA
ENDBRANCH   1   2
BRANCH   1   5
ATOM      5  C   UNL     1       5.401   1.703  -0.210  1.00  0.00     0.043 C 
BRANCH   5   6
ATOM      6  C   UNL     1       6.568   1.010  -0.783  1.00  0.00    -0.044 A 
ATOM      7  C   UNL     1       7.873   1.459  -0.553  1.00  0.00     0.008 A 
ATOM      8  C   UNL     1       6.382  -0.109  -1.564  1.00  0.00     0.054 A 
ATOM      9  C   UNL     1       8.931   0.768  -1.116  1.00  0.00     0.051 A 
ATOM     10  C   UNL     1       7.454  -0.805  -2.130  1.00  0.00     0.166 A 
ATOM     11  C   UNL     1       8.739  -0.362  -1.905  1.00  0.00     0.165 A 
ATOM     12  O   UNL     1       7.530  -1.925  -2.931  1.00  0.00    -0.454 OA
ATOM     13  O   UNL     1       9.585  -1.230  -2.578  1.00  0.00    -0.454 OA
ATOM     14  C   UNL     1       8.866  -2.287  -3.166  1.00  0.00     0.468 C 
ENDBRANCH   5   6
ENDBRANCH   1   5
TORSDOF 3
ENDMDL
MODEL 2
REMARK VINA RESULT:      -7.5      1.926      2.395
REMARK SMILES CC(=O)CCc1ccc2c(c1)OCO2
REMARK SMILES IDX 4 1 2 2 1 3 3 4 5 5 6 6 7 7 11 8 8 9 10 10 9 11 12 12 14 13
REMARK SMILES IDX 13 14
REMARK H PARENT
REMARK Flexibility Score: inf
ROOT
ATOM      1  C   UNL     1       5.747   1.374  -0.313  1.00  0.00     0.080 C 
ENDROOT
BRANCH   1   2
ATOM      2  C   UNL     1       5.094   1.295   1.023  1.00  0.00     0.130 C 
ATOM      3  C   UNL     1       5.376   0.179   1.965  1.00  0.00     0.087 C 
ATOM      4  O   UNL     1       4.302   2.150   1.385  1.00  0.00    -0.300 OA
ENDBRANCH   1   2
BRANCH   1   5
ATOM      5  C   UNL     1       7.235   1.104  -0.216  1.00  0.00     0.043 C 
BRANCH   5   6
ATOM      6  C   UNL     1       7.598  -0.188  -0.826  1.00  0.00    -0.044 A 
ATOM      7  C   UNL     1       7.633  -0.357  -2.215  1.00  0.00     0.008 A 
ATOM      8  C   UNL     1       7.913  -1.258  -0.021  1.00  0.00     0.054 A 
ATOM      9  C   UNL     1       7.982  -1.592  -2.731  1.00  0.00     0.051 A 
ATOM     10  C   UNL     1       8.266  -2.504  -0.548  1.00  0.00     0.166 A 
ATOM     11  C   UNL     1       8.300  -2.673  -1.914  1.00  0.00     0.165 A 
ATOM     12  O   UNL     1       8.615  -3.705   0.032  1.00  0.00    -0.454 OA
ATOM     13  O   UNL     1       8.674  -3.987  -2.147  1.00  0.00    -0.454 OA
ATOM     14  C   UNL     1       8.972  -4.651  -0.943  1.00  0.00     0.468 C 
ENDBRANCH   5   6
ENDBRANCH   1   5
TORSDOF 3
ENDMDL
MODEL 3
REMARK VINA RESULT:      -7.2      2.038      2.605
REMARK SMILES CC(=O)CCc1ccc2c(c1)OCO2
REMARK SMILES IDX 4 1 2 2 1 3 3 4 5 5 6 6 7 7 11 8 8 9 10 10 9 11 12 12 14 13
REMARK SMILES IDX 13 14
REMARK H PARENT
REMARK Flexibility Score: inf
ROOT
ATOM      1  C   UNL     1       5.446  -0.034   2.043  1.00  0.00     0.080 C 
ENDROOT
BRANCH   1   2
ATOM      2  C   UNL     1       4.569   1.140   1.774  1.00  0.00     0.130 C 
ATOM      3  C   UNL     1       4.890   2.126   0.708  1.00  0.00     0.087 C 
ATOM      4  O   UNL     1       3.554   1.326   2.425  1.00  0.00    -0.300 OA
ENDBRANCH   1   2
BRANCH   1   5
ATOM      5  C   UNL     1       6.871   0.230   1.597  1.00  0.00     0.043 C 
BRANCH   5   6
ATOM      6  C   UNL     1       7.291  -0.701   0.534  1.00  0.00    -0.044 A 
ATOM      7  C   UNL     1       7.169  -0.369  -0.820  1.00  0.00     0.008 A 
ATOM      8  C   UNL     1       7.820  -1.926   0.870  1.00  0.00     0.054 A 
ATOM      9  C   UNL     1       7.582  -1.282  -1.774  1.00  0.00     0.051 A 
ATOM     10  C   UNL     1       8.235  -2.845  -0.098  1.00  0.00     0.166 A 
ATOM     11  C   UNL     1       8.115  -2.521  -1.431  1.00  0.00     0.165 A 
ATOM     12  O   UNL     1       8.783  -4.108  -0.021  1.00  0.00    -0.454 OA
ATOM     13  O   UNL     1       8.598  -3.602  -2.152  1.00  0.00    -0.454 OA
ATOM     14  C   UNL     1       9.115  -4.593  -1.296  1.00  0.00     0.468 C 
ENDBRANCH   5   6
ENDBRANCH   1   5
TORSDOF 3
ENDMDL
MODEL 4
REMARK VINA RESULT:      -7.1      1.239      1.442
REMARK SMILES CC(=O)CCc1ccc2c(c1)OCO2
REMARK SMILES IDX 4 1 2 2 1 3 3 4 5 5 6 6 7 7 11 8 8 9 10 10 9 11 12 12 14 13
REMARK SMILES IDX 13 14
REMARK H PARENT
REMARK Flexibility Score: inf
ROOT
ATOM      1  C   UNL     1       6.373   1.187   0.940  1.00  0.00     0.080 C 
ENDROOT
BRANCH   1   2
ATOM      2  C   UNL     1       5.665   0.358   1.954  1.00  0.00     0.130 C 
ATOM      3  C   UNL     1       6.282  -0.866   2.531  1.00  0.00     0.087 C 
ATOM      4  O   UNL     1       4.549   0.662   2.345  1.00  0.00    -0.300 OA
ENDBRANCH   1   2
BRANCH   1   5
ATOM      5  C   UNL     1       5.859   0.904  -0.458  1.00  0.00     0.043 C 
BRANCH   5   6
ATOM      6  C   UNL     1       6.811   0.091  -1.236  1.00  0.00    -0.044 A 
ATOM      7  C   UNL     1       7.503   0.621  -2.332  1.00  0.00     0.008 A 
ATOM      8  C   UNL     1       7.036  -1.220  -0.884  1.00  0.00     0.054 A 
ATOM      9  C   UNL     1       8.385  -0.189  -3.023  1.00  0.00     0.051 A 
ATOM     10  C   UNL     1       7.929  -2.035  -1.586  1.00  0.00     0.166 A 
ATOM     11  C   UNL     1       8.609  -1.515  -2.665  1.00  0.00     0.165 A 
ATOM     12  O   UNL     1       8.319  -3.348  -1.437  1.00  0.00    -0.454 OA
ATOM     13  O   UNL     1       9.412  -2.530  -3.160  1.00  0.00    -0.454 OA
ATOM     14  C   UNL     1       9.327  -3.683  -2.356  1.00  0.00     0.468 C 
ENDBRANCH   5   6
ENDBRANCH   1   5
TORSDOF 3
ENDMDL
MODEL 5
REMARK VINA RESULT:      -6.8      1.198      5.172
REMARK SMILES CC(=O)CCc1ccc2c(c1)OCO2
REMARK SMILES IDX 4 1 2 2 1 3 3 4 5 5 6 6 7 7 11 8 8 9 10 10 9 11 12 12 14 13
REMARK SMILES IDX 13 14
REMARK H PARENT
REMARK Flexibility Score: inf
ROOT
ATOM      1  C   UNL     1       8.324   0.162  -2.713  1.00  0.00     0.080 C 
ENDROOT
BRANCH   1   2
ATOM      2  C   UNL     1       8.067  -1.303  -2.801  1.00  0.00     0.130 C 
ATOM      3  C   UNL     1       9.171  -2.278  -3.007  1.00  0.00     0.087 C 
ATOM      4  O   UNL     1       6.935  -1.747  -2.707  1.00  0.00    -0.300 OA
ENDBRANCH   1   2
BRANCH   1   5
ATOM      5  C   UNL     1       8.866   0.545  -1.350  1.00  0.00     0.043 C 
BRANCH   5   6
ATOM      6  C   UNL     1       7.843   0.410  -0.298  1.00  0.00    -0.044 A 
ATOM      7  C   UNL     1       7.961  -0.541   0.722  1.00  0.00     0.008 A 
ATOM      8  C   UNL     1       6.742   1.236  -0.307  1.00  0.00     0.054 A 
ATOM      9  C   UNL     1       6.969  -0.621   1.683  1.00  0.00     0.051 A 
ATOM     10  C   UNL     1       5.743   1.152   0.667  1.00  0.00     0.166 A 
ATOM     11  C   UNL     1       5.857   0.215   1.670  1.00  0.00     0.165 A 
ATOM     12  O   UNL     1       4.570   1.847   0.873  1.00  0.00    -0.454 OA
ATOM     13  O   UNL     1       4.742   0.357   2.481  1.00  0.00    -0.454 OA
ATOM     14  C   UNL     1       3.945   1.440   2.064  1.00  0.00     0.468 C 
ENDBRANCH   5   6
ENDBRANCH   1   5
TORSDOF 3
ENDMDL
