@<TRIPOS>MOLECULE
/home/cewinharhar/GITHUB/reincatalyze/data/processed/docking_pred/2023-May-25-1902_sub9_nm5_bs15_s42_ex16_mel10_mts10000_k50_ec01_g099_lra3e-4_lrc3e-3/bef029ec7f2d3d0301694813bb63cef4e6663bb8_ligand_9.pdbqt
 14 15 0 0 0
SMALL
GASTEIGER

@<TRIPOS>ATOM
      1  C          8.3240    0.1620   -2.7130 C.3     1  UNL1        0.0800
      2  C          8.0670   -1.3030   -2.8010 C.2     1  UNL1        0.1300
      3  C          9.1710   -2.2780   -3.0070 C.3     1  UNL1        0.0870
      4  O          6.9350   -1.7470   -2.7070 O.2     1  UNL1       -0.3000
      5  C          8.8660    0.5450   -1.3500 C.3     1  UNL1        0.0430
      6  C          7.8430    0.4100   -0.2980 C.2     1  UNL1       -0.0440
      7  C          7.9610   -0.5410    0.7220 C.2     1  UNL1        0.0080
      8  C          6.7420    1.2360   -0.3070 C.2     1  UNL1        0.0540
      9  C          6.9690   -0.6210    1.6830 C.2     1  UNL1        0.0510
     10  C          5.7430    1.1520    0.6670 C.2     1  UNL1        0.1660
     11  C          5.8570    0.2150    1.6700 C.2     1  UNL1        0.1650
     12  O          4.5700    1.8470    0.8730 O.2     1  UNL1       -0.4540
     13  O          4.7420    0.3570    2.4810 O.2     1  UNL1       -0.4540
     14  C          3.9450    1.4400    2.0640 C.3     1  UNL1        0.4680
@<TRIPOS>BOND
     1     3     2    1
     2     2     1    1
     3     2     4    2
     4     1     5    1
     5     5     6    1
     6     8     6    2
     7     8    10    1
     8     6     7    1
     9    10    12    1
    10    10    11    2
    11     7     9    2
    12    12    14    1
    13    11     9    1
    14    11    13    1
    15    14    13    1
