@<TRIPOS>MOLECULE
/home/cewinharhar/GITHUB/reincatalyze/data/processed/docking_pred/2023-May-25-1902_sub9_nm5_bs15_s42_ex16_mel10_mts10000_k50_ec01_g099_lra3e-4_lrc3e-3/bef029ec7f2d3d0301694813bb63cef4e6663bb8_ligand_9.pdbqt
 14 15 0 0 0
SMALL
GASTEIGER

@<TRIPOS>ATOM
      1  C          6.3730    1.1870    0.9400 C.3     1  UNL1        0.0800
      2  C          5.6650    0.3580    1.9540 C.2     1  UNL1        0.1300
      3  C          6.2820   -0.8660    2.5310 C.3     1  UNL1        0.0870
      4  O          4.5490    0.6620    2.3450 O.2     1  UNL1       -0.3000
      5  C          5.8590    0.9040   -0.4580 C.3     1  UNL1        0.0430
      6  C          6.8110    0.0910   -1.2360 C.2     1  UNL1       -0.0440
      7  C          7.5030    0.6210   -2.3320 C.2     1  UNL1        0.0080
      8  C          7.0360   -1.2200   -0.8840 C.2     1  UNL1        0.0540
      9  C          8.3850   -0.1890   -3.0230 C.2     1  UNL1        0.0510
     10  C          7.9290   -2.0350   -1.5860 C.2     1  UNL1        0.1660
     11  C          8.6090   -1.5150   -2.6650 C.2     1  UNL1        0.1650
     12  O          8.3190   -3.3480   -1.4370 O.2     1  UNL1       -0.4540
     13  O          9.4120   -2.5300   -3.1600 O.2     1  UNL1       -0.4540
     14  C          9.3270   -3.6830   -2.3560 C.3     1  UNL1        0.4680
@<TRIPOS>BOND
     1    13    11    1
     2    13    14    1
     3     9    11    2
     4     9     7    1
     5    11    10    1
     6    14    12    1
     7     7     6    2
     8    10    12    1
     9    10     8    2
    10     6     8    1
    11     6     5    1
    12     5     1    1
    13     1     2    1
    14     2     4    2
    15     2     3    1
