@<TRIPOS>MOLECULE
/home/cewinharhar/GITHUB/reincatalyze/data/processed/docking_pred/2023-May-25-1902_sub9_nm5_bs15_s42_ex16_mel10_mts10000_k50_ec01_g099_lra3e-4_lrc3e-3/bfaa3bc067c86e8b5ef89a85d12e30cfe25fe09e_ligand_9.pdbqt
 14 15 0 0 0
SMALL
GASTEIGER

@<TRIPOS>ATOM
      1  C          5.3990   -0.0750    2.0110 C.3     1  UNL1        0.0800
      2  C          4.5690    1.1390    1.7710 C.2     1  UNL1        0.1300
      3  C          4.9090    2.1190    0.7050 C.3     1  UNL1        0.0870
      4  O          3.5790    1.3650    2.4480 O.2     1  UNL1       -0.3000
      5  C          6.8430    0.1590    1.6140 C.3     1  UNL1        0.0430
      6  C          7.2700   -0.7570    0.5420 C.2     1  UNL1       -0.0440
      7  C          7.1320   -0.4190   -0.8090 C.2     1  UNL1        0.0080
      8  C          7.8210   -1.9760    0.8640 C.2     1  UNL1        0.0540
      9  C          7.5510   -1.3180   -1.7730 C.2     1  UNL1        0.0510
     10  C          8.2440   -2.8820   -0.1130 C.2     1  UNL1        0.1660
     11  C          8.1070   -2.5500   -1.4430 C.2     1  UNL1        0.1650
     12  O          8.8140   -4.1360   -0.0490 O.2     1  UNL1       -0.4540
     13  O          8.6020   -3.6180   -2.1750 O.2     1  UNL1       -0.4540
     14  C          9.1430   -4.6060   -1.3310 C.3     1  UNL1        0.4680
@<TRIPOS>BOND
     1    13    11    1
     2    13    14    1
     3     9    11    2
     4     9     7    1
     5    11    10    1
     6    14    12    1
     7     7     6    2
     8    10    12    1
     9    10     8    2
    10     6     8    1
    11     6     5    1
    12     3     2    1
    13     5     1    1
    14     2     1    1
    15     2     4    2
