@<TRIPOS>MOLECULE
/home/cewinharhar/GITHUB/reincatalyze/data/processed/docking_pred/2023-May-25-1902_sub9_nm5_bs15_s42_ex16_mel10_mts10000_k50_ec01_g099_lra3e-4_lrc3e-3/bfaa3bc067c86e8b5ef89a85d12e30cfe25fe09e_ligand_9.pdbqt
 14 15 0 0 0
SMALL
GASTEIGER

@<TRIPOS>ATOM
      1  C          6.9090    0.7510    1.1660 C.3     1  UNL1        0.0800
      2  C          5.4940    1.1510    1.4030 C.2     1  UNL1        0.1300
      3  C          4.8100    2.1500    0.5390 C.3     1  UNL1        0.0870
      4  O          4.8510    0.6670    2.3200 O.2     1  UNL1       -0.3000
      5  C          7.2870    0.9040   -0.2940 C.3     1  UNL1        0.0430
      6  C          7.6810   -0.3830   -0.8940 C.2     1  UNL1       -0.0440
      7  C          7.7770   -0.5470   -2.2810 C.2     1  UNL1        0.0080
      8  C          7.9670   -1.4560   -0.0800 C.2     1  UNL1        0.0540
      9  C          8.1520   -1.7780   -2.7870 C.2     1  UNL1        0.0510
     10  C          8.3470   -2.6980   -0.5970 C.2     1  UNL1        0.1660
     11  C          8.4400   -2.8610   -1.9610 C.2     1  UNL1        0.1650
     12  O          8.6770   -3.9000   -0.0070 O.2     1  UNL1       -0.4540
     13  O          8.8300   -4.1720   -2.1830 O.2     1  UNL1       -0.4540
     14  C          9.0800   -4.8400   -0.9700 C.3     1  UNL1        0.4680
@<TRIPOS>BOND
     1     9     7    1
     2     9    11    2
     3     7     6    2
     4    13    11    1
     5    13    14    1
     6    11    10    1
     7    14    12    1
     8     6     5    1
     9     6     8    1
    10    10     8    2
    11    10    12    1
    12     5     1    1
    13     3     2    1
    14     1     2    1
    15     2     4    2
