@<TRIPOS>MOLECULE
/home/cewinharhar/GITHUB/reincatalyze/data/processed/docking_pred/2023-May-25-1902_sub9_nm5_bs15_s42_ex16_mel10_mts10000_k50_ec01_g099_lra3e-4_lrc3e-3/c00c8b20774af87dd702fd508d588995eeb45aaa_ligand_9.pdbqt
 14 15 0 0 0
SMALL
GASTEIGER

@<TRIPOS>ATOM
      1  C          5.2950   -0.0830    1.9500 C.3     1  UNL1        0.0800
      2  C          4.4280    1.1170    1.7820 C.2     1  UNL1        0.1300
      3  C          4.7170    2.1500    0.7510 C.3     1  UNL1        0.0870
      4  O          3.4490    1.2870    2.4900 O.2     1  UNL1       -0.3000
      5  C          6.7640    0.2890    1.9040 C.3     1  UNL1        0.0430
      6  C          7.3750   -0.0580    0.6080 C.2     1  UNL1       -0.0440
      7  C          7.8660    0.9260   -0.2580 C.2     1  UNL1        0.0080
      8  C          7.4720   -1.3780    0.2310 C.2     1  UNL1        0.0540
      9  C          8.4290    0.5410   -1.4610 C.2     1  UNL1        0.0510
     10  C          8.0430   -1.7620   -0.9860 C.2     1  UNL1        0.1660
     11  C          8.5250   -0.7950   -1.8390 C.2     1  UNL1        0.1650
     12  O          8.2520   -2.9890   -1.5800 O.2     1  UNL1       -0.4540
     13  O          9.0260   -1.4540   -2.9500 O.2     1  UNL1       -0.4540
     14  C          8.9560   -2.8500   -2.7880 C.3     1  UNL1        0.4680
@<TRIPOS>BOND
     1    13    14    1
     2    13    11    1
     3    14    12    1
     4    11     9    2
     5    11    10    1
     6    12    10    1
     7     9     7    1
     8    10     8    2
     9     7     6    2
    10     8     6    1
    11     6     5    1
    12     3     2    1
    13     2     1    1
    14     2     4    2
    15     5     1    1
