@<TRIPOS>MOLECULE
/home/cewinharhar/GITHUB/reincatalyze/data/processed/docking_pred/2023-May-25-1902_sub9_nm5_bs15_s42_ex16_mel10_mts10000_k50_ec01_g099_lra3e-4_lrc3e-3/c054a7f490e8e5c171bc57af56a9ae5cb4d717f8_ligand_9.pdbqt
 14 15 0 0 0
SMALL
GASTEIGER

@<TRIPOS>ATOM
      1  C          6.4430    1.1550    0.9400 C.3     1  UNL1        0.0800
      2  C          5.6980    0.3380    1.9370 C.2     1  UNL1        0.1300
      3  C          6.2860   -0.8890    2.5370 C.3     1  UNL1        0.0870
      4  O          4.5740    0.6550    2.2920 O.2     1  UNL1       -0.3000
      5  C          5.9370    0.9030   -0.4670 C.3     1  UNL1        0.0430
      6  C          6.8670    0.0600   -1.2390 C.2     1  UNL1       -0.0440
      7  C          7.5420    0.5510   -2.3620 C.2     1  UNL1        0.0080
      8  C          7.0860   -1.2430   -0.8540 C.2     1  UNL1        0.0540
      9  C          8.4030   -0.2860   -3.0470 C.2     1  UNL1        0.0510
     10  C          7.9580   -2.0860   -1.5500 C.2     1  UNL1        0.1660
     11  C          8.6220   -1.6040   -2.6560 C.2     1  UNL1        0.1650
     12  O          8.3380   -3.3990   -1.3710 O.2     1  UNL1       -0.4540
     13  O          9.4050   -2.6410   -3.1370 O.2     1  UNL1       -0.4540
     14  C          9.3250   -3.7690   -2.3000 C.3     1  UNL1        0.4680
@<TRIPOS>BOND
     1    13    11    1
     2    13    14    1
     3     9    11    2
     4     9     7    1
     5    11    10    1
     6     7     6    2
     7    14    12    1
     8    10    12    1
     9    10     8    2
    10     6     8    1
    11     6     5    1
    12     5     1    1
    13     1     2    1
    14     2     4    2
    15     2     3    1
