@<TRIPOS>MOLECULE
/home/cewinharhar/GITHUB/reincatalyze/data/processed/docking_pred/2023-May-25-1902_sub9_nm5_bs15_s42_ex16_mel10_mts10000_k50_ec01_g099_lra3e-4_lrc3e-3/c054a7f490e8e5c171bc57af56a9ae5cb4d717f8_ligand_9.pdbqt
 14 15 0 0 0
SMALL
GASTEIGER

@<TRIPOS>ATOM
      1  C          5.5430    1.4070   -0.2260 C.3     1  UNL1        0.0800
      2  C          5.0440    1.2260    1.1660 C.2     1  UNL1        0.1300
      3  C          5.4570    0.0650    1.9980 C.3     1  UNL1        0.0870
      4  O          4.2760    2.0310    1.6660 O.2     1  UNL1       -0.3000
      5  C          7.0570    1.3490   -0.2800 C.3     1  UNL1        0.0430
      6  C          7.5330    0.1390   -0.9740 C.2     1  UNL1       -0.0440
      7  C          7.7830    0.1340   -2.3510 C.2     1  UNL1        0.0080
      8  C          7.7430   -1.0190   -0.2600 C.2     1  UNL1        0.0540
      9  C          8.2290   -1.0310   -2.9480 C.2     1  UNL1        0.0510
     10  C          8.1950   -2.1940   -0.8680 C.2     1  UNL1        0.1660
     11  C          8.4400   -2.2000   -2.2230 C.2     1  UNL1        0.1650
     12  O          8.4750   -3.4540   -0.3850 O.2     1  UNL1       -0.4540
     13  O          8.8710   -3.4770   -2.5470 O.2     1  UNL1       -0.4540
     14  C          8.9940   -4.2780   -1.3970 C.3     1  UNL1        0.4680
@<TRIPOS>BOND
     1     9     7    1
     2     9    11    2
     3    13    11    1
     4    13    14    1
     5     7     6    2
     6    11    10    1
     7    14    12    1
     8     6     5    1
     9     6     8    1
    10    10    12    1
    11    10     8    2
    12     5     1    1
    13     1     2    1
    14     2     4    2
    15     2     3    1
