MODEL 1
REMARK VINA RESULT:      -7.7      0.000      0.000
REMARK SMILES CC(=O)CCc1ccc2c(c1)OCO2
REMARK SMILES IDX 4 1 2 2 1 3 3 4 5 5 6 6 7 7 11 8 8 9 10 10 9 11 12 12 14 13
REMARK SMILES IDX 13 14
REMARK H PARENT
REMARK Flexibility Score: inf
ROOT
ATOM      1  C   UNL     1       5.518   1.947   1.259  1.00  0.00     0.080 C 
ENDROOT
BRANCH   1   2
ATOM      2  C   UNL     1       5.103   0.725   2.004  1.00  0.00     0.130 C 
ATOM      3  C   UNL     1       6.022  -0.430   2.182  1.00  0.00     0.087 C 
ATOM      4  O   UNL     1       3.987   0.637   2.491  1.00  0.00    -0.300 OA
ENDBRANCH   1   2
BRANCH   1   5
ATOM      5  C   UNL     1       5.393   1.748  -0.238  1.00  0.00     0.043 C 
BRANCH   5   6
ATOM      6  C   UNL     1       6.560   1.042  -0.795  1.00  0.00    -0.044 A 
ATOM      7  C   UNL     1       7.868   1.467  -0.533  1.00  0.00     0.008 A 
ATOM      8  C   UNL     1       6.372  -0.065  -1.591  1.00  0.00     0.054 A 
ATOM      9  C   UNL     1       8.925   0.764  -1.082  1.00  0.00     0.051 A 
ATOM     10  C   UNL     1       7.444  -0.773  -2.144  1.00  0.00     0.166 A 
ATOM     11  C   UNL     1       8.731  -0.354  -1.887  1.00  0.00     0.165 A 
ATOM     12  O   UNL     1       7.517  -1.885  -2.955  1.00  0.00    -0.454 OA
ATOM     13  O   UNL     1       9.576  -1.229  -2.552  1.00  0.00    -0.454 OA
ATOM     14  C   UNL     1       8.852  -2.267  -3.167  1.00  0.00     0.468 C 
ENDBRANCH   5   6
ENDBRANCH   1   5
TORSDOF 3
ENDMDL
MODEL 2
REMARK VINA RESULT:      -7.1      1.288      1.529
REMARK SMILES CC(=O)CCc1ccc2c(c1)OCO2
REMARK SMILES IDX 4 1 2 2 1 3 3 4 5 5 6 6 7 7 11 8 8 9 10 10 9 11 12 12 14 13
REMARK SMILES IDX 13 14
REMARK H PARENT
REMARK Flexibility Score: inf
ROOT
ATOM      1  C   UNL     1       6.443   1.155   0.940  1.00  0.00     0.080 C 
ENDROOT
BRANCH   1   2
ATOM      2  C   UNL     1       5.698   0.338   1.937  1.00  0.00     0.130 C 
ATOM      3  C   UNL     1       6.286  -0.889   2.537  1.00  0.00     0.087 C 
ATOM      4  O   UNL     1       4.574   0.655   2.292  1.00  0.00    -0.300 OA
ENDBRANCH   1   2
BRANCH   1   5
ATOM      5  C   UNL     1       5.937   0.903  -0.467  1.00  0.00     0.043 C 
BRANCH   5   6
ATOM      6  C   UNL     1       6.867   0.060  -1.239  1.00  0.00    -0.044 A 
ATOM      7  C   UNL     1       7.542   0.551  -2.362  1.00  0.00     0.008 A 
ATOM      8  C   UNL     1       7.086  -1.243  -0.854  1.00  0.00     0.054 A 
ATOM      9  C   UNL     1       8.403  -0.286  -3.047  1.00  0.00     0.051 A 
ATOM     10  C   UNL     1       7.958  -2.086  -1.550  1.00  0.00     0.166 A 
ATOM     11  C   UNL     1       8.622  -1.604  -2.656  1.00  0.00     0.165 A 
ATOM     12  O   UNL     1       8.338  -3.399  -1.371  1.00  0.00    -0.454 OA
ATOM     13  O   UNL     1       9.405  -2.641  -3.137  1.00  0.00    -0.454 OA
ATOM     14  C   UNL     1       9.325  -3.769  -2.300  1.00  0.00     0.468 C 
ENDBRANCH   5   6
ENDBRANCH   1   5
TORSDOF 3
ENDMDL
MODEL 3
REMARK VINA RESULT:      -7.1      1.680      2.050
REMARK SMILES CC(=O)CCc1ccc2c(c1)OCO2
REMARK SMILES IDX 4 1 2 2 1 3 3 4 5 5 6 6 7 7 11 8 8 9 10 10 9 11 12 12 14 13
REMARK SMILES IDX 13 14
REMARK H PARENT
REMARK Flexibility Score: inf
ROOT
ATOM      1  C   UNL     1       5.543   1.407  -0.226  1.00  0.00     0.080 C 
ENDROOT
BRANCH   1   2
ATOM      2  C   UNL     1       5.044   1.226   1.166  1.00  0.00     0.130 C 
ATOM      3  C   UNL     1       5.457   0.065   1.998  1.00  0.00     0.087 C 
ATOM      4  O   UNL     1       4.276   2.031   1.666  1.00  0.00    -0.300 OA
ENDBRANCH   1   2
BRANCH   1   5
ATOM      5  C   UNL     1       7.057   1.349  -0.280  1.00  0.00     0.043 C 
BRANCH   5   6
ATOM      6  C   UNL     1       7.533   0.139  -0.974  1.00  0.00    -0.044 A 
ATOM      7  C   UNL     1       7.783   0.134  -2.351  1.00  0.00     0.008 A 
ATOM      8  C   UNL     1       7.743  -1.019  -0.260  1.00  0.00     0.054 A 
ATOM      9  C   UNL     1       8.229  -1.031  -2.948  1.00  0.00     0.051 A 
ATOM     10  C   UNL     1       8.195  -2.194  -0.868  1.00  0.00     0.166 A 
ATOM     11  C   UNL     1       8.440  -2.200  -2.223  1.00  0.00     0.165 A 
ATOM     12  O   UNL     1       8.475  -3.454  -0.385  1.00  0.00    -0.454 OA
ATOM     13  O   UNL     1       8.871  -3.477  -2.547  1.00  0.00    -0.454 OA
ATOM     14  C   UNL     1       8.994  -4.278  -1.397  1.00  0.00     0.468 C 
ENDBRANCH   5   6
ENDBRANCH   1   5
TORSDOF 3
ENDMDL
MODEL 4
REMARK VINA RESULT:      -7.0      1.774      2.367
REMARK SMILES CC(=O)CCc1ccc2c(c1)OCO2
REMARK SMILES IDX 4 1 2 2 1 3 3 4 5 5 6 6 7 7 11 8 8 9 10 10 9 11 12 12 14 13
REMARK SMILES IDX 13 14
REMARK H PARENT
REMARK Flexibility Score: inf
ROOT
ATOM      1  C   UNL     1       5.334  -0.029   2.004  1.00  0.00     0.080 C 
ENDROOT
BRANCH   1   2
ATOM      2  C   UNL     1       4.443   1.148   1.804  1.00  0.00     0.130 C 
ATOM      3  C   UNL     1       4.699   2.147   0.732  1.00  0.00     0.087 C 
ATOM      4  O   UNL     1       3.472   1.328   2.521  1.00  0.00    -0.300 OA
ENDBRANCH   1   2
BRANCH   1   5
ATOM      5  C   UNL     1       6.752   0.272   1.563  1.00  0.00     0.043 C 
BRANCH   5   6
ATOM      6  C   UNL     1       7.144  -0.538   0.396  1.00  0.00    -0.044 A 
ATOM      7  C   UNL     1       6.924  -0.094  -0.913  1.00  0.00     0.008 A 
ATOM      8  C   UNL     1       7.746  -1.762   0.586  1.00  0.00     0.054 A 
ATOM      9  C   UNL     1       7.314  -0.897  -1.969  1.00  0.00     0.051 A 
ATOM     10  C   UNL     1       8.139  -2.570  -0.486  1.00  0.00     0.166 A 
ATOM     11  C   UNL     1       7.921  -2.134  -1.774  1.00  0.00     0.165 A 
ATOM     12  O   UNL     1       8.745  -3.806  -0.557  1.00  0.00    -0.454 OA
ATOM     13  O   UNL     1       8.403  -3.121  -2.618  1.00  0.00    -0.454 OA
ATOM     14  C   UNL     1       9.016  -4.158  -1.890  1.00  0.00     0.468 C 
ENDBRANCH   5   6
ENDBRANCH   1   5
TORSDOF 3
ENDMDL
MODEL 5
REMARK VINA RESULT:      -6.8      1.185      5.169
REMARK SMILES CC(=O)CCc1ccc2c(c1)OCO2
REMARK SMILES IDX 4 1 2 2 1 3 3 4 5 5 6 6 7 7 11 8 8 9 10 10 9 11 12 12 14 13
REMARK SMILES IDX 13 14
REMARK H PARENT
REMARK Flexibility Score: inf
ROOT
ATOM      1  C   UNL     1       8.362   0.194  -2.629  1.00  0.00     0.080 C 
ENDROOT
BRANCH   1   2
ATOM      2  C   UNL     1       8.056  -1.259  -2.745  1.00  0.00     0.130 C 
ATOM      3  C   UNL     1       9.119  -2.261  -3.022  1.00  0.00     0.087 C 
ATOM      4  O   UNL     1       6.914  -1.671  -2.615  1.00  0.00    -0.300 OA
ENDBRANCH   1   2
BRANCH   1   5
ATOM      5  C   UNL     1       8.879   0.539  -1.247  1.00  0.00     0.043 C 
BRANCH   5   6
ATOM      6  C   UNL     1       7.831   0.400  -0.220  1.00  0.00    -0.044 A 
ATOM      7  C   UNL     1       7.913  -0.571   0.784  1.00  0.00     0.008 A 
ATOM      8  C   UNL     1       6.742   1.242  -0.239  1.00  0.00     0.054 A 
ATOM      9  C   UNL     1       6.899  -0.654   1.721  1.00  0.00     0.051 A 
ATOM     10  C   UNL     1       5.720   1.154   0.711  1.00  0.00     0.166 A 
ATOM     11  C   UNL     1       5.799   0.198   1.699  1.00  0.00     0.165 A 
ATOM     12  O   UNL     1       4.553   1.862   0.904  1.00  0.00    -0.454 OA
ATOM     13  O   UNL     1       4.668   0.340   2.487  1.00  0.00    -0.454 OA
ATOM     14  C   UNL     1       3.896   1.442   2.072  1.00  0.00     0.468 C 
ENDBRANCH   5   6
ENDBRANCH   1   5
TORSDOF 3
ENDMDL
