@<TRIPOS>MOLECULE
/home/cewinharhar/GITHUB/reincatalyze/data/processed/docking_pred/2023-May-25-1902_sub9_nm5_bs15_s42_ex16_mel10_mts10000_k50_ec01_g099_lra3e-4_lrc3e-3/c054a7f490e8e5c171bc57af56a9ae5cb4d717f8_ligand_9.pdbqt
 14 15 0 0 0
SMALL
GASTEIGER

@<TRIPOS>ATOM
      1  C          8.3620    0.1940   -2.6290 C.3     1  UNL1        0.0800
      2  C          8.0560   -1.2590   -2.7450 C.2     1  UNL1        0.1300
      3  C          9.1190   -2.2610   -3.0220 C.3     1  UNL1        0.0870
      4  O          6.9140   -1.6710   -2.6150 O.2     1  UNL1       -0.3000
      5  C          8.8790    0.5390   -1.2470 C.3     1  UNL1        0.0430
      6  C          7.8310    0.4000   -0.2200 C.2     1  UNL1       -0.0440
      7  C          7.9130   -0.5710    0.7840 C.2     1  UNL1        0.0080
      8  C          6.7420    1.2420   -0.2390 C.2     1  UNL1        0.0540
      9  C          6.8990   -0.6540    1.7210 C.2     1  UNL1        0.0510
     10  C          5.7200    1.1540    0.7110 C.2     1  UNL1        0.1660
     11  C          5.7990    0.1980    1.6990 C.2     1  UNL1        0.1650
     12  O          4.5530    1.8620    0.9040 O.2     1  UNL1       -0.4540
     13  O          4.6680    0.3400    2.4870 O.2     1  UNL1       -0.4540
     14  C          3.8960    1.4420    2.0720 C.3     1  UNL1        0.4680
@<TRIPOS>BOND
     1     3     2    1
     2     2     1    1
     3     2     4    2
     4     1     5    1
     5     5     6    1
     6     8     6    2
     7     8    10    1
     8     6     7    1
     9    10    12    1
    10    10    11    2
    11     7     9    2
    12    12    14    1
    13    11     9    1
    14    11    13    1
    15    14    13    1
