@<TRIPOS>MOLECULE
/home/cewinharhar/GITHUB/reincatalyze/data/processed/docking_pred/2023-May-25-1902_sub9_nm5_bs15_s42_ex16_mel10_mts10000_k50_ec01_g099_lra3e-4_lrc3e-3/c054a7f490e8e5c171bc57af56a9ae5cb4d717f8_ligand_9.pdbqt
 14 15 0 0 0
SMALL
GASTEIGER

@<TRIPOS>ATOM
      1  C          5.3340   -0.0290    2.0040 C.3     1  UNL1        0.0800
      2  C          4.4430    1.1480    1.8040 C.2     1  UNL1        0.1300
      3  C          4.6990    2.1470    0.7320 C.3     1  UNL1        0.0870
      4  O          3.4720    1.3280    2.5210 O.2     1  UNL1       -0.3000
      5  C          6.7520    0.2720    1.5630 C.3     1  UNL1        0.0430
      6  C          7.1440   -0.5380    0.3960 C.2     1  UNL1       -0.0440
      7  C          6.9240   -0.0940   -0.9130 C.2     1  UNL1        0.0080
      8  C          7.7460   -1.7620    0.5860 C.2     1  UNL1        0.0540
      9  C          7.3140   -0.8970   -1.9690 C.2     1  UNL1        0.0510
     10  C          8.1390   -2.5700   -0.4860 C.2     1  UNL1        0.1660
     11  C          7.9210   -2.1340   -1.7740 C.2     1  UNL1        0.1650
     12  O          8.7450   -3.8060   -0.5570 O.2     1  UNL1       -0.4540
     13  O          8.4030   -3.1210   -2.6180 O.2     1  UNL1       -0.4540
     14  C          9.0160   -4.1580   -1.8900 C.3     1  UNL1        0.4680
@<TRIPOS>BOND
     1    13    14    1
     2    13    11    1
     3     9    11    2
     4     9     7    1
     5    14    12    1
     6    11    10    1
     7     7     6    2
     8    12    10    1
     9    10     8    2
    10     6     8    1
    11     6     5    1
    12     3     2    1
    13     5     1    1
    14     2     1    1
    15     2     4    2
