@<TRIPOS>MOLECULE
/home/cewinharhar/GITHUB/reincatalyze/data/processed/docking_pred/2023-May-25-1902_sub9_nm5_bs15_s42_ex16_mel10_mts10000_k50_ec01_g099_lra3e-4_lrc3e-3/c2b16f598521213e119e3a09a49f7e8c9c89cc3b_ligand_9.pdbqt
 14 15 0 0 0
SMALL
GASTEIGER

@<TRIPOS>ATOM
      1  C          6.0580    1.3720    1.0890 C.3     1  UNL1        0.0800
      2  C          5.5220    0.3210    1.9990 C.2     1  UNL1        0.1300
      3  C          6.2990   -0.9080    2.3160 C.3     1  UNL1        0.0870
      4  O          4.4210    0.4380    2.5130 O.2     1  UNL1       -0.3000
      5  C          5.6810    1.0960   -0.3530 C.3     1  UNL1        0.0430
      6  C          6.8000    0.5000   -1.1050 C.2     1  UNL1       -0.0440
      7  C          6.6480   -0.6910   -1.8230 C.2     1  UNL1        0.0080
      8  C          8.0270    1.1240   -1.1100 C.2     1  UNL1        0.0540
      9  C          7.7330   -1.2030   -2.5120 C.2     1  UNL1        0.0510
     10  C          9.1210    0.6030   -1.8080 C.2     1  UNL1        0.1660
     11  C          8.9730   -0.5700   -2.5140 C.2     1  UNL1        0.1650
     12  O         10.4230    1.0270   -1.9660 O.2     1  UNL1       -0.4540
     13  O         10.2000   -0.8440   -3.0980 O.2     1  UNL1       -0.4540
     14  C         11.1220    0.1900   -2.8510 C.3     1  UNL1        0.4680
@<TRIPOS>BOND
     1    13    14    1
     2    13    11    1
     3    14    12    1
     4    11     9    2
     5    11    10    1
     6     9     7    1
     7    12    10    1
     8     7     6    2
     9    10     8    2
    10     8     6    1
    11     6     5    1
    12     5     1    1
    13     1     2    1
    14     2     3    1
    15     2     4    2
