MODEL 1
REMARK VINA RESULT:      -7.6      0.000      0.000
REMARK SMILES CC(=O)CCc1ccc2c(c1)OCO2
REMARK SMILES IDX 4 1 2 2 1 3 3 4 5 5 6 6 7 7 11 8 8 9 10 10 9 11 12 12 14 13
REMARK SMILES IDX 13 14
REMARK H PARENT
REMARK Flexibility Score: inf
ROOT
ATOM      1  C   UNL     1       5.563   1.862   1.296  1.00  0.00     0.080 C 
ENDROOT
BRANCH   1   2
ATOM      2  C   UNL     1       5.106   0.644   2.022  1.00  0.00     0.130 C 
ATOM      3  C   UNL     1       5.988  -0.542   2.188  1.00  0.00     0.087 C 
ATOM      4  O   UNL     1       3.987   0.585   2.503  1.00  0.00    -0.300 OA
ENDBRANCH   1   2
BRANCH   1   5
ATOM      5  C   UNL     1       5.425   1.693  -0.204  1.00  0.00     0.043 C 
BRANCH   5   6
ATOM      6  C   UNL     1       6.585   0.994  -0.785  1.00  0.00    -0.044 A 
ATOM      7  C   UNL     1       7.894   1.438  -0.564  1.00  0.00     0.008 A 
ATOM      8  C   UNL     1       6.389  -0.124  -1.563  1.00  0.00     0.054 A 
ATOM      9  C   UNL     1       8.944   0.741  -1.134  1.00  0.00     0.051 A 
ATOM     10  C   UNL     1       7.453  -0.825  -2.136  1.00  0.00     0.166 A 
ATOM     11  C   UNL     1       8.742  -0.389  -1.920  1.00  0.00     0.165 A 
ATOM     12  O   UNL     1       7.518  -1.946  -2.936  1.00  0.00    -0.454 OA
ATOM     13  O   UNL     1       9.579  -1.261  -2.598  1.00  0.00    -0.454 OA
ATOM     14  C   UNL     1       8.851  -2.315  -3.181  1.00  0.00     0.468 C 
ENDBRANCH   5   6
ENDBRANCH   1   5
TORSDOF 3
ENDMDL
MODEL 2
REMARK VINA RESULT:      -7.4      1.875      2.327
REMARK SMILES CC(=O)CCc1ccc2c(c1)OCO2
REMARK SMILES IDX 4 1 2 2 1 3 3 4 5 5 6 6 7 7 11 8 8 9 10 10 9 11 12 12 14 13
REMARK SMILES IDX 13 14
REMARK H PARENT
REMARK Flexibility Score: inf
ROOT
ATOM      1  C   UNL     1       5.732   1.397  -0.285  1.00  0.00     0.080 C 
ENDROOT
BRANCH   1   2
ATOM      2  C   UNL     1       5.095   1.285   1.057  1.00  0.00     0.130 C 
ATOM      3  C   UNL     1       5.395   0.151   1.971  1.00  0.00     0.087 C 
ATOM      4  O   UNL     1       4.301   2.126   1.446  1.00  0.00    -0.300 OA
ENDBRANCH   1   2
BRANCH   1   5
ATOM      5  C   UNL     1       7.224   1.141  -0.208  1.00  0.00     0.043 C 
BRANCH   5   6
ATOM      6  C   UNL     1       7.591  -0.139  -0.840  1.00  0.00    -0.044 A 
ATOM      7  C   UNL     1       7.646  -0.281  -2.231  1.00  0.00     0.008 A 
ATOM      8  C   UNL     1       7.892  -1.227  -0.052  1.00  0.00     0.054 A 
ATOM      9  C   UNL     1       7.998  -1.507  -2.767  1.00  0.00     0.051 A 
ATOM     10  C   UNL     1       8.248  -2.463  -0.599  1.00  0.00     0.166 A 
ATOM     11  C   UNL     1       8.301  -2.604  -1.968  1.00  0.00     0.165 A 
ATOM     12  O   UNL     1       8.586  -3.677  -0.038  1.00  0.00    -0.454 OA
ATOM     13  O   UNL     1       8.675  -3.915  -2.222  1.00  0.00    -0.454 OA
ATOM     14  C   UNL     1       8.954  -4.604  -1.026  1.00  0.00     0.468 C 
ENDBRANCH   5   6
ENDBRANCH   1   5
TORSDOF 3
ENDMDL
MODEL 3
REMARK VINA RESULT:      -7.2      2.053      2.613
REMARK SMILES CC(=O)CCc1ccc2c(c1)OCO2
REMARK SMILES IDX 4 1 2 2 1 3 3 4 5 5 6 6 7 7 11 8 8 9 10 10 9 11 12 12 14 13
REMARK SMILES IDX 13 14
REMARK H PARENT
REMARK Flexibility Score: inf
ROOT
ATOM      1  C   UNL     1       5.430  -0.049   2.008  1.00  0.00     0.080 C 
ENDROOT
BRANCH   1   2
ATOM      2  C   UNL     1       4.575   1.147   1.766  1.00  0.00     0.130 C 
ATOM      3  C   UNL     1       4.901   2.138   0.706  1.00  0.00     0.087 C 
ATOM      4  O   UNL     1       3.576   1.349   2.437  1.00  0.00    -0.300 OA
ENDBRANCH   1   2
BRANCH   1   5
ATOM      5  C   UNL     1       6.863   0.203   1.583  1.00  0.00     0.043 C 
BRANCH   5   6
ATOM      6  C   UNL     1       7.291  -0.729   0.525  1.00  0.00    -0.044 A 
ATOM      7  C   UNL     1       7.169  -0.405  -0.831  1.00  0.00     0.008 A 
ATOM      8  C   UNL     1       7.828  -1.949   0.868  1.00  0.00     0.054 A 
ATOM      9  C   UNL     1       7.589  -1.320  -1.780  1.00  0.00     0.051 A 
ATOM     10  C   UNL     1       8.252  -2.870  -0.095  1.00  0.00     0.166 A 
ATOM     11  C   UNL     1       8.131  -2.553  -1.430  1.00  0.00     0.165 A 
ATOM     12  O   UNL     1       8.809  -4.128  -0.011  1.00  0.00    -0.454 OA
ATOM     13  O   UNL     1       8.622  -3.634  -2.145  1.00  0.00    -0.454 OA
ATOM     14  C   UNL     1       9.146  -4.617  -1.284  1.00  0.00     0.468 C 
ENDBRANCH   5   6
ENDBRANCH   1   5
TORSDOF 3
ENDMDL
MODEL 4
REMARK VINA RESULT:      -7.1      1.243      1.443
REMARK SMILES CC(=O)CCc1ccc2c(c1)OCO2
REMARK SMILES IDX 4 1 2 2 1 3 3 4 5 5 6 6 7 7 11 8 8 9 10 10 9 11 12 12 14 13
REMARK SMILES IDX 13 14
REMARK H PARENT
REMARK Flexibility Score: inf
ROOT
ATOM      1  C   UNL     1       6.387   1.189   0.947  1.00  0.00     0.080 C 
ENDROOT
BRANCH   1   2
ATOM      2  C   UNL     1       5.649   0.375   1.953  1.00  0.00     0.130 C 
ATOM      3  C   UNL     1       6.240  -0.853   2.548  1.00  0.00     0.087 C 
ATOM      4  O   UNL     1       4.529   0.694   2.318  1.00  0.00    -0.300 OA
ENDBRANCH   1   2
BRANCH   1   5
ATOM      5  C   UNL     1       5.876   0.927  -0.456  1.00  0.00     0.043 C 
BRANCH   5   6
ATOM      6  C   UNL     1       6.815   0.099  -1.233  1.00  0.00    -0.044 A 
ATOM      7  C   UNL     1       7.479   0.602  -2.357  1.00  0.00     0.008 A 
ATOM      8  C   UNL     1       7.053  -1.202  -0.852  1.00  0.00     0.054 A 
ATOM      9  C   UNL     1       8.350  -0.221  -3.047  1.00  0.00     0.051 A 
ATOM     10  C   UNL     1       7.935  -2.031  -1.553  1.00  0.00     0.166 A 
ATOM     11  C   UNL     1       8.588  -1.536  -2.659  1.00  0.00     0.165 A 
ATOM     12  O   UNL     1       8.334  -3.339  -1.378  1.00  0.00    -0.454 OA
ATOM     13  O   UNL     1       9.384  -2.561  -3.146  1.00  0.00    -0.454 OA
ATOM     14  C   UNL     1       9.323  -3.693  -2.311  1.00  0.00     0.468 C 
ENDBRANCH   5   6
ENDBRANCH   1   5
TORSDOF 3
ENDMDL
MODEL 5
REMARK VINA RESULT:      -7.1      1.950      2.501
REMARK SMILES CC(=O)CCc1ccc2c(c1)OCO2
REMARK SMILES IDX 4 1 2 2 1 3 3 4 5 5 6 6 7 7 11 8 8 9 10 10 9 11 12 12 14 13
REMARK SMILES IDX 13 14
REMARK H PARENT
REMARK Flexibility Score: inf
ROOT
ATOM      1  C   UNL     1       6.785   0.748   1.443  1.00  0.00     0.080 C 
ENDROOT
BRANCH   1   2
ATOM      2  C   UNL     1       5.349   1.142   1.474  1.00  0.00     0.130 C 
ATOM      3  C   UNL     1       4.793   2.141   0.523  1.00  0.00     0.087 C 
ATOM      4  O   UNL     1       4.582   0.653   2.288  1.00  0.00    -0.300 OA
ENDBRANCH   1   2
BRANCH   1   5
ATOM      5  C   UNL     1       7.395   0.998   0.078  1.00  0.00     0.043 C 
BRANCH   5   6
ATOM      6  C   UNL     1       7.688  -0.262  -0.628  1.00  0.00    -0.044 A 
ATOM      7  C   UNL     1       7.648  -0.346  -2.024  1.00  0.00     0.008 A 
ATOM      8  C   UNL     1       8.013  -1.388   0.093  1.00  0.00     0.054 A 
ATOM      9  C   UNL     1       7.933  -1.555  -2.632  1.00  0.00     0.051 A 
ATOM     10  C   UNL     1       8.302  -2.608  -0.526  1.00  0.00     0.166 A 
ATOM     11  C   UNL     1       8.261  -2.692  -1.900  1.00  0.00     0.165 A 
ATOM     12  O   UNL     1       8.646  -3.851  -0.039  1.00  0.00    -0.454 OA
ATOM     13  O   UNL     1       8.585  -3.998  -2.232  1.00  0.00    -0.454 OA
ATOM     14  C   UNL     1       8.925  -4.744  -1.087  1.00  0.00     0.468 C 
ENDBRANCH   5   6
ENDBRANCH   1   5
TORSDOF 3
ENDMDL
