@<TRIPOS>MOLECULE
/home/cewinharhar/GITHUB/reincatalyze/data/processed/docking_pred/2023-May-25-1902_sub9_nm5_bs15_s42_ex16_mel10_mts10000_k50_ec01_g099_lra3e-4_lrc3e-3/c2bbe2b0b698b4c34a14c6b9d782c5d04fb4e97c_ligand_9.pdbqt
 14 15 0 0 0
SMALL
GASTEIGER

@<TRIPOS>ATOM
      1  C          6.7850    0.7480    1.4430 C.3     1  UNL1        0.0800
      2  C          5.3490    1.1420    1.4740 C.2     1  UNL1        0.1300
      3  C          4.7930    2.1410    0.5230 C.3     1  UNL1        0.0870
      4  O          4.5820    0.6530    2.2880 O.2     1  UNL1       -0.3000
      5  C          7.3950    0.9980    0.0780 C.3     1  UNL1        0.0430
      6  C          7.6880   -0.2620   -0.6280 C.2     1  UNL1       -0.0440
      7  C          7.6480   -0.3460   -2.0240 C.2     1  UNL1        0.0080
      8  C          8.0130   -1.3880    0.0930 C.2     1  UNL1        0.0540
      9  C          7.9330   -1.5550   -2.6320 C.2     1  UNL1        0.0510
     10  C          8.3020   -2.6080   -0.5260 C.2     1  UNL1        0.1660
     11  C          8.2610   -2.6920   -1.9000 C.2     1  UNL1        0.1650
     12  O          8.6460   -3.8510   -0.0390 O.2     1  UNL1       -0.4540
     13  O          8.5850   -3.9980   -2.2320 O.2     1  UNL1       -0.4540
     14  C          8.9250   -4.7440   -1.0870 C.3     1  UNL1        0.4680
@<TRIPOS>BOND
     1     9     7    1
     2     9    11    2
     3    13    11    1
     4    13    14    1
     5     7     6    2
     6    11    10    1
     7    14    12    1
     8     6     5    1
     9     6     8    1
    10    10    12    1
    11    10     8    2
    12     5     1    1
    13     3     2    1
    14     1     2    1
    15     2     4    2
