@<TRIPOS>MOLECULE
/home/cewinharhar/GITHUB/reincatalyze/data/processed/docking_pred/2023-May-25-1902_sub9_nm5_bs15_s42_ex16_mel10_mts10000_k50_ec01_g099_lra3e-4_lrc3e-3/c2bbe2b0b698b4c34a14c6b9d782c5d04fb4e97c_ligand_9.pdbqt
 14 15 0 0 0
SMALL
GASTEIGER

@<TRIPOS>ATOM
      1  C          5.4300   -0.0490    2.0080 C.3     1  UNL1        0.0800
      2  C          4.5750    1.1470    1.7660 C.2     1  UNL1        0.1300
      3  C          4.9010    2.1380    0.7060 C.3     1  UNL1        0.0870
      4  O          3.5760    1.3490    2.4370 O.2     1  UNL1       -0.3000
      5  C          6.8630    0.2030    1.5830 C.3     1  UNL1        0.0430
      6  C          7.2910   -0.7290    0.5250 C.2     1  UNL1       -0.0440
      7  C          7.1690   -0.4050   -0.8310 C.2     1  UNL1        0.0080
      8  C          7.8280   -1.9490    0.8680 C.2     1  UNL1        0.0540
      9  C          7.5890   -1.3200   -1.7800 C.2     1  UNL1        0.0510
     10  C          8.2520   -2.8700   -0.0950 C.2     1  UNL1        0.1660
     11  C          8.1310   -2.5530   -1.4300 C.2     1  UNL1        0.1650
     12  O          8.8090   -4.1280   -0.0110 O.2     1  UNL1       -0.4540
     13  O          8.6220   -3.6340   -2.1450 O.2     1  UNL1       -0.4540
     14  C          9.1460   -4.6170   -1.2840 C.3     1  UNL1        0.4680
@<TRIPOS>BOND
     1    13    11    1
     2    13    14    1
     3     9    11    2
     4     9     7    1
     5    11    10    1
     6    14    12    1
     7     7     6    2
     8    10    12    1
     9    10     8    2
    10     6     8    1
    11     6     5    1
    12     3     2    1
    13     5     1    1
    14     2     1    1
    15     2     4    2
