MODEL 1
REMARK VINA RESULT:      -8.1      0.000      0.000
REMARK SMILES CC(=O)CCc1ccc2c(c1)OCO2
REMARK SMILES IDX 4 1 2 2 1 3 3 4 5 5 6 6 7 7 11 8 8 9 10 10 9 11 12 12 14 13
REMARK SMILES IDX 13 14
REMARK H PARENT
REMARK Flexibility Score: inf
ROOT
ATOM      1  C   UNL     1       5.988   1.607   1.146  1.00  0.00     0.080 C 
ENDROOT
BRANCH   1   2
ATOM      2  C   UNL     1       5.460   0.496   1.985  1.00  0.00     0.130 C 
ATOM      3  C   UNL     1       6.277  -0.709   2.291  1.00  0.00     0.087 C 
ATOM      4  O   UNL     1       4.331   0.542   2.448  1.00  0.00    -0.300 OA
ENDBRANCH   1   2
BRANCH   1   5
ATOM      5  C   UNL     1       5.717   1.363  -0.326  1.00  0.00     0.043 C 
BRANCH   5   6
ATOM      6  C   UNL     1       6.815   0.619  -0.968  1.00  0.00    -0.044 A 
ATOM      7  C   UNL     1       8.147   1.033  -0.851  1.00  0.00     0.008 A 
ATOM      8  C   UNL     1       6.536  -0.511  -1.702  1.00  0.00     0.054 A 
ATOM      9  C   UNL     1       9.136   0.295  -1.475  1.00  0.00     0.051 A 
ATOM     10  C   UNL     1       7.540  -1.254  -2.330  1.00  0.00     0.166 A 
ATOM     11  C   UNL     1       8.851  -0.848  -2.216  1.00  0.00     0.165 A 
ATOM     12  O   UNL     1       7.520  -2.396  -3.104  1.00  0.00    -0.454 OA
ATOM     13  O   UNL     1       9.616  -1.758  -2.928  1.00  0.00    -0.454 OA
ATOM     14  C   UNL     1       8.822  -2.806  -3.432  1.00  0.00     0.468 C 
ENDBRANCH   5   6
ENDBRANCH   1   5
TORSDOF 3
ENDMDL
MODEL 2
REMARK VINA RESULT:      -7.3      1.117      1.619
REMARK SMILES CC(=O)CCc1ccc2c(c1)OCO2
REMARK SMILES IDX 4 1 2 2 1 3 3 4 5 5 6 6 7 7 11 8 8 9 10 10 9 11 12 12 14 13
REMARK SMILES IDX 13 14
REMARK H PARENT
REMARK Flexibility Score: inf
ROOT
ATOM      1  C   UNL     1       5.897  -0.469   1.731  1.00  0.00     0.080 C 
ENDROOT
BRANCH   1   2
ATOM      2  C   UNL     1       4.993   0.716   1.733  1.00  0.00     0.130 C 
ATOM      3  C   UNL     1       5.153   1.821   0.751  1.00  0.00     0.087 C 
ATOM      4  O   UNL     1       4.090   0.813   2.548  1.00  0.00    -0.300 OA
ENDBRANCH   1   2
BRANCH   1   5
ATOM      5  C   UNL     1       7.325  -0.071   1.418  1.00  0.00     0.043 C 
BRANCH   5   6
ATOM      6  C   UNL     1       7.686  -0.381   0.023  1.00  0.00    -0.044 A 
ATOM      7  C   UNL     1       8.003   0.627  -0.894  1.00  0.00     0.008 A 
ATOM      8  C   UNL     1       7.717  -1.691  -0.398  1.00  0.00     0.054 A 
ATOM      9  C   UNL     1       8.335   0.275  -2.190  1.00  0.00     0.051 A 
ATOM     10  C   UNL     1       8.054  -2.042  -1.709  1.00  0.00     0.166 A 
ATOM     11  C   UNL     1       8.365  -1.050  -2.612  1.00  0.00     0.165 A 
ATOM     12  O   UNL     1       8.154  -3.252  -2.362  1.00  0.00    -0.454 OA
ATOM     13  O   UNL     1       8.654  -1.679  -3.814  1.00  0.00    -0.454 OA
ATOM     14  C   UNL     1       8.621  -3.079  -3.675  1.00  0.00     0.468 C 
ENDBRANCH   5   6
ENDBRANCH   1   5
TORSDOF 3
ENDMDL
MODEL 3
REMARK VINA RESULT:      -7.2      1.605      5.572
REMARK SMILES CC(=O)CCc1ccc2c(c1)OCO2
REMARK SMILES IDX 4 1 2 2 1 3 3 4 5 5 6 6 7 7 11 8 8 9 10 10 9 11 12 12 14 13
REMARK SMILES IDX 13 14
REMARK H PARENT
REMARK Flexibility Score: inf
ROOT
ATOM      1  C   UNL     1       8.128  -2.561  -3.581  1.00  0.00     0.080 C 
ENDROOT
BRANCH   1   2
ATOM      2  C   UNL     1       9.240  -3.535  -3.392  1.00  0.00     0.130 C 
ATOM      3  C   UNL     1       8.988  -4.997  -3.285  1.00  0.00     0.087 C 
ATOM      4  O   UNL     1      10.398  -3.157  -3.319  1.00  0.00    -0.300 OA
ENDBRANCH   1   2
BRANCH   1   5
ATOM      5  C   UNL     1       8.502  -1.190  -3.052  1.00  0.00     0.043 C 
BRANCH   5   6
ATOM      6  C   UNL     1       7.737  -0.845  -1.841  1.00  0.00    -0.044 A 
ATOM      7  C   UNL     1       7.773  -1.649  -0.696  1.00  0.00     0.008 A 
ATOM      8  C   UNL     1       6.966   0.295  -1.823  1.00  0.00     0.054 A 
ATOM      9  C   UNL     1       7.035  -1.274   0.411  1.00  0.00     0.051 A 
ATOM     10  C   UNL     1       6.222   0.671  -0.701  1.00  0.00     0.166 A 
ATOM     11  C   UNL     1       6.256  -0.121   0.426  1.00  0.00     0.165 A 
ATOM     12  O   UNL     1       5.390   1.739  -0.439  1.00  0.00    -0.454 OA
ATOM     13  O   UNL     1       5.438   0.485   1.366  1.00  0.00    -0.454 OA
ATOM     14  C   UNL     1       4.941   1.713   0.892  1.00  0.00     0.468 C 
ENDBRANCH   5   6
ENDBRANCH   1   5
TORSDOF 3
ENDMDL
MODEL 4
REMARK VINA RESULT:      -7.2      1.247      1.405
REMARK SMILES CC(=O)CCc1ccc2c(c1)OCO2
REMARK SMILES IDX 4 1 2 2 1 3 3 4 5 5 6 6 7 7 11 8 8 9 10 10 9 11 12 12 14 13
REMARK SMILES IDX 13 14
REMARK H PARENT
REMARK Flexibility Score: inf
ROOT
ATOM      1  C   UNL     1       5.761   0.845   0.427  1.00  0.00     0.080 C 
ENDROOT
BRANCH   1   2
ATOM      2  C   UNL     1       5.419   0.324   1.780  1.00  0.00     0.130 C 
ATOM      3  C   UNL     1       6.242  -0.720   2.446  1.00  0.00     0.087 C 
ATOM      4  O   UNL     1       4.445   0.743   2.385  1.00  0.00    -0.300 OA
ENDBRANCH   1   2
BRANCH   1   5
ATOM      5  C   UNL     1       7.260   0.849   0.202  1.00  0.00     0.043 C 
BRANCH   5   6
ATOM      6  C   UNL     1       7.647  -0.033  -0.914  1.00  0.00    -0.044 A 
ATOM      7  C   UNL     1       7.825   0.461  -2.211  1.00  0.00     0.008 A 
ATOM      8  C   UNL     1       7.844  -1.376  -0.685  1.00  0.00     0.054 A 
ATOM      9  C   UNL     1       8.189  -0.414  -3.219  1.00  0.00     0.051 A 
ATOM     10  C   UNL     1       8.214  -2.256  -1.707  1.00  0.00     0.166 A 
ATOM     11  C   UNL     1       8.387  -1.771  -2.984  1.00  0.00     0.165 A 
ATOM     12  O   UNL     1       8.465  -3.611  -1.734  1.00  0.00    -0.454 OA
ATOM     13  O   UNL     1       8.746  -2.849  -3.777  1.00  0.00    -0.454 OA
ATOM     14  C   UNL     1       8.895  -4.019  -3.008  1.00  0.00     0.468 C 
ENDBRANCH   5   6
ENDBRANCH   1   5
TORSDOF 3
ENDMDL
MODEL 5
REMARK VINA RESULT:      -7.1      1.644      5.437
REMARK SMILES CC(=O)CCc1ccc2c(c1)OCO2
REMARK SMILES IDX 4 1 2 2 1 3 3 4 5 5 6 6 7 7 11 8 8 9 10 10 9 11 12 12 14 13
REMARK SMILES IDX 13 14
REMARK H PARENT
REMARK Flexibility Score: inf
ROOT
ATOM      1  C   UNL     1       8.113  -2.583  -3.621  1.00  0.00     0.080 C 
ENDROOT
BRANCH   1   2
ATOM      2  C   UNL     1       9.239  -3.535  -3.407  1.00  0.00     0.130 C 
ATOM      3  C   UNL     1       9.010  -4.998  -3.274  1.00  0.00     0.087 C 
ATOM      4  O   UNL     1      10.391  -3.137  -3.333  1.00  0.00    -0.300 OA
ENDBRANCH   1   2
BRANCH   1   5
ATOM      5  C   UNL     1       8.485  -1.182  -3.179  1.00  0.00     0.043 C 
BRANCH   5   6
ATOM      6  C   UNL     1       7.730  -0.768  -1.983  1.00  0.00    -0.044 A 
ATOM      7  C   UNL     1       6.880   0.344  -2.001  1.00  0.00     0.008 A 
ATOM      8  C   UNL     1       7.854  -1.487  -0.815  1.00  0.00     0.054 A 
ATOM      9  C   UNL     1       6.196   0.684  -0.848  1.00  0.00     0.051 A 
ATOM     10  C   UNL     1       7.160  -1.139   0.347  1.00  0.00     0.166 A 
ATOM     11  C   UNL     1       6.324  -0.044   0.331  1.00  0.00     0.165 A 
ATOM     12  O   UNL     1       7.115  -1.683   1.613  1.00  0.00    -0.454 OA
ATOM     13  O   UNL     1       5.777   0.061   1.600  1.00  0.00    -0.454 OA
ATOM     14  C   UNL     1       6.181  -1.010   2.418  1.00  0.00     0.468 C 
ENDBRANCH   5   6
ENDBRANCH   1   5
TORSDOF 3
ENDMDL
