@<TRIPOS>MOLECULE
/home/cewinharhar/GITHUB/reincatalyze/data/processed/docking_pred/2023-May-25-1902_sub9_nm5_bs15_s42_ex16_mel10_mts10000_k50_ec01_g099_lra3e-4_lrc3e-3/c584487daa348165e33ca71579c90fd99cb4babd_ligand_9.pdbqt
 14 15 0 0 0
SMALL
GASTEIGER

@<TRIPOS>ATOM
      1  C          5.8970   -0.4690    1.7310 C.3     1  UNL1        0.0800
      2  C          4.9930    0.7160    1.7330 C.2     1  UNL1        0.1300
      3  C          5.1530    1.8210    0.7510 C.3     1  UNL1        0.0870
      4  O          4.0900    0.8130    2.5480 O.2     1  UNL1       -0.3000
      5  C          7.3250   -0.0710    1.4180 C.3     1  UNL1        0.0430
      6  C          7.6860   -0.3810    0.0230 C.2     1  UNL1       -0.0440
      7  C          8.0030    0.6270   -0.8940 C.2     1  UNL1        0.0080
      8  C          7.7170   -1.6910   -0.3980 C.2     1  UNL1        0.0540
      9  C          8.3350    0.2750   -2.1900 C.2     1  UNL1        0.0510
     10  C          8.0540   -2.0420   -1.7090 C.2     1  UNL1        0.1660
     11  C          8.3650   -1.0500   -2.6120 C.2     1  UNL1        0.1650
     12  O          8.1540   -3.2520   -2.3620 O.2     1  UNL1       -0.4540
     13  O          8.6540   -1.6790   -3.8140 O.2     1  UNL1       -0.4540
     14  C          8.6210   -3.0790   -3.6750 C.3     1  UNL1        0.4680
@<TRIPOS>BOND
     1    13    14    1
     2    13    11    1
     3    14    12    1
     4    11     9    2
     5    11    10    1
     6    12    10    1
     7     9     7    1
     8    10     8    2
     9     7     6    2
    10     8     6    1
    11     6     5    1
    12     3     2    1
    13     5     1    1
    14     1     2    1
    15     2     4    2
