@<TRIPOS>MOLECULE
/home/cewinharhar/GITHUB/reincatalyze/data/processed/docking_pred/2023-May-25-1902_sub9_nm5_bs15_s42_ex16_mel10_mts10000_k50_ec01_g099_lra3e-4_lrc3e-3/c584487daa348165e33ca71579c90fd99cb4babd_ligand_9.pdbqt
 14 15 0 0 0
SMALL
GASTEIGER

@<TRIPOS>ATOM
      1  C          5.9880    1.6070    1.1460 C.3     1  UNL1        0.0800
      2  C          5.4600    0.4960    1.9850 C.2     1  UNL1        0.1300
      3  C          6.2770   -0.7090    2.2910 C.3     1  UNL1        0.0870
      4  O          4.3310    0.5420    2.4480 O.2     1  UNL1       -0.3000
      5  C          5.7170    1.3630   -0.3260 C.3     1  UNL1        0.0430
      6  C          6.8150    0.6190   -0.9680 C.2     1  UNL1       -0.0440
      7  C          8.1470    1.0330   -0.8510 C.2     1  UNL1        0.0080
      8  C          6.5360   -0.5110   -1.7020 C.2     1  UNL1        0.0540
      9  C          9.1360    0.2950   -1.4750 C.2     1  UNL1        0.0510
     10  C          7.5400   -1.2540   -2.3300 C.2     1  UNL1        0.1660
     11  C          8.8510   -0.8480   -2.2160 C.2     1  UNL1        0.1650
     12  O          7.5200   -2.3960   -3.1040 O.2     1  UNL1       -0.4540
     13  O          9.6160   -1.7580   -2.9280 O.2     1  UNL1       -0.4540
     14  C          8.8220   -2.8060   -3.4320 C.3     1  UNL1        0.4680
@<TRIPOS>BOND
     1    14    12    1
     2    14    13    1
     3    12    10    1
     4    13    11    1
     5    10    11    2
     6    10     8    1
     7    11     9    1
     8     8     6    2
     9     9     7    2
    10     6     7    1
    11     6     5    1
    12     5     1    1
    13     1     2    1
    14     2     3    1
    15     2     4    2
