@<TRIPOS>MOLECULE
/home/cewinharhar/GITHUB/reincatalyze/data/processed/docking_pred/2023-May-25-1902_sub9_nm5_bs15_s42_ex16_mel10_mts10000_k50_ec01_g099_lra3e-4_lrc3e-3/c61eb663c2c3330cf201d691d278f59eb7eebd68_ligand_9.pdbqt
 14 15 0 0 0
SMALL
GASTEIGER

@<TRIPOS>ATOM
      1  C          8.3450    0.1820   -2.6520 C.3     1  UNL1        0.0800
      2  C          8.0650   -1.2770   -2.7670 C.2     1  UNL1        0.1300
      3  C          9.1510   -2.2630   -3.0110 C.3     1  UNL1        0.0870
      4  O          6.9280   -1.7070   -2.6630 O.2     1  UNL1       -0.3000
      5  C          8.8720    0.5340   -1.2750 C.3     1  UNL1        0.0430
      6  C          7.8320    0.3960   -0.2400 C.2     1  UNL1       -0.0440
      7  C          7.9260   -0.5690    0.7690 C.2     1  UNL1        0.0080
      8  C          6.7390    1.2320   -0.2550 C.2     1  UNL1        0.0540
      9  C          6.9190   -0.6520    1.7150 C.2     1  UNL1        0.0510
     10  C          5.7240    1.1450    0.7030 C.2     1  UNL1        0.1660
     11  C          5.8150    0.1950    1.6960 C.2     1  UNL1        0.1650
     12  O          4.5550    1.8480    0.9000 O.2     1  UNL1       -0.4540
     13  O          4.6890    0.3370    2.4910 O.2     1  UNL1       -0.4540
     14  C          3.9080    1.4320    2.0760 C.3     1  UNL1        0.4680
@<TRIPOS>BOND
     1     3     2    1
     2     2     4    2
     3     2     1    1
     4     1     5    1
     5     5     6    1
     6     8     6    2
     7     8    10    1
     8     6     7    1
     9    10    12    1
    10    10    11    2
    11     7     9    2
    12    12    14    1
    13    11     9    1
    14    11    13    1
    15    14    13    1
