@<TRIPOS>MOLECULE
/home/cewinharhar/GITHUB/reincatalyze/data/processed/docking_pred/2023-May-25-1902_sub9_nm5_bs15_s42_ex16_mel10_mts10000_k50_ec01_g099_lra3e-4_lrc3e-3/c61eb663c2c3330cf201d691d278f59eb7eebd68_ligand_9.pdbqt
 14 15 0 0 0
SMALL
GASTEIGER

@<TRIPOS>ATOM
      1  C          5.3190   -0.0720    1.9610 C.3     1  UNL1        0.0800
      2  C          4.4450    1.1210    1.7840 C.2     1  UNL1        0.1300
      3  C          4.7280    2.1500    0.7480 C.3     1  UNL1        0.0870
      4  O          3.4640    1.2900    2.4910 O.2     1  UNL1       -0.3000
      5  C          6.7860    0.3060    1.8960 C.3     1  UNL1        0.0430
      6  C          7.3880   -0.0590    0.6020 C.2     1  UNL1       -0.0440
      7  C          7.8630    0.9140   -0.2860 C.2     1  UNL1        0.0080
      8  C          7.4930   -1.3850    0.2480 C.2     1  UNL1        0.0540
      9  C          8.4200    0.5110   -1.4860 C.2     1  UNL1        0.0510
     10  C          8.0570   -1.7860   -0.9670 C.2     1  UNL1        0.1660
     11  C          8.5240   -0.8300   -1.8410 C.2     1  UNL1        0.1650
     12  O          8.2710   -3.0210   -1.5410 O.2     1  UNL1       -0.4540
     13  O          9.0210   -1.5050   -2.9450 O.2     1  UNL1       -0.4540
     14  C          8.9630   -2.8990   -2.7570 C.3     1  UNL1        0.4680
@<TRIPOS>BOND
     1    13    14    1
     2    13    11    1
     3    14    12    1
     4    11     9    2
     5    11    10    1
     6    12    10    1
     7     9     7    1
     8    10     8    2
     9     7     6    2
    10     8     6    1
    11     6     5    1
    12     3     2    1
    13     2     1    1
    14     2     4    2
    15     5     1    1
