@<TRIPOS>MOLECULE
/home/cewinharhar/GITHUB/reincatalyze/data/processed/docking_pred/2023-May-25-1902_sub9_nm5_bs15_s42_ex16_mel10_mts10000_k50_ec01_g099_lra3e-4_lrc3e-3/c61eb663c2c3330cf201d691d278f59eb7eebd68_ligand_9.pdbqt
 14 15 0 0 0
SMALL
GASTEIGER

@<TRIPOS>ATOM
      1  C          5.3970   -0.0780    2.0180 C.3     1  UNL1        0.0800
      2  C          4.5640    1.1330    1.7740 C.2     1  UNL1        0.1300
      3  C          4.9170    2.1240    0.7220 C.3     1  UNL1        0.0870
      4  O          3.5620    1.3480    2.4360 O.2     1  UNL1       -0.3000
      5  C          6.8420    0.1600    1.6300 C.3     1  UNL1        0.0430
      6  C          7.2760   -0.7500    0.5540 C.2     1  UNL1       -0.0440
      7  C          7.1600   -0.3970   -0.7950 C.2     1  UNL1        0.0080
      8  C          7.8110   -1.9770    0.8730 C.2     1  UNL1        0.0540
      9  C          7.5840   -1.2920   -1.7610 C.2     1  UNL1        0.0510
     10  C          8.2400   -2.8770   -0.1070 C.2     1  UNL1        0.1660
     11  C          8.1250   -2.5320   -1.4350 C.2     1  UNL1        0.1650
     12  O          8.7970   -4.1370   -0.0470 O.2     1  UNL1       -0.4540
     13  O          8.6190   -3.5970   -2.1710 O.2     1  UNL1       -0.4540
     14  C          9.1390   -4.5980   -1.3290 C.3     1  UNL1        0.4680
@<TRIPOS>BOND
     1    13    11    1
     2    13    14    1
     3     9    11    2
     4     9     7    1
     5    11    10    1
     6    14    12    1
     7     7     6    2
     8    10    12    1
     9    10     8    2
    10     6     8    1
    11     6     5    1
    12     3     2    1
    13     5     1    1
    14     2     1    1
    15     2     4    2
