MODEL 1
REMARK VINA RESULT:      -7.6      0.000      0.000
REMARK SMILES CC(=O)CCc1ccc2c(c1)OCO2
REMARK SMILES IDX 4 1 2 2 1 3 3 4 5 5 6 6 7 7 11 8 8 9 10 10 9 11 12 12 14 13
REMARK SMILES IDX 13 14
REMARK H PARENT
REMARK Flexibility Score: inf
ROOT
ATOM      1  C   UNL     1       5.530   1.919   1.266  1.00  0.00     0.080 C 
ENDROOT
BRANCH   1   2
ATOM      2  C   UNL     1       5.097   0.700   2.004  1.00  0.00     0.130 C 
ATOM      3  C   UNL     1       6.001  -0.467   2.183  1.00  0.00     0.087 C 
ATOM      4  O   UNL     1       3.978   0.623   2.486  1.00  0.00    -0.300 OA
ENDBRANCH   1   2
BRANCH   1   5
ATOM      5  C   UNL     1       5.403   1.730  -0.232  1.00  0.00     0.043 C 
BRANCH   5   6
ATOM      6  C   UNL     1       6.570   1.027  -0.795  1.00  0.00    -0.044 A 
ATOM      7  C   UNL     1       7.877   1.461  -0.545  1.00  0.00     0.008 A 
ATOM      8  C   UNL     1       6.382  -0.084  -1.585  1.00  0.00     0.054 A 
ATOM      9  C   UNL     1       8.934   0.761  -1.099  1.00  0.00     0.051 A 
ATOM     10  C   UNL     1       7.454  -0.788  -2.142  1.00  0.00     0.166 A 
ATOM     11  C   UNL     1       8.740  -0.362  -1.898  1.00  0.00     0.165 A 
ATOM     12  O   UNL     1       7.527  -1.904  -2.949  1.00  0.00    -0.454 OA
ATOM     13  O   UNL     1       9.585  -1.234  -2.565  1.00  0.00    -0.454 OA
ATOM     14  C   UNL     1       8.862  -2.280  -3.169  1.00  0.00     0.468 C 
ENDBRANCH   5   6
ENDBRANCH   1   5
TORSDOF 3
ENDMDL
MODEL 2
REMARK VINA RESULT:      -7.4      1.892      2.344
REMARK SMILES CC(=O)CCc1ccc2c(c1)OCO2
REMARK SMILES IDX 4 1 2 2 1 3 3 4 5 5 6 6 7 7 11 8 8 9 10 10 9 11 12 12 14 13
REMARK SMILES IDX 13 14
REMARK H PARENT
REMARK Flexibility Score: inf
ROOT
ATOM      1  C   UNL     1       5.742   1.417  -0.270  1.00  0.00     0.080 C 
ENDROOT
BRANCH   1   2
ATOM      2  C   UNL     1       5.087   1.295   1.062  1.00  0.00     0.130 C 
ATOM      3  C   UNL     1       5.383   0.161   1.978  1.00  0.00     0.087 C 
ATOM      4  O   UNL     1       4.282   2.130   1.443  1.00  0.00    -0.300 OA
ENDBRANCH   1   2
BRANCH   1   5
ATOM      5  C   UNL     1       7.230   1.143  -0.179  1.00  0.00     0.043 C 
BRANCH   5   6
ATOM      6  C   UNL     1       7.591  -0.136  -0.815  1.00  0.00    -0.044 A 
ATOM      7  C   UNL     1       7.633  -0.276  -2.207  1.00  0.00     0.008 A 
ATOM      8  C   UNL     1       7.897  -1.226  -0.032  1.00  0.00     0.054 A 
ATOM      9  C   UNL     1       7.979  -1.501  -2.748  1.00  0.00     0.051 A 
ATOM     10  C   UNL     1       8.246  -2.462  -0.584  1.00  0.00     0.166 A 
ATOM     11  C   UNL     1       8.287  -2.600  -1.953  1.00  0.00     0.165 A 
ATOM     12  O   UNL     1       8.588  -3.676  -0.028  1.00  0.00    -0.454 OA
ATOM     13  O   UNL     1       8.658  -3.911  -2.212  1.00  0.00    -0.454 OA
ATOM     14  C   UNL     1       8.946  -4.603  -1.021  1.00  0.00     0.468 C 
ENDBRANCH   5   6
ENDBRANCH   1   5
TORSDOF 3
ENDMDL
MODEL 3
REMARK VINA RESULT:      -7.2      2.045      2.624
REMARK SMILES CC(=O)CCc1ccc2c(c1)OCO2
REMARK SMILES IDX 4 1 2 2 1 3 3 4 5 5 6 6 7 7 11 8 8 9 10 10 9 11 12 12 14 13
REMARK SMILES IDX 13 14
REMARK H PARENT
REMARK Flexibility Score: inf
ROOT
ATOM      1  C   UNL     1       5.397  -0.078   2.018  1.00  0.00     0.080 C 
ENDROOT
BRANCH   1   2
ATOM      2  C   UNL     1       4.564   1.133   1.774  1.00  0.00     0.130 C 
ATOM      3  C   UNL     1       4.917   2.124   0.722  1.00  0.00     0.087 C 
ATOM      4  O   UNL     1       3.562   1.348   2.436  1.00  0.00    -0.300 OA
ENDBRANCH   1   2
BRANCH   1   5
ATOM      5  C   UNL     1       6.842   0.160   1.630  1.00  0.00     0.043 C 
BRANCH   5   6
ATOM      6  C   UNL     1       7.276  -0.750   0.554  1.00  0.00    -0.044 A 
ATOM      7  C   UNL     1       7.160  -0.397  -0.795  1.00  0.00     0.008 A 
ATOM      8  C   UNL     1       7.811  -1.977   0.873  1.00  0.00     0.054 A 
ATOM      9  C   UNL     1       7.584  -1.292  -1.761  1.00  0.00     0.051 A 
ATOM     10  C   UNL     1       8.240  -2.877  -0.107  1.00  0.00     0.166 A 
ATOM     11  C   UNL     1       8.125  -2.532  -1.435  1.00  0.00     0.165 A 
ATOM     12  O   UNL     1       8.797  -4.137  -0.047  1.00  0.00    -0.454 OA
ATOM     13  O   UNL     1       8.619  -3.597  -2.171  1.00  0.00    -0.454 OA
ATOM     14  C   UNL     1       9.139  -4.598  -1.329  1.00  0.00     0.468 C 
ENDBRANCH   5   6
ENDBRANCH   1   5
TORSDOF 3
ENDMDL
MODEL 4
REMARK VINA RESULT:      -6.8      1.185      5.175
REMARK SMILES CC(=O)CCc1ccc2c(c1)OCO2
REMARK SMILES IDX 4 1 2 2 1 3 3 4 5 5 6 6 7 7 11 8 8 9 10 10 9 11 12 12 14 13
REMARK SMILES IDX 13 14
REMARK H PARENT
REMARK Flexibility Score: inf
ROOT
ATOM      1  C   UNL     1       8.345   0.182  -2.652  1.00  0.00     0.080 C 
ENDROOT
BRANCH   1   2
ATOM      2  C   UNL     1       8.065  -1.277  -2.767  1.00  0.00     0.130 C 
ATOM      3  C   UNL     1       9.151  -2.263  -3.011  1.00  0.00     0.087 C 
ATOM      4  O   UNL     1       6.928  -1.707  -2.663  1.00  0.00    -0.300 OA
ENDBRANCH   1   2
BRANCH   1   5
ATOM      5  C   UNL     1       8.872   0.534  -1.275  1.00  0.00     0.043 C 
BRANCH   5   6
ATOM      6  C   UNL     1       7.832   0.396  -0.240  1.00  0.00    -0.044 A 
ATOM      7  C   UNL     1       7.926  -0.569   0.769  1.00  0.00     0.008 A 
ATOM      8  C   UNL     1       6.739   1.232  -0.255  1.00  0.00     0.054 A 
ATOM      9  C   UNL     1       6.919  -0.652   1.715  1.00  0.00     0.051 A 
ATOM     10  C   UNL     1       5.724   1.145   0.703  1.00  0.00     0.166 A 
ATOM     11  C   UNL     1       5.815   0.195   1.696  1.00  0.00     0.165 A 
ATOM     12  O   UNL     1       4.555   1.848   0.900  1.00  0.00    -0.454 OA
ATOM     13  O   UNL     1       4.689   0.337   2.491  1.00  0.00    -0.454 OA
ATOM     14  C   UNL     1       3.908   1.432   2.076  1.00  0.00     0.468 C 
ENDBRANCH   5   6
ENDBRANCH   1   5
TORSDOF 3
ENDMDL
MODEL 5
REMARK VINA RESULT:      -6.8      1.278      1.766
REMARK SMILES CC(=O)CCc1ccc2c(c1)OCO2
REMARK SMILES IDX 4 1 2 2 1 3 3 4 5 5 6 6 7 7 11 8 8 9 10 10 9 11 12 12 14 13
REMARK SMILES IDX 13 14
REMARK H PARENT
REMARK Flexibility Score: inf
ROOT
ATOM      1  C   UNL     1       5.319  -0.072   1.961  1.00  0.00     0.080 C 
ENDROOT
BRANCH   1   2
ATOM      2  C   UNL     1       4.445   1.121   1.784  1.00  0.00     0.130 C 
ATOM      3  C   UNL     1       4.728   2.150   0.748  1.00  0.00     0.087 C 
ATOM      4  O   UNL     1       3.464   1.290   2.491  1.00  0.00    -0.300 OA
ENDBRANCH   1   2
BRANCH   1   5
ATOM      5  C   UNL     1       6.786   0.306   1.896  1.00  0.00     0.043 C 
BRANCH   5   6
ATOM      6  C   UNL     1       7.388  -0.059   0.602  1.00  0.00    -0.044 A 
ATOM      7  C   UNL     1       7.863   0.914  -0.286  1.00  0.00     0.008 A 
ATOM      8  C   UNL     1       7.493  -1.385   0.248  1.00  0.00     0.054 A 
ATOM      9  C   UNL     1       8.420   0.511  -1.486  1.00  0.00     0.051 A 
ATOM     10  C   UNL     1       8.057  -1.786  -0.967  1.00  0.00     0.166 A 
ATOM     11  C   UNL     1       8.524  -0.830  -1.841  1.00  0.00     0.165 A 
ATOM     12  O   UNL     1       8.271  -3.021  -1.541  1.00  0.00    -0.454 OA
ATOM     13  O   UNL     1       9.021  -1.505  -2.945  1.00  0.00    -0.454 OA
ATOM     14  C   UNL     1       8.963  -2.899  -2.757  1.00  0.00     0.468 C 
ENDBRANCH   5   6
ENDBRANCH   1   5
TORSDOF 3
ENDMDL
