MODEL 1
REMARK VINA RESULT:      -7.6      0.000      0.000
REMARK SMILES CC(=O)CCc1ccc2c(c1)OCO2
REMARK SMILES IDX 4 1 2 2 1 3 3 4 5 5 6 6 7 7 11 8 8 9 10 10 9 11 12 12 14 13
REMARK SMILES IDX 13 14
REMARK H PARENT
REMARK Flexibility Score: inf
ROOT
ATOM      1  C   UNL     1       5.530   1.888   1.293  1.00  0.00     0.080 C 
ENDROOT
BRANCH   1   2
ATOM      2  C   UNL     1       5.085   0.667   2.020  1.00  0.00     0.130 C 
ATOM      3  C   UNL     1       5.972  -0.517   2.175  1.00  0.00     0.087 C 
ATOM      4  O   UNL     1       3.971   0.603   2.514  1.00  0.00    -0.300 OA
ENDBRANCH   1   2
BRANCH   1   5
ATOM      5  C   UNL     1       5.400   1.713  -0.207  1.00  0.00     0.043 C 
BRANCH   5   6
ATOM      6  C   UNL     1       6.568   1.022  -0.781  1.00  0.00    -0.044 A 
ATOM      7  C   UNL     1       7.873   1.470  -0.544  1.00  0.00     0.008 A 
ATOM      8  C   UNL     1       6.384  -0.092  -1.567  1.00  0.00     0.054 A 
ATOM      9  C   UNL     1       8.931   0.781  -1.108  1.00  0.00     0.051 A 
ATOM     10  C   UNL     1       7.457  -0.786  -2.134  1.00  0.00     0.166 A 
ATOM     11  C   UNL     1       8.741  -0.345  -1.903  1.00  0.00     0.165 A 
ATOM     12  O   UNL     1       7.534  -1.902  -2.940  1.00  0.00    -0.454 OA
ATOM     13  O   UNL     1       9.589  -1.210  -2.578  1.00  0.00    -0.454 OA
ATOM     14  C   UNL     1       8.871  -2.264  -3.173  1.00  0.00     0.468 C 
ENDBRANCH   5   6
ENDBRANCH   1   5
TORSDOF 3
ENDMDL
MODEL 2
REMARK VINA RESULT:      -7.4      1.896      2.392
REMARK SMILES CC(=O)CCc1ccc2c(c1)OCO2
REMARK SMILES IDX 4 1 2 2 1 3 3 4 5 5 6 6 7 7 11 8 8 9 10 10 9 11 12 12 14 13
REMARK SMILES IDX 13 14
REMARK H PARENT
REMARK Flexibility Score: inf
ROOT
ATOM      1  C   UNL     1       5.813   1.434  -0.410  1.00  0.00     0.080 C 
ENDROOT
BRANCH   1   2
ATOM      2  C   UNL     1       5.202   1.361   0.946  1.00  0.00     0.130 C 
ATOM      3  C   UNL     1       5.619   0.332   1.936  1.00  0.00     0.087 C 
ATOM      4  O   UNL     1       4.335   2.150   1.286  1.00  0.00    -0.300 OA
ENDBRANCH   1   2
BRANCH   1   5
ATOM      5  C   UNL     1       7.307   1.179  -0.355  1.00  0.00     0.043 C 
BRANCH   5   6
ATOM      6  C   UNL     1       7.660  -0.125  -0.943  1.00  0.00    -0.044 A 
ATOM      7  C   UNL     1       7.735  -0.309  -2.329  1.00  0.00     0.008 A 
ATOM      8  C   UNL     1       7.928  -1.195  -0.119  1.00  0.00     0.054 A 
ATOM      9  C   UNL     1       8.073  -1.556  -2.823  1.00  0.00     0.051 A 
ATOM     10  C   UNL     1       8.270  -2.453  -0.624  1.00  0.00     0.166 A 
ATOM     11  C   UNL     1       8.342  -2.635  -1.987  1.00  0.00     0.165 A 
ATOM     12  O   UNL     1       8.576  -3.655  -0.022  1.00  0.00    -0.454 OA
ATOM     13  O   UNL     1       8.696  -3.959  -2.196  1.00  0.00    -0.454 OA
ATOM     14  C   UNL     1       8.943  -4.618  -0.977  1.00  0.00     0.468 C 
ENDBRANCH   5   6
ENDBRANCH   1   5
TORSDOF 3
ENDMDL
MODEL 3
REMARK VINA RESULT:      -7.2      2.052      2.631
REMARK SMILES CC(=O)CCc1ccc2c(c1)OCO2
REMARK SMILES IDX 4 1 2 2 1 3 3 4 5 5 6 6 7 7 11 8 8 9 10 10 9 11 12 12 14 13
REMARK SMILES IDX 13 14
REMARK H PARENT
REMARK Flexibility Score: inf
ROOT
ATOM      1  C   UNL     1       5.393  -0.072   2.023  1.00  0.00     0.080 C 
ENDROOT
BRANCH   1   2
ATOM      2  C   UNL     1       4.558   1.135   1.772  1.00  0.00     0.130 C 
ATOM      3  C   UNL     1       4.911   2.124   0.718  1.00  0.00     0.087 C 
ATOM      4  O   UNL     1       3.553   1.350   2.431  1.00  0.00    -0.300 OA
ENDBRANCH   1   2
BRANCH   1   5
ATOM      5  C   UNL     1       6.838   0.166   1.630  1.00  0.00     0.043 C 
BRANCH   5   6
ATOM      6  C   UNL     1       7.271  -0.748   0.558  1.00  0.00    -0.044 A 
ATOM      7  C   UNL     1       7.152  -0.402  -0.793  1.00  0.00     0.008 A 
ATOM      8  C   UNL     1       7.810  -1.972   0.883  1.00  0.00     0.054 A 
ATOM      9  C   UNL     1       7.576  -1.300  -1.755  1.00  0.00     0.051 A 
ATOM     10  C   UNL     1       8.238  -2.876  -0.094  1.00  0.00     0.166 A 
ATOM     11  C   UNL     1       8.120  -2.538  -1.424  1.00  0.00     0.165 A 
ATOM     12  O   UNL     1       8.798  -4.135  -0.029  1.00  0.00    -0.454 OA
ATOM     13  O   UNL     1       8.616  -3.606  -2.155  1.00  0.00    -0.454 OA
ATOM     14  C   UNL     1       9.139  -4.602  -1.309  1.00  0.00     0.468 C 
ENDBRANCH   5   6
ENDBRANCH   1   5
TORSDOF 3
ENDMDL
MODEL 4
REMARK VINA RESULT:      -7.1      1.246      1.462
REMARK SMILES CC(=O)CCc1ccc2c(c1)OCO2
REMARK SMILES IDX 4 1 2 2 1 3 3 4 5 5 6 6 7 7 11 8 8 9 10 10 9 11 12 12 14 13
REMARK SMILES IDX 13 14
REMARK H PARENT
REMARK Flexibility Score: inf
ROOT
ATOM      1  C   UNL     1       6.381   1.230   0.874  1.00  0.00     0.080 C 
ENDROOT
BRANCH   1   2
ATOM      2  C   UNL     1       5.692   0.406   1.906  1.00  0.00     0.130 C 
ATOM      3  C   UNL     1       6.336  -0.793   2.506  1.00  0.00     0.087 C 
ATOM      4  O   UNL     1       4.570   0.693   2.291  1.00  0.00    -0.300 OA
ENDBRANCH   1   2
BRANCH   1   5
ATOM      5  C   UNL     1       5.870   0.911  -0.517  1.00  0.00     0.043 C 
BRANCH   5   6
ATOM      6  C   UNL     1       6.830   0.091  -1.277  1.00  0.00    -0.044 A 
ATOM      7  C   UNL     1       7.548   0.617  -2.357  1.00  0.00     0.008 A 
ATOM      8  C   UNL     1       7.035  -1.223  -0.923  1.00  0.00     0.054 A 
ATOM      9  C   UNL     1       8.437  -0.200  -3.033  1.00  0.00     0.051 A 
ATOM     10  C   UNL     1       7.935  -2.044  -1.609  1.00  0.00     0.166 A 
ATOM     11  C   UNL     1       8.641  -1.528  -2.673  1.00  0.00     0.165 A 
ATOM     12  O   UNL     1       8.311  -3.362  -1.455  1.00  0.00    -0.454 OA
ATOM     13  O   UNL     1       9.445  -2.550  -3.154  1.00  0.00    -0.454 OA
ATOM     14  C   UNL     1       9.333  -3.703  -2.355  1.00  0.00     0.468 C 
ENDBRANCH   5   6
ENDBRANCH   1   5
TORSDOF 3
ENDMDL
MODEL 5
REMARK VINA RESULT:      -6.8      1.184      5.176
REMARK SMILES CC(=O)CCc1ccc2c(c1)OCO2
REMARK SMILES IDX 4 1 2 2 1 3 3 4 5 5 6 6 7 7 11 8 8 9 10 10 9 11 12 12 14 13
REMARK SMILES IDX 13 14
REMARK H PARENT
REMARK Flexibility Score: inf
ROOT
ATOM      1  C   UNL     1       8.331   0.214  -2.623  1.00  0.00     0.080 C 
ENDROOT
BRANCH   1   2
ATOM      2  C   UNL     1       8.029  -1.240  -2.738  1.00  0.00     0.130 C 
ATOM      3  C   UNL     1       9.090  -2.236  -3.047  1.00  0.00     0.087 C 
ATOM      4  O   UNL     1       6.893  -1.659  -2.580  1.00  0.00    -0.300 OA
ENDBRANCH   1   2
BRANCH   1   5
ATOM      5  C   UNL     1       8.853   0.561  -1.243  1.00  0.00     0.043 C 
BRANCH   5   6
ATOM      6  C   UNL     1       7.808   0.421  -0.213  1.00  0.00    -0.044 A 
ATOM      7  C   UNL     1       7.901  -0.542   0.799  1.00  0.00     0.008 A 
ATOM      8  C   UNL     1       6.712   1.253  -0.234  1.00  0.00     0.054 A 
ATOM      9  C   UNL     1       6.891  -0.627   1.739  1.00  0.00     0.051 A 
ATOM     10  C   UNL     1       5.694   1.164   0.719  1.00  0.00     0.166 A 
ATOM     11  C   UNL     1       5.784   0.216   1.714  1.00  0.00     0.165 A 
ATOM     12  O   UNL     1       4.521   1.864   0.910  1.00  0.00    -0.454 OA
ATOM     13  O   UNL     1       4.653   0.355   2.504  1.00  0.00    -0.454 OA
ATOM     14  C   UNL     1       3.871   1.447   2.083  1.00  0.00     0.468 C 
ENDBRANCH   5   6
ENDBRANCH   1   5
TORSDOF 3
ENDMDL
