@<TRIPOS>MOLECULE
/home/cewinharhar/GITHUB/reincatalyze/data/processed/docking_pred/2023-May-25-1902_sub9_nm5_bs15_s42_ex16_mel10_mts10000_k50_ec01_g099_lra3e-4_lrc3e-3/ca2511eb0ea692a115cf18c67ef7ccdfaa736476_ligand_9.pdbqt
 14 15 0 0 0
SMALL
GASTEIGER

@<TRIPOS>ATOM
      1  C          8.3310    0.2140   -2.6230 C.3     1  UNL1        0.0800
      2  C          8.0290   -1.2400   -2.7380 C.2     1  UNL1        0.1300
      3  C          9.0900   -2.2360   -3.0470 C.3     1  UNL1        0.0870
      4  O          6.8930   -1.6590   -2.5800 O.2     1  UNL1       -0.3000
      5  C          8.8530    0.5610   -1.2430 C.3     1  UNL1        0.0430
      6  C          7.8080    0.4210   -0.2130 C.2     1  UNL1       -0.0440
      7  C          7.9010   -0.5420    0.7990 C.2     1  UNL1        0.0080
      8  C          6.7120    1.2530   -0.2340 C.2     1  UNL1        0.0540
      9  C          6.8910   -0.6270    1.7390 C.2     1  UNL1        0.0510
     10  C          5.6940    1.1640    0.7190 C.2     1  UNL1        0.1660
     11  C          5.7840    0.2160    1.7140 C.2     1  UNL1        0.1650
     12  O          4.5210    1.8640    0.9100 O.2     1  UNL1       -0.4540
     13  O          4.6530    0.3550    2.5040 O.2     1  UNL1       -0.4540
     14  C          3.8710    1.4470    2.0830 C.3     1  UNL1        0.4680
@<TRIPOS>BOND
     1     3     2    1
     2     2     1    1
     3     2     4    2
     4     1     5    1
     5     5     6    1
     6     8     6    2
     7     8    10    1
     8     6     7    1
     9    10    12    1
    10    10    11    2
    11     7     9    2
    12    12    14    1
    13    11     9    1
    14    11    13    1
    15    14    13    1
