@<TRIPOS>MOLECULE
/home/cewinharhar/GITHUB/reincatalyze/data/processed/docking_pred/2023-May-25-1902_sub9_nm5_bs15_s42_ex16_mel10_mts10000_k50_ec01_g099_lra3e-4_lrc3e-3/ca2511eb0ea692a115cf18c67ef7ccdfaa736476_ligand_9.pdbqt
 14 15 0 0 0
SMALL
GASTEIGER

@<TRIPOS>ATOM
      1  C          5.3930   -0.0720    2.0230 C.3     1  UNL1        0.0800
      2  C          4.5580    1.1350    1.7720 C.2     1  UNL1        0.1300
      3  C          4.9110    2.1240    0.7180 C.3     1  UNL1        0.0870
      4  O          3.5530    1.3500    2.4310 O.2     1  UNL1       -0.3000
      5  C          6.8380    0.1660    1.6300 C.3     1  UNL1        0.0430
      6  C          7.2710   -0.7480    0.5580 C.2     1  UNL1       -0.0440
      7  C          7.1520   -0.4020   -0.7930 C.2     1  UNL1        0.0080
      8  C          7.8100   -1.9720    0.8830 C.2     1  UNL1        0.0540
      9  C          7.5760   -1.3000   -1.7550 C.2     1  UNL1        0.0510
     10  C          8.2380   -2.8760   -0.0940 C.2     1  UNL1        0.1660
     11  C          8.1200   -2.5380   -1.4240 C.2     1  UNL1        0.1650
     12  O          8.7980   -4.1350   -0.0290 O.2     1  UNL1       -0.4540
     13  O          8.6160   -3.6060   -2.1550 O.2     1  UNL1       -0.4540
     14  C          9.1390   -4.6020   -1.3090 C.3     1  UNL1        0.4680
@<TRIPOS>BOND
     1    13    11    1
     2    13    14    1
     3     9    11    2
     4     9     7    1
     5    11    10    1
     6    14    12    1
     7     7     6    2
     8    10    12    1
     9    10     8    2
    10     6     8    1
    11     6     5    1
    12     3     2    1
    13     5     1    1
    14     2     1    1
    15     2     4    2
