@<TRIPOS>MOLECULE
/home/cewinharhar/GITHUB/reincatalyze/data/processed/docking_pred/2023-May-25-1902_sub9_nm5_bs15_s42_ex16_mel10_mts10000_k50_ec01_g099_lra3e-4_lrc3e-3/ca2511eb0ea692a115cf18c67ef7ccdfaa736476_ligand_9.pdbqt
 14 15 0 0 0
SMALL
GASTEIGER

@<TRIPOS>ATOM
      1  C          6.3810    1.2300    0.8740 C.3     1  UNL1        0.0800
      2  C          5.6920    0.4060    1.9060 C.2     1  UNL1        0.1300
      3  C          6.3360   -0.7930    2.5060 C.3     1  UNL1        0.0870
      4  O          4.5700    0.6930    2.2910 O.2     1  UNL1       -0.3000
      5  C          5.8700    0.9110   -0.5170 C.3     1  UNL1        0.0430
      6  C          6.8300    0.0910   -1.2770 C.2     1  UNL1       -0.0440
      7  C          7.5480    0.6170   -2.3570 C.2     1  UNL1        0.0080
      8  C          7.0350   -1.2230   -0.9230 C.2     1  UNL1        0.0540
      9  C          8.4370   -0.2000   -3.0330 C.2     1  UNL1        0.0510
     10  C          7.9350   -2.0440   -1.6090 C.2     1  UNL1        0.1660
     11  C          8.6410   -1.5280   -2.6730 C.2     1  UNL1        0.1650
     12  O          8.3110   -3.3620   -1.4550 O.2     1  UNL1       -0.4540
     13  O          9.4450   -2.5500   -3.1540 O.2     1  UNL1       -0.4540
     14  C          9.3330   -3.7030   -2.3550 C.3     1  UNL1        0.4680
@<TRIPOS>BOND
     1    13    11    1
     2    13    14    1
     3     9    11    2
     4     9     7    1
     5    11    10    1
     6     7     6    2
     7    14    12    1
     8    10    12    1
     9    10     8    2
    10     6     8    1
    11     6     5    1
    12     5     1    1
    13     1     2    1
    14     2     4    2
    15     2     3    1
