@<TRIPOS>MOLECULE
/home/cewinharhar/GITHUB/reincatalyze/data/processed/docking_pred/2023-May-25-1902_sub9_nm5_bs15_s42_ex16_mel10_mts10000_k50_ec01_g099_lra3e-4_lrc3e-3/ca2511eb0ea692a115cf18c67ef7ccdfaa736476_ligand_9.pdbqt
 14 15 0 0 0
SMALL
GASTEIGER

@<TRIPOS>ATOM
      1  C          5.5300    1.8880    1.2930 C.3     1  UNL1        0.0800
      2  C          5.0850    0.6670    2.0200 C.2     1  UNL1        0.1300
      3  C          5.9720   -0.5170    2.1750 C.3     1  UNL1        0.0870
      4  O          3.9710    0.6030    2.5140 O.2     1  UNL1       -0.3000
      5  C          5.4000    1.7130   -0.2070 C.3     1  UNL1        0.0430
      6  C          6.5680    1.0220   -0.7810 C.2     1  UNL1       -0.0440
      7  C          7.8730    1.4700   -0.5440 C.2     1  UNL1        0.0080
      8  C          6.3840   -0.0920   -1.5670 C.2     1  UNL1        0.0540
      9  C          8.9310    0.7810   -1.1080 C.2     1  UNL1        0.0510
     10  C          7.4570   -0.7860   -2.1340 C.2     1  UNL1        0.1660
     11  C          8.7410   -0.3450   -1.9030 C.2     1  UNL1        0.1650
     12  O          7.5340   -1.9020   -2.9400 O.2     1  UNL1       -0.4540
     13  O          9.5890   -1.2100   -2.5780 O.2     1  UNL1       -0.4540
     14  C          8.8710   -2.2640   -3.1730 C.3     1  UNL1        0.4680
@<TRIPOS>BOND
     1    14    12    1
     2    14    13    1
     3    12    10    1
     4    13    11    1
     5    10    11    2
     6    10     8    1
     7    11     9    1
     8     8     6    2
     9     9     7    2
    10     6     7    1
    11     6     5    1
    12     5     1    1
    13     1     2    1
    14     2     3    1
    15     2     4    2
