@<TRIPOS>MOLECULE
/home/cewinharhar/GITHUB/reincatalyze/data/processed/docking_pred/2023-May-25-1902_sub9_nm5_bs15_s42_ex16_mel10_mts10000_k50_ec01_g099_lra3e-4_lrc3e-3/cb79d4b49cb2e7af28552c4e2a37cc688e9725fc_ligand_9.pdbqt
 14 15 0 0 0
SMALL
GASTEIGER

@<TRIPOS>ATOM
      1  C          5.4460   -0.0340    2.0430 C.3     1  UNL1        0.0800
      2  C          4.5690    1.1400    1.7740 C.2     1  UNL1        0.1300
      3  C          4.8900    2.1260    0.7080 C.3     1  UNL1        0.0870
      4  O          3.5540    1.3260    2.4250 O.2     1  UNL1       -0.3000
      5  C          6.8710    0.2300    1.5970 C.3     1  UNL1        0.0430
      6  C          7.2910   -0.7010    0.5340 C.2     1  UNL1       -0.0440
      7  C          7.1690   -0.3690   -0.8200 C.2     1  UNL1        0.0080
      8  C          7.8200   -1.9260    0.8700 C.2     1  UNL1        0.0540
      9  C          7.5820   -1.2820   -1.7740 C.2     1  UNL1        0.0510
     10  C          8.2350   -2.8450   -0.0980 C.2     1  UNL1        0.1660
     11  C          8.1150   -2.5210   -1.4310 C.2     1  UNL1        0.1650
     12  O          8.7830   -4.1080   -0.0210 O.2     1  UNL1       -0.4540
     13  O          8.5980   -3.6020   -2.1520 O.2     1  UNL1       -0.4540
     14  C          9.1150   -4.5930   -1.2960 C.3     1  UNL1        0.4680
@<TRIPOS>BOND
     1    13    11    1
     2    13    14    1
     3     9    11    2
     4     9     7    1
     5    11    10    1
     6    14    12    1
     7     7     6    2
     8    10    12    1
     9    10     8    2
    10     6     8    1
    11     6     5    1
    12     3     2    1
    13     5     1    1
    14     2     1    1
    15     2     4    2
