@<TRIPOS>MOLECULE
/home/cewinharhar/GITHUB/reincatalyze/data/processed/docking_pred/2023-May-25-1902_sub9_nm5_bs15_s42_ex16_mel10_mts10000_k50_ec01_g099_lra3e-4_lrc3e-3/cc4a81c85f0f72a0e9860fd8246284f5ccc1e781_ligand_9.pdbqt
 14 15 0 0 0
SMALL
GASTEIGER

@<TRIPOS>ATOM
      1  C          8.2400    0.1800   -2.6760 C.3     1  UNL1        0.0800
      2  C          8.0030   -1.2880   -2.7590 C.2     1  UNL1        0.1300
      3  C          9.1080   -2.2430   -3.0370 C.3     1  UNL1        0.0870
      4  O          6.8850   -1.7520   -2.6010 O.2     1  UNL1       -0.3000
      5  C          8.7800    0.5740   -1.3160 C.3     1  UNL1        0.0430
      6  C          7.7620    0.4310   -0.2600 C.2     1  UNL1       -0.0440
      7  C          7.8490   -0.5730    0.7110 C.2     1  UNL1        0.0080
      8  C          6.6960    1.3000   -0.2180 C.2     1  UNL1        0.0540
      9  C          6.8630   -0.6590    1.6770 C.2     1  UNL1        0.0510
     10  C          5.7020    1.2100    0.7610 C.2     1  UNL1        0.1660
     11  C          5.7870    0.2210    1.7170 C.2     1  UNL1        0.1650
     12  O          4.5610    1.9410    1.0130 O.2     1  UNL1       -0.4540
     13  O          4.6850    0.3690    2.5450 O.2     1  UNL1       -0.4540
     14  C          3.9300    1.5030    2.1890 C.3     1  UNL1        0.4680
@<TRIPOS>BOND
     1     3     2    1
     2     2     1    1
     3     2     4    2
     4     1     5    1
     5     5     6    1
     6     6     8    2
     7     6     7    1
     8     8    10    1
     9     7     9    2
    10    10    12    1
    11    10    11    2
    12    12    14    1
    13     9    11    1
    14    11    13    1
    15    14    13    1
