@<TRIPOS>MOLECULE
/home/cewinharhar/GITHUB/reincatalyze/data/processed/docking_pred/2023-May-25-1902_sub9_nm5_bs15_s42_ex16_mel10_mts10000_k50_ec01_g099_lra3e-4_lrc3e-3/cc4a81c85f0f72a0e9860fd8246284f5ccc1e781_ligand_9.pdbqt
 14 15 0 0 0
SMALL
GASTEIGER

@<TRIPOS>ATOM
      1  C          5.3980    1.4400    0.3390 C.3     1  UNL1        0.0800
      2  C          5.2160    1.2600    1.8060 C.2     1  UNL1        0.1300
      3  C          6.3560    0.9160    2.6970 C.3     1  UNL1        0.0870
      4  O          4.1180    1.3890    2.3220 O.2     1  UNL1       -0.3000
      5  C          6.8670    1.4550   -0.0360 C.3     1  UNL1        0.0430
      6  C          7.2760    0.2000   -0.6930 C.2     1  UNL1       -0.0440
      7  C          7.2780    0.0690   -2.0860 C.2     1  UNL1        0.0080
      8  C          7.6700   -0.8730    0.0730 C.2     1  UNL1        0.0540
      9  C          7.6720   -1.1320   -2.6460 C.2     1  UNL1        0.0510
     10  C          8.0690   -2.0850   -0.4980 C.2     1  UNL1        0.1660
     11  C          8.0700   -2.2160   -1.8690 C.2     1  UNL1        0.1650
     12  O          8.4970   -3.2810    0.0390 O.2     1  UNL1       -0.4540
     13  O          8.5040   -3.5020   -2.1490 O.2     1  UNL1       -0.4540
     14  C          8.8720   -4.1820   -0.9720 C.3     1  UNL1        0.4680
@<TRIPOS>BOND
     1     9     7    1
     2     9    11    2
     3    13    11    1
     4    13    14    1
     5     7     6    2
     6    11    10    1
     7    14    12    1
     8     6     5    1
     9     6     8    1
    10    10    12    1
    11    10     8    2
    12     5     1    1
    13     1     2    1
    14     2     4    2
    15     2     3    1
