@<TRIPOS>MOLECULE
/home/cewinharhar/GITHUB/reincatalyze/data/processed/docking_pred/2023-May-25-1902_sub9_nm5_bs15_s42_ex16_mel10_mts10000_k50_ec01_g099_lra3e-4_lrc3e-3/cc4a81c85f0f72a0e9860fd8246284f5ccc1e781_ligand_9.pdbqt
 14 15 0 0 0
SMALL
GASTEIGER

@<TRIPOS>ATOM
      1  C          5.0280    0.7980    1.5290 C.3     1  UNL1        0.0800
      2  C          6.0890    0.1860    2.3760 C.2     1  UNL1        0.1300
      3  C          6.4270   -1.2600    2.2810 C.3     1  UNL1        0.0870
      4  O          6.7160    0.8580    3.1790 O.2     1  UNL1       -0.3000
      5  C          5.6230    1.7200    0.4830 C.3     1  UNL1        0.0430
      6  C          6.6810    1.0520   -0.2960 C.2     1  UNL1       -0.0440
      7  C          7.9980    1.5250   -0.3000 C.2     1  UNL1        0.0080
      8  C          6.3780   -0.0660   -1.0400 C.2     1  UNL1        0.0540
      9  C          8.9490    0.8570   -1.0500 C.2     1  UNL1        0.0510
     10  C          7.3430   -0.7390   -1.7950 C.2     1  UNL1        0.1660
     11  C          8.6390   -0.2730   -1.8000 C.2     1  UNL1        0.1650
     12  O          7.2930   -1.8530   -2.6050 O.2     1  UNL1       -0.4540
     13  O          9.3660   -1.1210   -2.6210 O.2     1  UNL1       -0.4540
     14  C          8.5720   -2.1890   -3.0790 C.3     1  UNL1        0.4680
@<TRIPOS>BOND
     1    14    13    1
     2    14    12    1
     3    13    11    1
     4    12    10    1
     5    11    10    2
     6    11     9    1
     7    10     8    1
     8     9     7    2
     9     8     6    2
    10     7     6    1
    11     6     5    1
    12     5     1    1
    13     1     2    1
    14     3     2    1
    15     2     4    2
