@<TRIPOS>MOLECULE
/home/cewinharhar/GITHUB/reincatalyze/data/processed/docking_pred/2023-May-25-1902_sub9_nm5_bs15_s42_ex16_mel10_mts10000_k50_ec01_g099_lra3e-4_lrc3e-3/cc4a81c85f0f72a0e9860fd8246284f5ccc1e781_ligand_9.pdbqt
 14 15 0 0 0
SMALL
GASTEIGER

@<TRIPOS>ATOM
      1  C          5.4890    2.1500    1.2440 C.3     1  UNL1        0.0800
      2  C          4.8070    1.0760    2.0190 C.2     1  UNL1        0.1300
      3  C          5.3670   -0.2990    2.1090 C.3     1  UNL1        0.0870
      4  O          3.7600    1.2960    2.6070 O.2     1  UNL1       -0.3000
      5  C          5.3660    1.9150   -0.2480 C.3     1  UNL1        0.0430
      6  C          6.5240    1.1760   -0.7820 C.2     1  UNL1       -0.0440
      7  C          7.8370    1.5670   -0.4980 C.2     1  UNL1        0.0080
      8  C          6.3210    0.0720   -1.5790 C.2     1  UNL1        0.0540
      9  C          8.8850    0.8350   -1.0270 C.2     1  UNL1        0.0510
     10  C          7.3830   -0.6650   -2.1100 C.2     1  UNL1        0.1660
     11  C          8.6760   -0.2800   -1.8320 C.2     1  UNL1        0.1650
     12  O          7.4410   -1.7810   -2.9170 O.2     1  UNL1       -0.4540
     13  O          9.5090   -1.1780   -2.4800 O.2     1  UNL1       -0.4540
     14  C          8.7690   -2.1990   -3.1050 C.3     1  UNL1        0.4680
@<TRIPOS>BOND
     1    14    12    1
     2    14    13    1
     3    12    10    1
     4    13    11    1
     5    10    11    2
     6    10     8    1
     7    11     9    1
     8     8     6    2
     9     9     7    2
    10     6     7    1
    11     6     5    1
    12     5     1    1
    13     1     2    1
    14     2     3    1
    15     2     4    2
