MODEL 1
REMARK VINA RESULT:      -7.9      0.000      0.000
REMARK SMILES CC(=O)CCc1ccc2c(c1)OCO2
REMARK SMILES IDX 4 1 2 2 1 3 3 4 5 5 6 6 7 7 11 8 8 9 10 10 9 11 12 12 14 13
REMARK SMILES IDX 13 14
REMARK H PARENT
REMARK Flexibility Score: inf
ROOT
ATOM      1  C   UNL     1       5.489   2.150   1.244  1.00  0.00     0.080 C 
ENDROOT
BRANCH   1   2
ATOM      2  C   UNL     1       4.807   1.076   2.019  1.00  0.00     0.130 C 
ATOM      3  C   UNL     1       5.367  -0.299   2.109  1.00  0.00     0.087 C 
ATOM      4  O   UNL     1       3.760   1.296   2.607  1.00  0.00    -0.300 OA
ENDBRANCH   1   2
BRANCH   1   5
ATOM      5  C   UNL     1       5.366   1.915  -0.248  1.00  0.00     0.043 C 
BRANCH   5   6
ATOM      6  C   UNL     1       6.524   1.176  -0.782  1.00  0.00    -0.044 A 
ATOM      7  C   UNL     1       7.837   1.567  -0.498  1.00  0.00     0.008 A 
ATOM      8  C   UNL     1       6.321   0.072  -1.579  1.00  0.00     0.054 A 
ATOM      9  C   UNL     1       8.885   0.835  -1.027  1.00  0.00     0.051 A 
ATOM     10  C   UNL     1       7.383  -0.665  -2.110  1.00  0.00     0.166 A 
ATOM     11  C   UNL     1       8.676  -0.280  -1.832  1.00  0.00     0.165 A 
ATOM     12  O   UNL     1       7.441  -1.781  -2.917  1.00  0.00    -0.454 OA
ATOM     13  O   UNL     1       9.509  -1.178  -2.480  1.00  0.00    -0.454 OA
ATOM     14  C   UNL     1       8.769  -2.199  -3.105  1.00  0.00     0.468 C 
ENDBRANCH   5   6
ENDBRANCH   1   5
TORSDOF 3
ENDMDL
MODEL 2
REMARK VINA RESULT:      -7.4      2.112      2.583
REMARK SMILES CC(=O)CCc1ccc2c(c1)OCO2
REMARK SMILES IDX 4 1 2 2 1 3 3 4 5 5 6 6 7 7 11 8 8 9 10 10 9 11 12 12 14 13
REMARK SMILES IDX 13 14
REMARK H PARENT
REMARK Flexibility Score: inf
ROOT
ATOM      1  C   UNL     1       5.595   0.144   2.173  1.00  0.00     0.080 C 
ENDROOT
BRANCH   1   2
ATOM      2  C   UNL     1       4.639   1.245   1.870  1.00  0.00     0.130 C 
ATOM      3  C   UNL     1       4.834   2.150   0.706  1.00  0.00     0.087 C 
ATOM      4  O   UNL     1       3.660   1.437   2.574  1.00  0.00    -0.300 OA
ENDBRANCH   1   2
BRANCH   1   5
ATOM      5  C   UNL     1       6.970   0.437   1.606  1.00  0.00     0.043 C 
BRANCH   5   6
ATOM      6  C   UNL     1       7.343  -0.525   0.553  1.00  0.00    -0.044 A 
ATOM      7  C   UNL     1       7.203  -0.217  -0.805  1.00  0.00     0.008 A 
ATOM      8  C   UNL     1       7.844  -1.759   0.903  1.00  0.00     0.054 A 
ATOM      9  C   UNL     1       7.570  -1.159  -1.748  1.00  0.00     0.051 A 
ATOM     10  C   UNL     1       8.215  -2.708  -0.055  1.00  0.00     0.166 A 
ATOM     11  C   UNL     1       8.076  -2.405  -1.391  1.00  0.00     0.165 A 
ATOM     12  O   UNL     1       8.729  -3.983   0.037  1.00  0.00    -0.454 OA
ATOM     13  O   UNL     1       8.514  -3.513  -2.100  1.00  0.00    -0.454 OA
ATOM     14  C   UNL     1       9.022  -4.502  -1.236  1.00  0.00     0.468 C 
ENDBRANCH   5   6
ENDBRANCH   1   5
TORSDOF 3
ENDMDL
MODEL 3
REMARK VINA RESULT:      -7.3      1.777      2.129
REMARK SMILES CC(=O)CCc1ccc2c(c1)OCO2
REMARK SMILES IDX 4 1 2 2 1 3 3 4 5 5 6 6 7 7 11 8 8 9 10 10 9 11 12 12 14 13
REMARK SMILES IDX 13 14
REMARK H PARENT
REMARK Flexibility Score: inf
ROOT
ATOM      1  C   UNL     1       5.398   1.440   0.339  1.00  0.00     0.080 C 
ENDROOT
BRANCH   1   2
ATOM      2  C   UNL     1       5.216   1.260   1.806  1.00  0.00     0.130 C 
ATOM      3  C   UNL     1       6.356   0.916   2.697  1.00  0.00     0.087 C 
ATOM      4  O   UNL     1       4.118   1.389   2.322  1.00  0.00    -0.300 OA
ENDBRANCH   1   2
BRANCH   1   5
ATOM      5  C   UNL     1       6.867   1.455  -0.036  1.00  0.00     0.043 C 
BRANCH   5   6
ATOM      6  C   UNL     1       7.276   0.200  -0.693  1.00  0.00    -0.044 A 
ATOM      7  C   UNL     1       7.278   0.069  -2.086  1.00  0.00     0.008 A 
ATOM      8  C   UNL     1       7.670  -0.873   0.073  1.00  0.00     0.054 A 
ATOM      9  C   UNL     1       7.672  -1.132  -2.646  1.00  0.00     0.051 A 
ATOM     10  C   UNL     1       8.069  -2.085  -0.498  1.00  0.00     0.166 A 
ATOM     11  C   UNL     1       8.070  -2.216  -1.869  1.00  0.00     0.165 A 
ATOM     12  O   UNL     1       8.497  -3.281   0.039  1.00  0.00    -0.454 OA
ATOM     13  O   UNL     1       8.504  -3.502  -2.149  1.00  0.00    -0.454 OA
ATOM     14  C   UNL     1       8.872  -4.182  -0.972  1.00  0.00     0.468 C 
ENDBRANCH   5   6
ENDBRANCH   1   5
TORSDOF 3
ENDMDL
MODEL 4
REMARK VINA RESULT:      -7.2      1.005      1.122
REMARK SMILES CC(=O)CCc1ccc2c(c1)OCO2
REMARK SMILES IDX 4 1 2 2 1 3 3 4 5 5 6 6 7 7 11 8 8 9 10 10 9 11 12 12 14 13
REMARK SMILES IDX 13 14
REMARK H PARENT
REMARK Flexibility Score: inf
ROOT
ATOM      1  C   UNL     1       5.028   0.798   1.529  1.00  0.00     0.080 C 
ENDROOT
BRANCH   1   2
ATOM      2  C   UNL     1       6.089   0.186   2.376  1.00  0.00     0.130 C 
ATOM      3  C   UNL     1       6.427  -1.260   2.281  1.00  0.00     0.087 C 
ATOM      4  O   UNL     1       6.716   0.858   3.179  1.00  0.00    -0.300 OA
ENDBRANCH   1   2
BRANCH   1   5
ATOM      5  C   UNL     1       5.623   1.720   0.483  1.00  0.00     0.043 C 
BRANCH   5   6
ATOM      6  C   UNL     1       6.681   1.052  -0.296  1.00  0.00    -0.044 A 
ATOM      7  C   UNL     1       7.998   1.525  -0.300  1.00  0.00     0.008 A 
ATOM      8  C   UNL     1       6.378  -0.066  -1.040  1.00  0.00     0.054 A 
ATOM      9  C   UNL     1       8.949   0.857  -1.050  1.00  0.00     0.051 A 
ATOM     10  C   UNL     1       7.343  -0.739  -1.795  1.00  0.00     0.166 A 
ATOM     11  C   UNL     1       8.639  -0.273  -1.800  1.00  0.00     0.165 A 
ATOM     12  O   UNL     1       7.293  -1.853  -2.605  1.00  0.00    -0.454 OA
ATOM     13  O   UNL     1       9.366  -1.121  -2.621  1.00  0.00    -0.454 OA
ATOM     14  C   UNL     1       8.572  -2.189  -3.079  1.00  0.00     0.468 C 
ENDBRANCH   5   6
ENDBRANCH   1   5
TORSDOF 3
ENDMDL
MODEL 5
REMARK VINA RESULT:      -7.1      1.237      5.247
REMARK SMILES CC(=O)CCc1ccc2c(c1)OCO2
REMARK SMILES IDX 4 1 2 2 1 3 3 4 5 5 6 6 7 7 11 8 8 9 10 10 9 11 12 12 14 13
REMARK SMILES IDX 13 14
REMARK H PARENT
REMARK Flexibility Score: inf
ROOT
ATOM      1  C   UNL     1       8.240   0.180  -2.676  1.00  0.00     0.080 C 
ENDROOT
BRANCH   1   2
ATOM      2  C   UNL     1       8.003  -1.288  -2.759  1.00  0.00     0.130 C 
ATOM      3  C   UNL     1       9.108  -2.243  -3.037  1.00  0.00     0.087 C 
ATOM      4  O   UNL     1       6.885  -1.752  -2.601  1.00  0.00    -0.300 OA
ENDBRANCH   1   2
BRANCH   1   5
ATOM      5  C   UNL     1       8.780   0.574  -1.316  1.00  0.00     0.043 C 
BRANCH   5   6
ATOM      6  C   UNL     1       7.762   0.431  -0.260  1.00  0.00    -0.044 A 
ATOM      7  C   UNL     1       7.849  -0.573   0.711  1.00  0.00     0.008 A 
ATOM      8  C   UNL     1       6.696   1.300  -0.218  1.00  0.00     0.054 A 
ATOM      9  C   UNL     1       6.863  -0.659   1.677  1.00  0.00     0.051 A 
ATOM     10  C   UNL     1       5.702   1.210   0.761  1.00  0.00     0.166 A 
ATOM     11  C   UNL     1       5.787   0.221   1.717  1.00  0.00     0.165 A 
ATOM     12  O   UNL     1       4.561   1.941   1.013  1.00  0.00    -0.454 OA
ATOM     13  O   UNL     1       4.685   0.369   2.545  1.00  0.00    -0.454 OA
ATOM     14  C   UNL     1       3.930   1.503   2.189  1.00  0.00     0.468 C 
ENDBRANCH   5   6
ENDBRANCH   1   5
TORSDOF 3
ENDMDL
