@<TRIPOS>MOLECULE
/home/cewinharhar/GITHUB/reincatalyze/data/processed/docking_pred/2023-May-25-1902_sub9_nm5_bs15_s42_ex16_mel10_mts10000_k50_ec01_g099_lra3e-4_lrc3e-3/cf36f354a35629e8f67fe5763b2daf9f978d0e2b_ligand_9.pdbqt
 14 15 0 0 0
SMALL
GASTEIGER

@<TRIPOS>ATOM
      1  C          5.4630   -0.0150    2.0180 C.3     1  UNL1        0.0800
      2  C          4.5820    1.1570    1.7580 C.2     1  UNL1        0.1300
      3  C          4.8900    2.1450    0.6900 C.3     1  UNL1        0.0870
      4  O          3.5740    1.3420    2.4210 O.2     1  UNL1       -0.3000
      5  C          6.8840    0.2520    1.5600 C.3     1  UNL1        0.0430
      6  C          7.3020   -0.6830    0.5000 C.2     1  UNL1       -0.0440
      7  C          7.1800   -0.3570   -0.8550 C.2     1  UNL1        0.0080
      8  C          7.8280   -1.9080    0.8410 C.2     1  UNL1        0.0540
      9  C          7.5890   -1.2750   -1.8060 C.2     1  UNL1        0.0510
     10  C          8.2420   -2.8320   -0.1240 C.2     1  UNL1        0.1660
     11  C          8.1210   -2.5130   -1.4580 C.2     1  UNL1        0.1650
     12  O          8.7870   -4.0960   -0.0410 O.2     1  UNL1       -0.4540
     13  O          8.6010   -3.5980   -2.1750 O.2     1  UNL1       -0.4540
     14  C          9.1170   -4.5860   -1.3150 C.3     1  UNL1        0.4680
@<TRIPOS>BOND
     1    13    11    1
     2    13    14    1
     3     9    11    2
     4     9     7    1
     5    11    10    1
     6    14    12    1
     7     7     6    2
     8    10    12    1
     9    10     8    2
    10     6     8    1
    11     6     5    1
    12     3     2    1
    13     5     1    1
    14     2     1    1
    15     2     4    2
