@<TRIPOS>MOLECULE
/home/cewinharhar/GITHUB/reincatalyze/data/processed/docking_pred/2023-May-25-1902_sub9_nm5_bs15_s42_ex16_mel10_mts10000_k50_ec01_g099_lra3e-4_lrc3e-3/cf36f354a35629e8f67fe5763b2daf9f978d0e2b_ligand_9.pdbqt
 14 15 0 0 0
SMALL
GASTEIGER

@<TRIPOS>ATOM
      1  C          5.8160    1.0980   -0.3630 C.3     1  UNL1        0.0800
      2  C          5.3270    1.1340    1.0430 C.2     1  UNL1        0.1300
      3  C          5.4100   -0.0590    1.9290 C.3     1  UNL1        0.0870
      4  O          4.8410    2.1500    1.5120 O.2     1  UNL1       -0.3000
      5  C          7.3270    0.9800   -0.4180 C.3     1  UNL1        0.0430
      6  C          7.7530   -0.3050   -1.0010 C.2     1  UNL1       -0.0440
      7  C          7.9770   -0.4490   -2.3750 C.2     1  UNL1        0.0080
      8  C          7.9410   -1.3960   -0.1830 C.2     1  UNL1        0.0540
      9  C          8.3770   -1.6790   -2.8640 C.2     1  UNL1        0.0510
     10  C          8.3460   -2.6370   -0.6820 C.2     1  UNL1        0.1660
     11  C          8.5660   -2.7800   -2.0340 C.2     1  UNL1        0.1650
     12  O          8.5970   -3.8540   -0.0850 O.2     1  UNL1       -0.4540
     13  O          8.9520   -4.0950   -2.2410 O.2     1  UNL1       -0.4540
     14  C          9.0730   -4.7870   -1.0210 C.3     1  UNL1        0.4680
@<TRIPOS>BOND
     1     9     7    1
     2     9    11    2
     3     7     6    2
     4    13    11    1
     5    13    14    1
     6    11    10    1
     7    14    12    1
     8     6     5    1
     9     6     8    1
    10    10     8    2
    11    10    12    1
    12     5     1    1
    13     1     2    1
    14     2     4    2
    15     2     3    1
