MODEL 1
REMARK VINA RESULT:      -7.6      0.000      0.000
REMARK SMILES CC(=O)CCc1ccc2c(c1)OCO2
REMARK SMILES IDX 4 1 2 2 1 3 3 4 5 5 6 6 7 7 11 8 8 9 10 10 9 11 12 12 14 13
REMARK SMILES IDX 13 14
REMARK H PARENT
REMARK Flexibility Score: inf
ROOT
ATOM      1  C   UNL     1       5.524   1.920   1.261  1.00  0.00     0.080 C 
ENDROOT
BRANCH   1   2
ATOM      2  C   UNL     1       5.084   0.703   1.999  1.00  0.00     0.130 C 
ATOM      3  C   UNL     1       5.980  -0.472   2.171  1.00  0.00     0.087 C 
ATOM      4  O   UNL     1       3.968   0.636   2.488  1.00  0.00    -0.300 OA
ENDBRANCH   1   2
BRANCH   1   5
ATOM      5  C   UNL     1       5.396   1.730  -0.238  1.00  0.00     0.043 C 
BRANCH   5   6
ATOM      6  C   UNL     1       6.564   1.029  -0.801  1.00  0.00    -0.044 A 
ATOM      7  C   UNL     1       7.871   1.462  -0.548  1.00  0.00     0.008 A 
ATOM      8  C   UNL     1       6.377  -0.080  -1.595  1.00  0.00     0.054 A 
ATOM      9  C   UNL     1       8.928   0.765  -1.104  1.00  0.00     0.051 A 
ATOM     10  C   UNL     1       7.449  -0.782  -2.153  1.00  0.00     0.166 A 
ATOM     11  C   UNL     1       8.735  -0.356  -1.906  1.00  0.00     0.165 A 
ATOM     12  O   UNL     1       7.523  -1.895  -2.963  1.00  0.00    -0.454 OA
ATOM     13  O   UNL     1       9.581  -1.226  -2.575  1.00  0.00    -0.454 OA
ATOM     14  C   UNL     1       8.859  -2.270  -3.183  1.00  0.00     0.468 C 
ENDBRANCH   5   6
ENDBRANCH   1   5
TORSDOF 3
ENDMDL
MODEL 2
REMARK VINA RESULT:      -7.3      1.954      2.458
REMARK SMILES CC(=O)CCc1ccc2c(c1)OCO2
REMARK SMILES IDX 4 1 2 2 1 3 3 4 5 5 6 6 7 7 11 8 8 9 10 10 9 11 12 12 14 13
REMARK SMILES IDX 13 14
REMARK H PARENT
REMARK Flexibility Score: inf
ROOT
ATOM      1  C   UNL     1       5.816   1.098  -0.363  1.00  0.00     0.080 C 
ENDROOT
BRANCH   1   2
ATOM      2  C   UNL     1       5.327   1.134   1.043  1.00  0.00     0.130 C 
ATOM      3  C   UNL     1       5.410  -0.059   1.929  1.00  0.00     0.087 C 
ATOM      4  O   UNL     1       4.841   2.150   1.512  1.00  0.00    -0.300 OA
ENDBRANCH   1   2
BRANCH   1   5
ATOM      5  C   UNL     1       7.327   0.980  -0.418  1.00  0.00     0.043 C 
BRANCH   5   6
ATOM      6  C   UNL     1       7.753  -0.305  -1.001  1.00  0.00    -0.044 A 
ATOM      7  C   UNL     1       7.977  -0.449  -2.375  1.00  0.00     0.008 A 
ATOM      8  C   UNL     1       7.941  -1.396  -0.183  1.00  0.00     0.054 A 
ATOM      9  C   UNL     1       8.377  -1.679  -2.864  1.00  0.00     0.051 A 
ATOM     10  C   UNL     1       8.346  -2.637  -0.682  1.00  0.00     0.166 A 
ATOM     11  C   UNL     1       8.566  -2.780  -2.034  1.00  0.00     0.165 A 
ATOM     12  O   UNL     1       8.597  -3.854  -0.085  1.00  0.00    -0.454 OA
ATOM     13  O   UNL     1       8.952  -4.095  -2.241  1.00  0.00    -0.454 OA
ATOM     14  C   UNL     1       9.073  -4.787  -1.021  1.00  0.00     0.468 C 
ENDBRANCH   5   6
ENDBRANCH   1   5
TORSDOF 3
ENDMDL
MODEL 3
REMARK VINA RESULT:      -7.2      2.049      2.606
REMARK SMILES CC(=O)CCc1ccc2c(c1)OCO2
REMARK SMILES IDX 4 1 2 2 1 3 3 4 5 5 6 6 7 7 11 8 8 9 10 10 9 11 12 12 14 13
REMARK SMILES IDX 13 14
REMARK H PARENT
REMARK Flexibility Score: inf
ROOT
ATOM      1  C   UNL     1       5.463  -0.015   2.018  1.00  0.00     0.080 C 
ENDROOT
BRANCH   1   2
ATOM      2  C   UNL     1       4.582   1.157   1.758  1.00  0.00     0.130 C 
ATOM      3  C   UNL     1       4.890   2.145   0.690  1.00  0.00     0.087 C 
ATOM      4  O   UNL     1       3.574   1.342   2.421  1.00  0.00    -0.300 OA
ENDBRANCH   1   2
BRANCH   1   5
ATOM      5  C   UNL     1       6.884   0.252   1.560  1.00  0.00     0.043 C 
BRANCH   5   6
ATOM      6  C   UNL     1       7.302  -0.683   0.500  1.00  0.00    -0.044 A 
ATOM      7  C   UNL     1       7.180  -0.357  -0.855  1.00  0.00     0.008 A 
ATOM      8  C   UNL     1       7.828  -1.908   0.841  1.00  0.00     0.054 A 
ATOM      9  C   UNL     1       7.589  -1.275  -1.806  1.00  0.00     0.051 A 
ATOM     10  C   UNL     1       8.242  -2.832  -0.124  1.00  0.00     0.166 A 
ATOM     11  C   UNL     1       8.121  -2.513  -1.458  1.00  0.00     0.165 A 
ATOM     12  O   UNL     1       8.787  -4.096  -0.041  1.00  0.00    -0.454 OA
ATOM     13  O   UNL     1       8.601  -3.598  -2.175  1.00  0.00    -0.454 OA
ATOM     14  C   UNL     1       9.117  -4.586  -1.315  1.00  0.00     0.468 C 
ENDBRANCH   5   6
ENDBRANCH   1   5
TORSDOF 3
ENDMDL
MODEL 4
REMARK VINA RESULT:      -7.1      1.259      1.473
REMARK SMILES CC(=O)CCc1ccc2c(c1)OCO2
REMARK SMILES IDX 4 1 2 2 1 3 3 4 5 5 6 6 7 7 11 8 8 9 10 10 9 11 12 12 14 13
REMARK SMILES IDX 13 14
REMARK H PARENT
REMARK Flexibility Score: inf
ROOT
ATOM      1  C   UNL     1       6.392   1.222   0.916  1.00  0.00     0.080 C 
ENDROOT
BRANCH   1   2
ATOM      2  C   UNL     1       5.682   0.380   1.919  1.00  0.00     0.130 C 
ATOM      3  C   UNL     1       6.305  -0.842   2.494  1.00  0.00     0.087 C 
ATOM      4  O   UNL     1       4.560   0.672   2.300  1.00  0.00    -0.300 OA
ENDBRANCH   1   2
BRANCH   1   5
ATOM      5  C   UNL     1       5.888   0.949  -0.488  1.00  0.00     0.043 C 
BRANCH   5   6
ATOM      6  C   UNL     1       6.829   0.114  -1.254  1.00  0.00    -0.044 A 
ATOM      7  C   UNL     1       7.519   0.616  -2.364  1.00  0.00     0.008 A 
ATOM      8  C   UNL     1       7.045  -1.192  -0.878  1.00  0.00     0.054 A 
ATOM      9  C   UNL     1       8.391  -0.214  -3.044  1.00  0.00     0.051 A 
ATOM     10  C   UNL     1       7.927  -2.028  -1.569  1.00  0.00     0.166 A 
ATOM     11  C   UNL     1       8.606  -1.535  -2.661  1.00  0.00     0.165 A 
ATOM     12  O   UNL     1       8.308  -3.342  -1.396  1.00  0.00    -0.454 OA
ATOM     13  O   UNL     1       9.397  -2.567  -3.140  1.00  0.00    -0.454 OA
ATOM     14  C   UNL     1       9.308  -3.702  -2.314  1.00  0.00     0.468 C 
ENDBRANCH   5   6
ENDBRANCH   1   5
TORSDOF 3
ENDMDL
MODEL 5
REMARK VINA RESULT:      -7.0      1.989      2.577
REMARK SMILES CC(=O)CCc1ccc2c(c1)OCO2
REMARK SMILES IDX 4 1 2 2 1 3 3 4 5 5 6 6 7 7 11 8 8 9 10 10 9 11 12 12 14 13
REMARK SMILES IDX 13 14
REMARK H PARENT
REMARK Flexibility Score: inf
ROOT
ATOM      1  C   UNL     1       6.986   0.845   1.175  1.00  0.00     0.080 C 
ENDROOT
BRANCH   1   2
ATOM      2  C   UNL     1       5.548   1.122   1.451  1.00  0.00     0.130 C 
ATOM      3  C   UNL     1       4.788   2.142   0.681  1.00  0.00     0.087 C 
ATOM      4  O   UNL     1       4.950   0.516   2.326  1.00  0.00    -0.300 OA
ENDBRANCH   1   2
BRANCH   1   5
ATOM      5  C   UNL     1       7.297   0.976  -0.303  1.00  0.00     0.043 C 
BRANCH   5   6
ATOM      6  C   UNL     1       7.672  -0.319  -0.899  1.00  0.00    -0.044 A 
ATOM      7  C   UNL     1       7.742  -0.494  -2.286  1.00  0.00     0.008 A 
ATOM      8  C   UNL     1       7.964  -1.387  -0.082  1.00  0.00     0.054 A 
ATOM      9  C   UNL     1       8.100  -1.732  -2.788  1.00  0.00     0.051 A 
ATOM     10  C   UNL     1       8.326  -2.636  -0.595  1.00  0.00     0.166 A 
ATOM     11  C   UNL     1       8.394  -2.810  -1.959  1.00  0.00     0.165 A 
ATOM     12  O   UNL     1       8.658  -3.835  -0.001  1.00  0.00    -0.454 OA
ATOM     13  O   UNL     1       8.772  -4.126  -2.177  1.00  0.00    -0.454 OA
ATOM     14  C   UNL     1       9.037  -4.786  -0.963  1.00  0.00     0.468 C 
ENDBRANCH   5   6
ENDBRANCH   1   5
TORSDOF 3
ENDMDL
