@<TRIPOS>MOLECULE
/home/cewinharhar/GITHUB/reincatalyze/data/processed/docking_pred/2023-May-25-1902_sub9_nm5_bs15_s42_ex16_mel10_mts10000_k50_ec01_g099_lra3e-4_lrc3e-3/cf36f354a35629e8f67fe5763b2daf9f978d0e2b_ligand_9.pdbqt
 14 15 0 0 0
SMALL
GASTEIGER

@<TRIPOS>ATOM
      1  C          6.9860    0.8450    1.1750 C.3     1  UNL1        0.0800
      2  C          5.5480    1.1220    1.4510 C.2     1  UNL1        0.1300
      3  C          4.7880    2.1420    0.6810 C.3     1  UNL1        0.0870
      4  O          4.9500    0.5160    2.3260 O.2     1  UNL1       -0.3000
      5  C          7.2970    0.9760   -0.3030 C.3     1  UNL1        0.0430
      6  C          7.6720   -0.3190   -0.8990 C.2     1  UNL1       -0.0440
      7  C          7.7420   -0.4940   -2.2860 C.2     1  UNL1        0.0080
      8  C          7.9640   -1.3870   -0.0820 C.2     1  UNL1        0.0540
      9  C          8.1000   -1.7320   -2.7880 C.2     1  UNL1        0.0510
     10  C          8.3260   -2.6360   -0.5950 C.2     1  UNL1        0.1660
     11  C          8.3940   -2.8100   -1.9590 C.2     1  UNL1        0.1650
     12  O          8.6580   -3.8350   -0.0010 O.2     1  UNL1       -0.4540
     13  O          8.7720   -4.1260   -2.1770 O.2     1  UNL1       -0.4540
     14  C          9.0370   -4.7860   -0.9630 C.3     1  UNL1        0.4680
@<TRIPOS>BOND
     1     9     7    1
     2     9    11    2
     3     7     6    2
     4    13    11    1
     5    13    14    1
     6    11    10    1
     7    14    12    1
     8     6     5    1
     9     6     8    1
    10    10     8    2
    11    10    12    1
    12     5     1    1
    13     3     2    1
    14     1     2    1
    15     2     4    2
