@<TRIPOS>MOLECULE
/home/cewinharhar/GITHUB/reincatalyze/data/processed/docking_pred/2023-May-25-1902_sub9_nm5_bs15_s42_ex16_mel10_mts10000_k50_ec01_g099_lra3e-4_lrc3e-3/cf36f354a35629e8f67fe5763b2daf9f978d0e2b_ligand_9.pdbqt
 14 15 0 0 0
SMALL
GASTEIGER

@<TRIPOS>ATOM
      1  C          6.3920    1.2220    0.9160 C.3     1  UNL1        0.0800
      2  C          5.6820    0.3800    1.9190 C.2     1  UNL1        0.1300
      3  C          6.3050   -0.8420    2.4940 C.3     1  UNL1        0.0870
      4  O          4.5600    0.6720    2.3000 O.2     1  UNL1       -0.3000
      5  C          5.8880    0.9490   -0.4880 C.3     1  UNL1        0.0430
      6  C          6.8290    0.1140   -1.2540 C.2     1  UNL1       -0.0440
      7  C          7.5190    0.6160   -2.3640 C.2     1  UNL1        0.0080
      8  C          7.0450   -1.1920   -0.8780 C.2     1  UNL1        0.0540
      9  C          8.3910   -0.2140   -3.0440 C.2     1  UNL1        0.0510
     10  C          7.9270   -2.0280   -1.5690 C.2     1  UNL1        0.1660
     11  C          8.6060   -1.5350   -2.6610 C.2     1  UNL1        0.1650
     12  O          8.3080   -3.3420   -1.3960 O.2     1  UNL1       -0.4540
     13  O          9.3970   -2.5670   -3.1400 O.2     1  UNL1       -0.4540
     14  C          9.3080   -3.7020   -2.3140 C.3     1  UNL1        0.4680
@<TRIPOS>BOND
     1    13    11    1
     2    13    14    1
     3     9    11    2
     4     9     7    1
     5    11    10    1
     6     7     6    2
     7    14    12    1
     8    10    12    1
     9    10     8    2
    10     6     8    1
    11     6     5    1
    12     5     1    1
    13     1     2    1
    14     2     4    2
    15     2     3    1
