@<TRIPOS>MOLECULE
/home/cewinharhar/GITHUB/reincatalyze/data/processed/docking_pred/2023-May-25-1902_sub9_nm5_bs15_s42_ex16_mel10_mts10000_k50_ec01_g099_lra3e-4_lrc3e-3/cf36f354a35629e8f67fe5763b2daf9f978d0e2b_ligand_9.pdbqt
 14 15 0 0 0
SMALL
GASTEIGER

@<TRIPOS>ATOM
      1  C          5.5240    1.9200    1.2610 C.3     1  UNL1        0.0800
      2  C          5.0840    0.7030    1.9990 C.2     1  UNL1        0.1300
      3  C          5.9800   -0.4720    2.1710 C.3     1  UNL1        0.0870
      4  O          3.9680    0.6360    2.4880 O.2     1  UNL1       -0.3000
      5  C          5.3960    1.7300   -0.2380 C.3     1  UNL1        0.0430
      6  C          6.5640    1.0290   -0.8010 C.2     1  UNL1       -0.0440
      7  C          7.8710    1.4620   -0.5480 C.2     1  UNL1        0.0080
      8  C          6.3770   -0.0800   -1.5950 C.2     1  UNL1        0.0540
      9  C          8.9280    0.7650   -1.1040 C.2     1  UNL1        0.0510
     10  C          7.4490   -0.7820   -2.1530 C.2     1  UNL1        0.1660
     11  C          8.7350   -0.3560   -1.9060 C.2     1  UNL1        0.1650
     12  O          7.5230   -1.8950   -2.9630 O.2     1  UNL1       -0.4540
     13  O          9.5810   -1.2260   -2.5750 O.2     1  UNL1       -0.4540
     14  C          8.8590   -2.2700   -3.1830 C.3     1  UNL1        0.4680
@<TRIPOS>BOND
     1    14    12    1
     2    14    13    1
     3    12    10    1
     4    13    11    1
     5    10    11    2
     6    10     8    1
     7    11     9    1
     8     8     6    2
     9     9     7    2
    10     6     7    1
    11     6     5    1
    12     5     1    1
    13     1     2    1
    14     2     3    1
    15     2     4    2
