@<TRIPOS>MOLECULE
/home/cewinharhar/GITHUB/reincatalyze/data/processed/docking_pred/2023-May-25-1902_sub9_nm5_bs15_s42_ex16_mel10_mts10000_k50_ec01_g099_lra3e-4_lrc3e-3/cfcc95f4f76461c4d394d3c7424702b9c56cb13e_ligand_9.pdbqt
 14 15 0 0 0
SMALL
GASTEIGER

@<TRIPOS>ATOM
      1  C          5.6720    0.2540    2.5260 C.3     1  UNL1        0.0800
      2  C          4.5130    1.0480    2.0290 C.2     1  UNL1        0.1300
      3  C          4.5920    1.8420    0.7740 C.3     1  UNL1        0.0870
      4  O          3.4590    1.0700    2.6440 O.2     1  UNL1       -0.3000
      5  C          5.8070   -1.0530    1.7710 C.3     1  UNL1        0.0430
      6  C          6.8120   -0.9630    0.6970 C.2     1  UNL1       -0.0440
      7  C          8.0640   -0.3760    0.9120 C.2     1  UNL1        0.0080
      8  C          6.5230   -1.4660   -0.5510 C.2     1  UNL1        0.0540
      9  C          8.9670   -0.3190   -0.1340 C.2     1  UNL1        0.0510
     10  C          7.4400   -1.4070   -1.6050 C.2     1  UNL1        0.1660
     11  C          8.6720   -0.8290   -1.3950 C.2     1  UNL1        0.1650
     12  O          7.3920   -1.8290   -2.9170 O.2     1  UNL1       -0.4540
     13  O          9.3620   -0.9090   -2.5940 O.2     1  UNL1       -0.4540
     14  C          8.6220   -1.6170   -3.5600 C.3     1  UNL1        0.4680
@<TRIPOS>BOND
     1    14    12    1
     2    14    13    1
     3    12    10    1
     4    13    11    1
     5    10    11    2
     6    10     8    1
     7    11     9    1
     8     8     6    2
     9     9     7    2
    10     6     7    1
    11     6     5    1
    12     3     2    1
    13     5     1    1
    14     2     1    1
    15     2     4    2
