@<TRIPOS>MOLECULE
/home/cewinharhar/GITHUB/reincatalyze/data/processed/docking_pred/2023-May-25-1902_sub9_nm5_bs15_s42_ex16_mel10_mts10000_k50_ec01_g099_lra3e-4_lrc3e-3/cfcc95f4f76461c4d394d3c7424702b9c56cb13e_ligand_9.pdbqt
 14 15 0 0 0
SMALL
GASTEIGER

@<TRIPOS>ATOM
      1  C          5.5770   -0.3290    2.1430 C.3     1  UNL1        0.0800
      2  C          4.5910    0.7670    1.9350 C.2     1  UNL1        0.1300
      3  C          4.7580    1.7740    0.8530 C.3     1  UNL1        0.0870
      4  O          3.6090    0.8710    2.6530 O.2     1  UNL1       -0.3000
      5  C          6.9360    0.0400    1.5820 C.3     1  UNL1        0.0430
      6  C          7.3560   -0.8850    0.5140 C.2     1  UNL1       -0.0440
      7  C          7.1990   -0.5620   -0.8390 C.2     1  UNL1        0.0080
      8  C          7.9200   -2.0960    0.8440 C.2     1  UNL1        0.0540
      9  C          7.6120   -1.4690   -1.7970 C.2     1  UNL1        0.0510
     10  C          8.3360   -3.0100   -0.1290 C.2     1  UNL1        0.1660
     11  C          8.1810   -2.6940   -1.4610 C.2     1  UNL1        0.1650
     12  O          8.9150   -4.2590   -0.0590 O.2     1  UNL1       -0.4540
     13  O          8.6730   -3.7660   -2.1870 O.2     1  UNL1       -0.4540
     14  C          9.2310   -4.7420   -1.3390 C.3     1  UNL1        0.4680
@<TRIPOS>BOND
     1    13    11    1
     2    13    14    1
     3     9    11    2
     4     9     7    1
     5    11    10    1
     6    14    12    1
     7     7     6    2
     8    10    12    1
     9    10     8    2
    10     6     8    1
    11     6     5    1
    12     3     2    1
    13     5     1    1
    14     2     1    1
    15     2     4    2
