@<TRIPOS>MOLECULE
/home/cewinharhar/GITHUB/reincatalyze/data/processed/docking_pred/2023-May-25-1902_sub9_nm5_bs15_s42_ex16_mel10_mts10000_k50_ec01_g099_lra3e-4_lrc3e-3/cfcc95f4f76461c4d394d3c7424702b9c56cb13e_ligand_9.pdbqt
 14 15 0 0 0
SMALL
GASTEIGER

@<TRIPOS>ATOM
      1  C          5.3560   -0.2490    2.3130 C.3     1  UNL1        0.0800
      2  C          4.4320    0.8790    2.0070 C.2     1  UNL1        0.1300
      3  C          4.6900    1.8160    0.8810 C.3     1  UNL1        0.0870
      4  O          3.4300    1.0670    2.6770 O.2     1  UNL1       -0.3000
      5  C          6.7880    0.1030    1.9620 C.3     1  UNL1        0.0430
      6  C          7.3230   -0.7750    0.9060 C.2     1  UNL1       -0.0440
      7  C          7.6410   -2.1150    1.1580 C.2     1  UNL1        0.0080
      8  C          7.5170   -0.2770   -0.3620 C.2     1  UNL1        0.0540
      9  C          8.1390   -2.8920    0.1280 C.2     1  UNL1        0.0510
     10  C          8.0200   -1.0670   -1.4010 C.2     1  UNL1        0.1660
     11  C          8.3340   -2.3850   -1.1530 C.2     1  UNL1        0.1650
     12  O          8.2990   -0.8100   -2.7260 O.2     1  UNL1       -0.4540
     13  O          8.8030   -2.9150   -2.3450 O.2     1  UNL1       -0.4540
     14  C          8.7130   -1.9770   -3.3900 C.3     1  UNL1        0.4680
@<TRIPOS>BOND
     1    14    12    1
     2    14    13    1
     3    12    10    1
     4    13    11    1
     5    10    11    2
     6    10     8    1
     7    11     9    1
     8     8     6    2
     9     9     7    2
    10     3     2    1
    11     6     7    1
    12     6     5    1
    13     5     1    1
    14     2     1    1
    15     2     4    2
