@<TRIPOS>MOLECULE
/home/cewinharhar/GITHUB/reincatalyze/data/processed/docking_pred/2023-May-25-1902_sub9_nm5_bs15_s42_ex16_mel10_mts10000_k50_ec01_g099_lra3e-4_lrc3e-3/cfcc95f4f76461c4d394d3c7424702b9c56cb13e_ligand_9.pdbqt
 14 15 0 0 0
SMALL
GASTEIGER

@<TRIPOS>ATOM
      1  C          8.7420   -3.9080   -0.3830 C.3     1  UNL1        0.0800
      2  C          9.2790   -4.7910   -1.4550 C.2     1  UNL1        0.1300
      3  C          8.9280   -6.2350   -1.5260 C.3     1  UNL1        0.0870
      4  O         10.0290   -4.3520   -2.3120 O.2     1  UNL1       -0.3000
      5  C          8.3000   -2.5700   -0.9420 C.3     1  UNL1        0.0430
      6  C          7.4630   -1.8260    0.0160 C.2     1  UNL1       -0.0440
      7  C          7.3940   -2.1910    1.3660 C.2     1  UNL1        0.0080
      8  C          6.7300   -0.7440   -0.4140 C.2     1  UNL1        0.0540
      9  C          6.5920   -1.4550    2.2190 C.2     1  UNL1        0.0510
     10  C          5.9210   -0.0030    0.4530 C.2     1  UNL1        0.1660
     11  C          5.8520   -0.3620    1.7800 C.2     1  UNL1        0.1650
     12  O          5.1080    1.0960    0.2710 O.2     1  UNL1       -0.4540
     13  O          4.9900    0.5340    2.3930 O.2     1  UNL1       -0.4540
     14  C          4.5660    1.5290    1.4920 C.3     1  UNL1        0.4680
@<TRIPOS>BOND
     1     4     2    2
     2     3     2    1
     3     2     1    1
     4     5     1    1
     5     5     6    1
     6     8     6    2
     7     8    10    1
     8     6     7    1
     9    12    10    1
    10    12    14    1
    11    10    11    2
    12     7     9    2
    13    14    13    1
    14    11     9    1
    15    11    13    1
