MODEL 1
REMARK VINA RESULT:      -6.8      0.000      0.000
REMARK SMILES CC(=O)CCc1ccc2c(c1)OCO2
REMARK SMILES IDX 4 1 2 2 1 3 3 4 5 5 6 6 7 7 11 8 8 9 10 10 9 11 12 12 14 13
REMARK SMILES IDX 13 14
REMARK H PARENT
REMARK Flexibility Score: inf
ROOT
ATOM      1  C   UNL     1       5.577  -0.329   2.143  1.00  0.00     0.080 C 
ENDROOT
BRANCH   1   2
ATOM      2  C   UNL     1       4.591   0.767   1.935  1.00  0.00     0.130 C 
ATOM      3  C   UNL     1       4.758   1.774   0.853  1.00  0.00     0.087 C 
ATOM      4  O   UNL     1       3.609   0.871   2.653  1.00  0.00    -0.300 OA
ENDBRANCH   1   2
BRANCH   1   5
ATOM      5  C   UNL     1       6.936   0.040   1.582  1.00  0.00     0.043 C 
BRANCH   5   6
ATOM      6  C   UNL     1       7.356  -0.885   0.514  1.00  0.00    -0.044 A 
ATOM      7  C   UNL     1       7.199  -0.562  -0.839  1.00  0.00     0.008 A 
ATOM      8  C   UNL     1       7.920  -2.096   0.844  1.00  0.00     0.054 A 
ATOM      9  C   UNL     1       7.612  -1.469  -1.797  1.00  0.00     0.051 A 
ATOM     10  C   UNL     1       8.336  -3.010  -0.129  1.00  0.00     0.166 A 
ATOM     11  C   UNL     1       8.181  -2.694  -1.461  1.00  0.00     0.165 A 
ATOM     12  O   UNL     1       8.915  -4.259  -0.059  1.00  0.00    -0.454 OA
ATOM     13  O   UNL     1       8.673  -3.766  -2.187  1.00  0.00    -0.454 OA
ATOM     14  C   UNL     1       9.231  -4.742  -1.339  1.00  0.00     0.468 C 
ENDBRANCH   5   6
ENDBRANCH   1   5
TORSDOF 3
ENDMDL
MODEL 2
REMARK VINA RESULT:      -6.0      1.074      2.001
REMARK SMILES CC(=O)CCc1ccc2c(c1)OCO2
REMARK SMILES IDX 4 1 2 2 1 3 3 4 5 5 6 6 7 7 11 8 8 9 10 10 9 11 12 12 14 13
REMARK SMILES IDX 13 14
REMARK H PARENT
REMARK Flexibility Score: inf
ROOT
ATOM      1  C   UNL     1       5.356  -0.249   2.313  1.00  0.00     0.080 C 
ENDROOT
BRANCH   1   2
ATOM      2  C   UNL     1       4.432   0.879   2.007  1.00  0.00     0.130 C 
ATOM      3  C   UNL     1       4.690   1.816   0.881  1.00  0.00     0.087 C 
ATOM      4  O   UNL     1       3.430   1.067   2.677  1.00  0.00    -0.300 OA
ENDBRANCH   1   2
BRANCH   1   5
ATOM      5  C   UNL     1       6.788   0.103   1.962  1.00  0.00     0.043 C 
BRANCH   5   6
ATOM      6  C   UNL     1       7.323  -0.775   0.906  1.00  0.00    -0.044 A 
ATOM      7  C   UNL     1       7.641  -2.115   1.158  1.00  0.00     0.008 A 
ATOM      8  C   UNL     1       7.517  -0.277  -0.362  1.00  0.00     0.054 A 
ATOM      9  C   UNL     1       8.139  -2.892   0.128  1.00  0.00     0.051 A 
ATOM     10  C   UNL     1       8.020  -1.067  -1.401  1.00  0.00     0.166 A 
ATOM     11  C   UNL     1       8.334  -2.385  -1.153  1.00  0.00     0.165 A 
ATOM     12  O   UNL     1       8.299  -0.810  -2.726  1.00  0.00    -0.454 OA
ATOM     13  O   UNL     1       8.803  -2.915  -2.345  1.00  0.00    -0.454 OA
ATOM     14  C   UNL     1       8.713  -1.977  -3.390  1.00  0.00     0.468 C 
ENDBRANCH   5   6
ENDBRANCH   1   5
TORSDOF 3
ENDMDL
MODEL 3
REMARK VINA RESULT:      -6.0      1.289      6.104
REMARK SMILES CC(=O)CCc1ccc2c(c1)OCO2
REMARK SMILES IDX 4 1 2 2 1 3 3 4 5 5 6 6 7 7 11 8 8 9 10 10 9 11 12 12 14 13
REMARK SMILES IDX 13 14
REMARK H PARENT
REMARK Flexibility Score: inf
ROOT
ATOM      1  C   UNL     1       8.742  -3.908  -0.383  1.00  0.00     0.080 C 
ENDROOT
BRANCH   1   2
ATOM      2  C   UNL     1       9.279  -4.791  -1.455  1.00  0.00     0.130 C 
ATOM      3  C   UNL     1       8.928  -6.235  -1.526  1.00  0.00     0.087 C 
ATOM      4  O   UNL     1      10.029  -4.352  -2.312  1.00  0.00    -0.300 OA
ENDBRANCH   1   2
BRANCH   1   5
ATOM      5  C   UNL     1       8.300  -2.570  -0.942  1.00  0.00     0.043 C 
BRANCH   5   6
ATOM      6  C   UNL     1       7.463  -1.826   0.016  1.00  0.00    -0.044 A 
ATOM      7  C   UNL     1       7.394  -2.191   1.366  1.00  0.00     0.008 A 
ATOM      8  C   UNL     1       6.730  -0.744  -0.414  1.00  0.00     0.054 A 
ATOM      9  C   UNL     1       6.592  -1.455   2.219  1.00  0.00     0.051 A 
ATOM     10  C   UNL     1       5.921  -0.003   0.453  1.00  0.00     0.166 A 
ATOM     11  C   UNL     1       5.852  -0.362   1.780  1.00  0.00     0.165 A 
ATOM     12  O   UNL     1       5.108   1.096   0.271  1.00  0.00    -0.454 OA
ATOM     13  O   UNL     1       4.990   0.534   2.393  1.00  0.00    -0.454 OA
ATOM     14  C   UNL     1       4.566   1.529   1.492  1.00  0.00     0.468 C 
ENDBRANCH   5   6
ENDBRANCH   1   5
TORSDOF 3
ENDMDL
MODEL 4
REMARK VINA RESULT:      -5.9      1.868      5.447
REMARK SMILES CC(=O)CCc1ccc2c(c1)OCO2
REMARK SMILES IDX 4 1 2 2 1 3 3 4 5 5 6 6 7 7 11 8 8 9 10 10 9 11 12 12 14 13
REMARK SMILES IDX 13 14
REMARK H PARENT
REMARK Flexibility Score: inf
ROOT
ATOM      1  C   UNL     1       7.986  -1.785  -2.386  1.00  0.00     0.080 C 
ENDROOT
BRANCH   1   2
ATOM      2  C   UNL     1       8.727  -0.498  -2.502  1.00  0.00     0.130 C 
ATOM      3  C   UNL     1       8.160   0.666  -3.234  1.00  0.00     0.087 C 
ATOM      4  O   UNL     1       9.829  -0.361  -1.996  1.00  0.00    -0.300 OA
ENDBRANCH   1   2
BRANCH   1   5
ATOM      5  C   UNL     1       8.149  -2.391  -1.006  1.00  0.00     0.043 C 
BRANCH   5   6
ATOM      6  C   UNL     1       7.330  -1.691  -0.001  1.00  0.00    -0.044 A 
ATOM      7  C   UNL     1       7.280  -2.118   1.331  1.00  0.00     0.008 A 
ATOM      8  C   UNL     1       6.594  -0.588  -0.370  1.00  0.00     0.054 A 
ATOM      9  C   UNL     1       6.494  -1.421   2.230  1.00  0.00     0.051 A 
ATOM     10  C   UNL     1       5.801   0.114   0.543  1.00  0.00     0.166 A 
ATOM     11  C   UNL     1       5.751  -0.306   1.854  1.00  0.00     0.165 A 
ATOM     12  O   UNL     1       4.989   1.223   0.426  1.00  0.00    -0.454 OA
ATOM     13  O   UNL     1       4.901   0.563   2.521  1.00  0.00    -0.454 OA
ATOM     14  C   UNL     1       4.468   1.600   1.674  1.00  0.00     0.468 C 
ENDBRANCH   5   6
ENDBRANCH   1   5
TORSDOF 3
ENDMDL
MODEL 5
REMARK VINA RESULT:      -5.8      1.914      2.190
REMARK SMILES CC(=O)CCc1ccc2c(c1)OCO2
REMARK SMILES IDX 4 1 2 2 1 3 3 4 5 5 6 6 7 7 11 8 8 9 10 10 9 11 12 12 14 13
REMARK SMILES IDX 13 14
REMARK H PARENT
REMARK Flexibility Score: inf
ROOT
ATOM      1  C   UNL     1       5.672   0.254   2.526  1.00  0.00     0.080 C 
ENDROOT
BRANCH   1   2
ATOM      2  C   UNL     1       4.513   1.048   2.029  1.00  0.00     0.130 C 
ATOM      3  C   UNL     1       4.592   1.842   0.774  1.00  0.00     0.087 C 
ATOM      4  O   UNL     1       3.459   1.070   2.644  1.00  0.00    -0.300 OA
ENDBRANCH   1   2
BRANCH   1   5
ATOM      5  C   UNL     1       5.807  -1.053   1.771  1.00  0.00     0.043 C 
BRANCH   5   6
ATOM      6  C   UNL     1       6.812  -0.963   0.697  1.00  0.00    -0.044 A 
ATOM      7  C   UNL     1       8.064  -0.376   0.912  1.00  0.00     0.008 A 
ATOM      8  C   UNL     1       6.523  -1.466  -0.551  1.00  0.00     0.054 A 
ATOM      9  C   UNL     1       8.967  -0.319  -0.134  1.00  0.00     0.051 A 
ATOM     10  C   UNL     1       7.440  -1.407  -1.605  1.00  0.00     0.166 A 
ATOM     11  C   UNL     1       8.672  -0.829  -1.395  1.00  0.00     0.165 A 
ATOM     12  O   UNL     1       7.392  -1.829  -2.917  1.00  0.00    -0.454 OA
ATOM     13  O   UNL     1       9.362  -0.909  -2.594  1.00  0.00    -0.454 OA
ATOM     14  C   UNL     1       8.622  -1.617  -3.560  1.00  0.00     0.468 C 
ENDBRANCH   5   6
ENDBRANCH   1   5
TORSDOF 3
ENDMDL
