@<TRIPOS>MOLECULE
/home/cewinharhar/GITHUB/reincatalyze/data/processed/docking_pred/2023-May-25-1902_sub9_nm5_bs15_s42_ex16_mel10_mts10000_k50_ec01_g099_lra3e-4_lrc3e-3/d0b377ce7413ba2d0a06352180e6db5bf746794c_ligand_9.pdbqt
 14 15 0 0 0
SMALL
GASTEIGER

@<TRIPOS>ATOM
      1  C          6.3790    1.1790    0.9550 C.3     1  UNL1        0.0800
      2  C          5.6490    0.3620    1.9630 C.2     1  UNL1        0.1300
      3  C          6.2470   -0.8650    2.5550 C.3     1  UNL1        0.0870
      4  O          4.5300    0.6770    2.3350 O.2     1  UNL1       -0.3000
      5  C          5.8660    0.9120   -0.4460 C.3     1  UNL1        0.0430
      6  C          6.8100    0.0910   -1.2260 C.2     1  UNL1       -0.0440
      7  C          7.4800    0.6050   -2.3420 C.2     1  UNL1        0.0080
      8  C          7.0480   -1.2130   -0.8550 C.2     1  UNL1        0.0540
      9  C          8.3550   -0.2110   -3.0350 C.2     1  UNL1        0.0510
     10  C          7.9340   -2.0340   -1.5590 C.2     1  UNL1        0.1660
     11  C          8.5930   -1.5290   -2.6580 C.2     1  UNL1        0.1650
     12  O          8.3340   -3.3430   -1.3940 O.2     1  UNL1       -0.4540
     13  O          9.3930   -2.5490   -3.1490 O.2     1  UNL1       -0.4540
     14  C          9.3280   -3.6880   -2.3240 C.3     1  UNL1        0.4680
@<TRIPOS>BOND
     1    13    11    1
     2    13    14    1
     3     9    11    2
     4     9     7    1
     5    11    10    1
     6     7     6    2
     7    14    12    1
     8    10    12    1
     9    10     8    2
    10     6     8    1
    11     6     5    1
    12     5     1    1
    13     1     2    1
    14     2     4    2
    15     2     3    1
