@<TRIPOS>MOLECULE
/home/cewinharhar/GITHUB/reincatalyze/data/processed/docking_pred/2023-May-25-1902_sub9_nm5_bs15_s42_ex16_mel10_mts10000_k50_ec01_g099_lra3e-4_lrc3e-3/d0b377ce7413ba2d0a06352180e6db5bf746794c_ligand_9.pdbqt
 14 15 0 0 0
SMALL
GASTEIGER

@<TRIPOS>ATOM
      1  C          5.7340    1.2500   -0.3010 C.3     1  UNL1        0.0800
      2  C          5.2160    1.2010    1.0940 C.2     1  UNL1        0.1300
      3  C          5.4050    0.0030    1.9560 C.3     1  UNL1        0.0870
      4  O          4.6170    2.1500    1.5740 O.2     1  UNL1       -0.3000
      5  C          7.2380    1.0620   -0.3370 C.3     1  UNL1        0.0430
      6  C          7.6120   -0.2350   -0.9290 C.2     1  UNL1       -0.0440
      7  C          7.6470   -0.4260   -2.3150 C.2     1  UNL1        0.0080
      8  C          7.9400   -1.2900   -0.1080 C.2     1  UNL1        0.0540
      9  C          8.0070   -1.6650   -2.8130 C.2     1  UNL1        0.0510
     10  C          8.3030   -2.5410   -0.6160 C.2     1  UNL1        0.1660
     11  C          8.3370   -2.7300   -1.9800 C.2     1  UNL1        0.1650
     12  O          8.6660   -3.7290   -0.0180 O.2     1  UNL1       -0.4540
     13  O          8.7240   -4.0440   -2.1930 O.2     1  UNL1       -0.4540
     14  C          9.0310   -4.6870   -0.9790 C.3     1  UNL1        0.4680
@<TRIPOS>BOND
     1     9     7    1
     2     9    11    2
     3     7     6    2
     4    13    11    1
     5    13    14    1
     6    11    10    1
     7    14    12    1
     8     6     5    1
     9     6     8    1
    10    10     8    2
    11    10    12    1
    12     5     1    1
    13     1     2    1
    14     2     4    2
    15     2     3    1
