@<TRIPOS>MOLECULE
/home/cewinharhar/GITHUB/reincatalyze/data/processed/docking_pred/2023-May-25-1902_sub9_nm5_bs15_s42_ex16_mel10_mts10000_k50_ec01_g099_lra3e-4_lrc3e-3/d18fc177cce43baae8a65556dd45e7572e61ad5e_ligand_9.pdbqt
 14 15 0 0 0
SMALL
GASTEIGER

@<TRIPOS>ATOM
      1  C          5.6690    2.1500    1.1460 C.3     1  UNL1        0.0800
      2  C          5.4420    0.9430    1.9880 C.2     1  UNL1        0.1300
      3  C          6.5530    0.0220    2.3500 C.3     1  UNL1        0.0870
      4  O          4.3280    0.6720    2.4080 O.2     1  UNL1       -0.3000
      5  C          5.4780    1.8390   -0.3250 C.3     1  UNL1        0.0430
      6  C          6.6190    1.0870   -0.8780 C.2     1  UNL1       -0.0440
      7  C          7.9380    1.5220   -0.7010 C.2     1  UNL1        0.0080
      8  C          6.3940   -0.0730   -1.5830 C.2     1  UNL1        0.0540
      9  C          8.9680    0.7750   -1.2420 C.2     1  UNL1        0.0510
     10  C          7.4400   -0.8250   -2.1270 C.2     1  UNL1        0.1660
     11  C          8.7370   -0.3970   -1.9560 C.2     1  UNL1        0.1650
     12  O          7.4760   -1.9930   -2.8580 O.2     1  UNL1       -0.4540
     13  O          9.5520   -1.3220   -2.5900 O.2     1  UNL1       -0.4540
     14  C          8.7990   -2.3980   -3.0980 C.3     1  UNL1        0.4680
@<TRIPOS>BOND
     1    14    12    1
     2    14    13    1
     3    12    10    1
     4    13    11    1
     5    10    11    2
     6    10     8    1
     7    11     9    1
     8     8     6    2
     9     9     7    2
    10     6     7    1
    11     6     5    1
    12     5     1    1
    13     1     2    1
    14     2     3    1
    15     2     4    2
