@<TRIPOS>MOLECULE
/home/cewinharhar/GITHUB/reincatalyze/data/processed/docking_pred/2023-May-25-1902_sub9_nm5_bs15_s42_ex16_mel10_mts10000_k50_ec01_g099_lra3e-4_lrc3e-3/d18fc177cce43baae8a65556dd45e7572e61ad5e_ligand_9.pdbqt
 14 15 0 0 0
SMALL
GASTEIGER

@<TRIPOS>ATOM
      1  C          6.5180    0.9460    1.0810 C.3     1  UNL1        0.0800
      2  C          5.2610    1.6680    0.7380 C.2     1  UNL1        0.1300
      3  C          4.9880    2.1490   -0.6430 C.3     1  UNL1        0.0870
      4  O          4.4130    1.8890    1.5880 O.2     1  UNL1       -0.3000
      5  C          7.5540    1.0930   -0.0160 C.3     1  UNL1        0.0430
      6  C          7.8310   -0.1920   -0.6820 C.2     1  UNL1       -0.0440
      7  C          7.8470   -0.3070   -2.0760 C.2     1  UNL1        0.0080
      8  C          8.0830   -1.3130    0.0770 C.2     1  UNL1        0.0540
      9  C          8.1140   -1.5390   -2.6450 C.2     1  UNL1        0.0510
     10  C          8.3520   -2.5560   -0.5030 C.2     1  UNL1        0.1660
     11  C          8.3680   -2.6700   -1.8760 C.2     1  UNL1        0.1650
     12  O          8.6290   -3.7990    0.0250 O.2     1  UNL1       -0.4540
     13  O          8.6580   -3.9940   -2.1650 O.2     1  UNL1       -0.4540
     14  C          8.9200   -4.7250   -0.9910 C.3     1  UNL1        0.4680
@<TRIPOS>BOND
     1     9     7    1
     2     9    11    2
     3    13    11    1
     4    13    14    1
     5     7     6    2
     6    11    10    1
     7    14    12    1
     8     6     5    1
     9     6     8    1
    10     3     2    1
    11    10    12    1
    12    10     8    2
    13     5     1    1
    14     2     1    1
    15     2     4    2
