@<TRIPOS>MOLECULE
/home/cewinharhar/GITHUB/reincatalyze/data/processed/docking_pred/2023-May-25-1902_sub9_nm5_bs15_s42_ex16_mel10_mts10000_k50_ec01_g099_lra3e-4_lrc3e-3/d18fc177cce43baae8a65556dd45e7572e61ad5e_ligand_9.pdbqt
 14 15 0 0 0
SMALL
GASTEIGER

@<TRIPOS>ATOM
      1  C          5.7120    1.2090   -0.3410 C.3     1  UNL1        0.0800
      2  C          5.3410    1.3300    1.0960 C.2     1  UNL1        0.1300
      3  C          6.0980    0.6190    2.1600 C.3     1  UNL1        0.0870
      4  O          4.3970    2.0210    1.4440 O.2     1  UNL1       -0.3000
      5  C          7.2160    1.1370   -0.5170 C.3     1  UNL1        0.0430
      6  C          7.6410   -0.1680   -1.0560 C.2     1  UNL1       -0.0440
      7  C          7.8580   -0.3600   -2.4250 C.2     1  UNL1        0.0080
      8  C          7.8340   -1.2280   -0.2000 C.2     1  UNL1        0.0540
      9  C          8.2570   -1.6060   -2.8720 C.2     1  UNL1        0.0510
     10  C          8.2380   -2.4860   -0.6570 C.2     1  UNL1        0.1660
     11  C          8.4500   -2.6770   -2.0050 C.2     1  UNL1        0.1650
     12  O          8.4930   -3.6810   -0.0180 O.2     1  UNL1       -0.4540
     13  O          8.8370   -3.9980   -2.1660 O.2     1  UNL1       -0.4540
     14  C          8.9650   -4.6460   -0.9230 C.3     1  UNL1        0.4680
@<TRIPOS>BOND
     1     9     7    1
     2     9    11    2
     3     7     6    2
     4    13    11    1
     5    13    14    1
     6    11    10    1
     7     6     5    1
     8     6     8    1
     9    14    12    1
    10    10     8    2
    11    10    12    1
    12     5     1    1
    13     1     2    1
    14     2     4    2
    15     2     3    1
