MODEL 1
REMARK VINA RESULT:      -7.3      0.000      0.000
REMARK SMILES CC(=O)CCc1ccc2c(c1)OCO2
REMARK SMILES IDX 4 1 2 2 1 3 3 4 5 5 6 6 7 7 11 8 8 9 10 10 9 11 12 12 14 13
REMARK SMILES IDX 13 14
REMARK H PARENT
REMARK Flexibility Score: inf
ROOT
ATOM      1  C   UNL     1       5.712   1.209  -0.341  1.00  0.00     0.080 C 
ENDROOT
BRANCH   1   2
ATOM      2  C   UNL     1       5.341   1.330   1.096  1.00  0.00     0.130 C 
ATOM      3  C   UNL     1       6.098   0.619   2.160  1.00  0.00     0.087 C 
ATOM      4  O   UNL     1       4.397   2.021   1.444  1.00  0.00    -0.300 OA
ENDBRANCH   1   2
BRANCH   1   5
ATOM      5  C   UNL     1       7.216   1.137  -0.517  1.00  0.00     0.043 C 
BRANCH   5   6
ATOM      6  C   UNL     1       7.641  -0.168  -1.056  1.00  0.00    -0.044 A 
ATOM      7  C   UNL     1       7.858  -0.360  -2.425  1.00  0.00     0.008 A 
ATOM      8  C   UNL     1       7.834  -1.228  -0.200  1.00  0.00     0.054 A 
ATOM      9  C   UNL     1       8.257  -1.606  -2.872  1.00  0.00     0.051 A 
ATOM     10  C   UNL     1       8.238  -2.486  -0.657  1.00  0.00     0.166 A 
ATOM     11  C   UNL     1       8.450  -2.677  -2.005  1.00  0.00     0.165 A 
ATOM     12  O   UNL     1       8.493  -3.681  -0.018  1.00  0.00    -0.454 OA
ATOM     13  O   UNL     1       8.837  -3.998  -2.166  1.00  0.00    -0.454 OA
ATOM     14  C   UNL     1       8.965  -4.646  -0.923  1.00  0.00     0.468 C 
ENDBRANCH   5   6
ENDBRANCH   1   5
TORSDOF 3
ENDMDL
MODEL 2
REMARK VINA RESULT:      -7.3      1.836      2.311
REMARK SMILES CC(=O)CCc1ccc2c(c1)OCO2
REMARK SMILES IDX 4 1 2 2 1 3 3 4 5 5 6 6 7 7 11 8 8 9 10 10 9 11 12 12 14 13
REMARK SMILES IDX 13 14
REMARK H PARENT
REMARK Flexibility Score: inf
ROOT
ATOM      1  C   UNL     1       5.669   2.150   1.146  1.00  0.00     0.080 C 
ENDROOT
BRANCH   1   2
ATOM      2  C   UNL     1       5.442   0.943   1.988  1.00  0.00     0.130 C 
ATOM      3  C   UNL     1       6.553   0.022   2.350  1.00  0.00     0.087 C 
ATOM      4  O   UNL     1       4.328   0.672   2.408  1.00  0.00    -0.300 OA
ENDBRANCH   1   2
BRANCH   1   5
ATOM      5  C   UNL     1       5.478   1.839  -0.325  1.00  0.00     0.043 C 
BRANCH   5   6
ATOM      6  C   UNL     1       6.619   1.087  -0.878  1.00  0.00    -0.044 A 
ATOM      7  C   UNL     1       7.938   1.522  -0.701  1.00  0.00     0.008 A 
ATOM      8  C   UNL     1       6.394  -0.073  -1.583  1.00  0.00     0.054 A 
ATOM      9  C   UNL     1       8.968   0.775  -1.242  1.00  0.00     0.051 A 
ATOM     10  C   UNL     1       7.440  -0.825  -2.127  1.00  0.00     0.166 A 
ATOM     11  C   UNL     1       8.737  -0.397  -1.956  1.00  0.00     0.165 A 
ATOM     12  O   UNL     1       7.476  -1.993  -2.858  1.00  0.00    -0.454 OA
ATOM     13  O   UNL     1       9.552  -1.322  -2.590  1.00  0.00    -0.454 OA
ATOM     14  C   UNL     1       8.799  -2.398  -3.098  1.00  0.00     0.468 C 
ENDBRANCH   5   6
ENDBRANCH   1   5
TORSDOF 3
ENDMDL
MODEL 3
REMARK VINA RESULT:      -7.2      0.552      1.052
REMARK SMILES CC(=O)CCc1ccc2c(c1)OCO2
REMARK SMILES IDX 4 1 2 2 1 3 3 4 5 5 6 6 7 7 11 8 8 9 10 10 9 11 12 12 14 13
REMARK SMILES IDX 13 14
REMARK H PARENT
REMARK Flexibility Score: inf
ROOT
ATOM      1  C   UNL     1       6.518   0.946   1.081  1.00  0.00     0.080 C 
ENDROOT
BRANCH   1   2
ATOM      2  C   UNL     1       5.261   1.668   0.738  1.00  0.00     0.130 C 
ATOM      3  C   UNL     1       4.988   2.149  -0.643  1.00  0.00     0.087 C 
ATOM      4  O   UNL     1       4.413   1.889   1.588  1.00  0.00    -0.300 OA
ENDBRANCH   1   2
BRANCH   1   5
ATOM      5  C   UNL     1       7.554   1.093  -0.016  1.00  0.00     0.043 C 
BRANCH   5   6
ATOM      6  C   UNL     1       7.831  -0.192  -0.682  1.00  0.00    -0.044 A 
ATOM      7  C   UNL     1       7.847  -0.307  -2.076  1.00  0.00     0.008 A 
ATOM      8  C   UNL     1       8.083  -1.313   0.077  1.00  0.00     0.054 A 
ATOM      9  C   UNL     1       8.114  -1.539  -2.645  1.00  0.00     0.051 A 
ATOM     10  C   UNL     1       8.352  -2.556  -0.503  1.00  0.00     0.166 A 
ATOM     11  C   UNL     1       8.368  -2.670  -1.876  1.00  0.00     0.165 A 
ATOM     12  O   UNL     1       8.629  -3.799   0.025  1.00  0.00    -0.454 OA
ATOM     13  O   UNL     1       8.658  -3.994  -2.165  1.00  0.00    -0.454 OA
ATOM     14  C   UNL     1       8.920  -4.725  -0.991  1.00  0.00     0.468 C 
ENDBRANCH   5   6
ENDBRANCH   1   5
TORSDOF 3
ENDMDL
MODEL 4
REMARK VINA RESULT:      -6.8      0.980      1.070
REMARK SMILES CC(=O)CCc1ccc2c(c1)OCO2
REMARK SMILES IDX 4 1 2 2 1 3 3 4 5 5 6 6 7 7 11 8 8 9 10 10 9 11 12 12 14 13
REMARK SMILES IDX 13 14
REMARK H PARENT
REMARK Flexibility Score: inf
ROOT
ATOM      1  C   UNL     1       6.595   1.510   0.419  1.00  0.00     0.080 C 
ENDROOT
BRANCH   1   2
ATOM      2  C   UNL     1       5.971   0.899   1.625  1.00  0.00     0.130 C 
ATOM      3  C   UNL     1       6.713  -0.057   2.489  1.00  0.00     0.087 C 
ATOM      4  O   UNL     1       4.823   1.168   1.940  1.00  0.00    -0.300 OA
ENDBRANCH   1   2
BRANCH   1   5
ATOM      5  C   UNL     1       6.008   0.937  -0.856  1.00  0.00     0.043 C 
BRANCH   5   6
ATOM      6  C   UNL     1       6.921  -0.027  -1.493  1.00  0.00    -0.044 A 
ATOM      7  C   UNL     1       7.602   0.280  -2.677  1.00  0.00     0.008 A 
ATOM      8  C   UNL     1       7.120  -1.262  -0.918  1.00  0.00     0.054 A 
ATOM      9  C   UNL     1       8.447  -0.664  -3.230  1.00  0.00     0.051 A 
ATOM     10  C   UNL     1       7.977  -2.213  -1.480  1.00  0.00     0.166 A 
ATOM     11  C   UNL     1       8.645  -1.912  -2.646  1.00  0.00     0.165 A 
ATOM     12  O   UNL     1       8.337  -3.490  -1.107  1.00  0.00    -0.454 OA
ATOM     13  O   UNL     1       9.411  -3.022  -2.967  1.00  0.00    -0.454 OA
ATOM     14  C   UNL     1       9.315  -4.011  -1.970  1.00  0.00     0.468 C 
ENDBRANCH   5   6
ENDBRANCH   1   5
TORSDOF 3
ENDMDL
MODEL 5
REMARK VINA RESULT:      -6.8      1.168      2.048
REMARK SMILES CC(=O)CCc1ccc2c(c1)OCO2
REMARK SMILES IDX 4 1 2 2 1 3 3 4 5 5 6 6 7 7 11 8 8 9 10 10 9 11 12 12 14 13
REMARK SMILES IDX 13 14
REMARK H PARENT
REMARK Flexibility Score: inf
ROOT
ATOM      1  C   UNL     1       7.191   1.705  -0.261  1.00  0.00     0.080 C 
ENDROOT
BRANCH   1   2
ATOM      2  C   UNL     1       6.136   1.988   0.751  1.00  0.00     0.130 C 
ATOM      3  C   UNL     1       4.707   2.145   0.367  1.00  0.00     0.087 C 
ATOM      4  O   UNL     1       6.416   2.101   1.934  1.00  0.00    -0.300 OA
ENDBRANCH   1   2
BRANCH   1   5
ATOM      5  C   UNL     1       6.782   0.570  -1.180  1.00  0.00     0.043 C 
BRANCH   5   6
ATOM      6  C   UNL     1       7.358  -0.716  -0.750  1.00  0.00    -0.044 A 
ATOM      7  C   UNL     1       7.513  -1.034   0.605  1.00  0.00     0.008 A 
ATOM      8  C   UNL     1       7.756  -1.635  -1.694  1.00  0.00     0.054 A 
ATOM      9  C   UNL     1       8.059  -2.257   0.949  1.00  0.00     0.051 A 
ATOM     10  C   UNL     1       8.307  -2.871  -1.341  1.00  0.00     0.166 A 
ATOM     11  C   UNL     1       8.460  -3.184  -0.008  1.00  0.00     0.165 A 
ATOM     12  O   UNL     1       8.773  -3.937  -2.079  1.00  0.00    -0.454 OA
ATOM     13  O   UNL     1       9.022  -4.450   0.044  1.00  0.00    -0.454 OA
ATOM     14  C   UNL     1       9.153  -5.001  -1.245  1.00  0.00     0.468 C 
ENDBRANCH   5   6
ENDBRANCH   1   5
TORSDOF 3
ENDMDL
