@<TRIPOS>MOLECULE
/home/cewinharhar/GITHUB/reincatalyze/data/processed/docking_pred/2023-May-25-1902_sub9_nm5_bs15_s42_ex16_mel10_mts10000_k50_ec01_g099_lra3e-4_lrc3e-3/d18fc177cce43baae8a65556dd45e7572e61ad5e_ligand_9.pdbqt
 14 15 0 0 0
SMALL
GASTEIGER

@<TRIPOS>ATOM
      1  C          7.1910    1.7050   -0.2610 C.3     1  UNL1        0.0800
      2  C          6.1360    1.9880    0.7510 C.2     1  UNL1        0.1300
      3  C          4.7070    2.1450    0.3670 C.3     1  UNL1        0.0870
      4  O          6.4160    2.1010    1.9340 O.2     1  UNL1       -0.3000
      5  C          6.7820    0.5700   -1.1800 C.3     1  UNL1        0.0430
      6  C          7.3580   -0.7160   -0.7500 C.2     1  UNL1       -0.0440
      7  C          7.5130   -1.0340    0.6050 C.2     1  UNL1        0.0080
      8  C          7.7560   -1.6350   -1.6940 C.2     1  UNL1        0.0540
      9  C          8.0590   -2.2570    0.9490 C.2     1  UNL1        0.0510
     10  C          8.3070   -2.8710   -1.3410 C.2     1  UNL1        0.1660
     11  C          8.4600   -3.1840   -0.0080 C.2     1  UNL1        0.1650
     12  O          8.7730   -3.9370   -2.0790 O.2     1  UNL1       -0.4540
     13  O          9.0220   -4.4500    0.0440 O.2     1  UNL1       -0.4540
     14  C          9.1530   -5.0010   -1.2450 C.3     1  UNL1        0.4680
@<TRIPOS>BOND
     1    12    10    1
     2    12    14    1
     3     8    10    1
     4     8     6    2
     5    10    11    2
     6    14    13    1
     7     5     6    1
     8     5     1    1
     9     6     7    1
    10     1     2    1
    11    11    13    1
    12    11     9    1
    13     3     2    1
    14     7     9    2
    15     2     4    2
