@<TRIPOS>MOLECULE
/home/cewinharhar/GITHUB/reincatalyze/data/processed/docking_pred/2023-May-25-1902_sub9_nm5_bs15_s42_ex16_mel10_mts10000_k50_ec01_g099_lra3e-4_lrc3e-3/d27e6afc186b75c76b7fe435f4b9560b42cd14a2_ligand_9.pdbqt
 14 15 0 0 0
SMALL
GASTEIGER

@<TRIPOS>ATOM
      1  C          8.3340    0.1650   -2.6900 C.3     1  UNL1        0.0800
      2  C          8.0790   -1.2990   -2.7850 C.2     1  UNL1        0.1300
      3  C          9.1840   -2.2730   -2.9920 C.3     1  UNL1        0.0870
      4  O          6.9460   -1.7450   -2.6960 O.2     1  UNL1       -0.3000
      5  C          8.8700    0.5430   -1.3230 C.3     1  UNL1        0.0430
      6  C          7.8390    0.4140   -0.2780 C.2     1  UNL1       -0.0440
      7  C          7.9480   -0.5350    0.7460 C.2     1  UNL1        0.0080
      8  C          6.7400    1.2410   -0.2970 C.2     1  UNL1        0.0540
      9  C          6.9510   -0.6100    1.7000 C.2     1  UNL1        0.0510
     10  C          5.7340    1.1620    0.6710 C.2     1  UNL1        0.1660
     11  C          5.8400    0.2290    1.6780 C.2     1  UNL1        0.1650
     12  O          4.5610    1.8600    0.8670 O.2     1  UNL1       -0.4540
     13  O          4.7190    0.3750    2.4800 O.2     1  UNL1       -0.4540
     14  C          3.9280    1.4580    2.0540 C.3     1  UNL1        0.4680
@<TRIPOS>BOND
     1     3     2    1
     2     2     4    2
     3     2     1    1
     4     1     5    1
     5     5     6    1
     6     8     6    2
     7     8    10    1
     8     6     7    1
     9    10    12    1
    10    10    11    2
    11     7     9    2
    12    12    14    1
    13    11     9    1
    14    11    13    1
    15    14    13    1
