@<TRIPOS>MOLECULE
/home/cewinharhar/GITHUB/reincatalyze/data/processed/docking_pred/2023-May-25-1902_sub9_nm5_bs15_s42_ex16_mel10_mts10000_k50_ec01_g099_lra3e-4_lrc3e-3/d27e6afc186b75c76b7fe435f4b9560b42cd14a2_ligand_9.pdbqt
 14 15 0 0 0
SMALL
GASTEIGER

@<TRIPOS>ATOM
      1  C          5.5290    0.0060    1.9790 C.3     1  UNL1        0.0800
      2  C          4.6520    1.1670    1.6630 C.2     1  UNL1        0.1300
      3  C          4.9850    2.1240    0.5740 C.3     1  UNL1        0.0870
      4  O          3.6270    1.3680    2.2950 O.2     1  UNL1       -0.3000
      5  C          6.9520    0.2490    1.5160 C.3     1  UNL1        0.0430
      6  C          7.3560   -0.7030    0.4660 C.2     1  UNL1       -0.0440
      7  C          7.2290   -0.3930   -0.8930 C.2     1  UNL1        0.0080
      8  C          7.8730   -1.9290    0.8200 C.2     1  UNL1        0.0540
      9  C          7.6260   -1.3260   -1.8330 C.2     1  UNL1        0.0510
     10  C          8.2730   -2.8680   -0.1350 C.2     1  UNL1        0.1660
     11  C          8.1480   -2.5650   -1.4730 C.2     1  UNL1        0.1650
     12  O          8.8080   -4.1350   -0.0400 O.2     1  UNL1       -0.4540
     13  O          8.6140   -3.6630   -2.1780 O.2     1  UNL1       -0.4540
     14  C          9.1270   -4.6450   -1.3100 C.3     1  UNL1        0.4680
@<TRIPOS>BOND
     1    13    11    1
     2    13    14    1
     3     9    11    2
     4     9     7    1
     5    11    10    1
     6    14    12    1
     7     7     6    2
     8    10    12    1
     9    10     8    2
    10     6     8    1
    11     6     5    1
    12     3     2    1
    13     5     1    1
    14     2     1    1
    15     2     4    2
