@<TRIPOS>MOLECULE
/home/cewinharhar/GITHUB/reincatalyze/data/processed/docking_pred/2023-May-25-1902_sub9_nm5_bs15_s42_ex16_mel10_mts10000_k50_ec01_g099_lra3e-4_lrc3e-3/d32515ef85c53a65d829162c3cbbbf13c46f52f9_ligand_9.pdbqt
 14 15 0 0 0
SMALL
GASTEIGER

@<TRIPOS>ATOM
      1  C          6.3770    1.2160    0.9430 C.3     1  UNL1        0.0800
      2  C          5.6510    0.3800    1.9400 C.2     1  UNL1        0.1300
      3  C          6.2600   -0.8450    2.5240 C.3     1  UNL1        0.0870
      4  O          4.5260    0.6790    2.3080 O.2     1  UNL1       -0.3000
      5  C          5.8760    0.9550   -0.4630 C.3     1  UNL1        0.0430
      6  C          6.8190    0.1240   -1.2340 C.2     1  UNL1       -0.0440
      7  C          7.5030    0.6300   -2.3450 C.2     1  UNL1        0.0080
      8  C          7.0420   -1.1810   -0.8590 C.2     1  UNL1        0.0540
      9  C          8.3770   -0.1960   -3.0280 C.2     1  UNL1        0.0510
     10  C          7.9260   -2.0120   -1.5530 C.2     1  UNL1        0.1660
     11  C          8.5990   -1.5150   -2.6470 C.2     1  UNL1        0.1650
     12  O          8.3130   -3.3250   -1.3820 O.2     1  UNL1       -0.4540
     13  O          9.3940   -2.5430   -3.1300 O.2     1  UNL1       -0.4540
     14  C          9.3120   -3.6800   -2.3030 C.3     1  UNL1        0.4680
@<TRIPOS>BOND
     1    13    11    1
     2    13    14    1
     3     9    11    2
     4     9     7    1
     5    11    10    1
     6     7     6    2
     7    14    12    1
     8    10    12    1
     9    10     8    2
    10     6     8    1
    11     6     5    1
    12     5     1    1
    13     1     2    1
    14     2     4    2
    15     2     3    1
