@<TRIPOS>MOLECULE
/home/cewinharhar/GITHUB/reincatalyze/data/processed/docking_pred/2023-May-25-1902_sub9_nm5_bs15_s42_ex16_mel10_mts10000_k50_ec01_g099_lra3e-4_lrc3e-3/d32515ef85c53a65d829162c3cbbbf13c46f52f9_ligand_9.pdbqt
 14 15 0 0 0
SMALL
GASTEIGER

@<TRIPOS>ATOM
      1  C          5.5510    1.9190    1.2830 C.3     1  UNL1        0.0800
      2  C          5.1140    0.7000    2.0170 C.2     1  UNL1        0.1300
      3  C          6.0170   -0.4690    2.1970 C.3     1  UNL1        0.0870
      4  O          3.9940    0.6240    2.4960 O.2     1  UNL1       -0.3000
      5  C          5.4180    1.7370   -0.2160 C.3     1  UNL1        0.0430
      6  C          6.5800    1.0330   -0.7870 C.2     1  UNL1       -0.0440
      7  C          7.8890    1.4640   -0.5450 C.2     1  UNL1        0.0080
      8  C          6.3850   -0.0780   -1.5760 C.2     1  UNL1        0.0540
      9  C          8.9410    0.7640   -1.1060 C.2     1  UNL1        0.0510
     10  C          7.4520   -0.7830   -2.1410 C.2     1  UNL1        0.1660
     11  C          8.7400   -0.3580   -1.9040 C.2     1  UNL1        0.1650
     12  O          7.5180   -1.8980   -2.9480 O.2     1  UNL1       -0.4540
     13  O          9.5800   -1.2320   -2.5780 O.2     1  UNL1       -0.4540
     14  C          8.8520   -2.2760   -3.1780 C.3     1  UNL1        0.4680
@<TRIPOS>BOND
     1    14    12    1
     2    14    13    1
     3    12    10    1
     4    13    11    1
     5    10    11    2
     6    10     8    1
     7    11     9    1
     8     8     6    2
     9     9     7    2
    10     6     7    1
    11     6     5    1
    12     5     1    1
    13     1     2    1
    14     2     3    1
    15     2     4    2
