MODEL 1
REMARK VINA RESULT:      -7.7      0.000      0.000
REMARK SMILES CC(=O)CCc1ccc2c(c1)OCO2
REMARK SMILES IDX 4 1 2 2 1 3 3 4 5 5 6 6 7 7 11 8 8 9 10 10 9 11 12 12 14 13
REMARK SMILES IDX 13 14
REMARK H PARENT
REMARK Flexibility Score: inf
ROOT
ATOM      1  C   UNL     1       5.551   1.919   1.283  1.00  0.00     0.080 C 
ENDROOT
BRANCH   1   2
ATOM      2  C   UNL     1       5.114   0.700   2.017  1.00  0.00     0.130 C 
ATOM      3  C   UNL     1       6.017  -0.469   2.197  1.00  0.00     0.087 C 
ATOM      4  O   UNL     1       3.994   0.624   2.496  1.00  0.00    -0.300 OA
ENDBRANCH   1   2
BRANCH   1   5
ATOM      5  C   UNL     1       5.418   1.737  -0.216  1.00  0.00     0.043 C 
BRANCH   5   6
ATOM      6  C   UNL     1       6.580   1.033  -0.787  1.00  0.00    -0.044 A 
ATOM      7  C   UNL     1       7.889   1.464  -0.545  1.00  0.00     0.008 A 
ATOM      8  C   UNL     1       6.385  -0.078  -1.576  1.00  0.00     0.054 A 
ATOM      9  C   UNL     1       8.941   0.764  -1.106  1.00  0.00     0.051 A 
ATOM     10  C   UNL     1       7.452  -0.783  -2.141  1.00  0.00     0.166 A 
ATOM     11  C   UNL     1       8.740  -0.358  -1.904  1.00  0.00     0.165 A 
ATOM     12  O   UNL     1       7.518  -1.898  -2.948  1.00  0.00    -0.454 OA
ATOM     13  O   UNL     1       9.580  -1.232  -2.578  1.00  0.00    -0.454 OA
ATOM     14  C   UNL     1       8.852  -2.276  -3.178  1.00  0.00     0.468 C 
ENDBRANCH   5   6
ENDBRANCH   1   5
TORSDOF 3
ENDMDL
MODEL 2
REMARK VINA RESULT:      -7.5      1.938      2.392
REMARK SMILES CC(=O)CCc1ccc2c(c1)OCO2
REMARK SMILES IDX 4 1 2 2 1 3 3 4 5 5 6 6 7 7 11 8 8 9 10 10 9 11 12 12 14 13
REMARK SMILES IDX 13 14
REMARK H PARENT
REMARK Flexibility Score: inf
ROOT
ATOM      1  C   UNL     1       5.735   1.340  -0.270  1.00  0.00     0.080 C 
ENDROOT
BRANCH   1   2
ATOM      2  C   UNL     1       5.116   1.258   1.082  1.00  0.00     0.130 C 
ATOM      3  C   UNL     1       5.357   0.099   1.982  1.00  0.00     0.087 C 
ATOM      4  O   UNL     1       4.387   2.147   1.492  1.00  0.00    -0.300 OA
ENDBRANCH   1   2
BRANCH   1   5
ATOM      5  C   UNL     1       7.230   1.095  -0.207  1.00  0.00     0.043 C 
BRANCH   5   6
ATOM      6  C   UNL     1       7.599  -0.193  -0.821  1.00  0.00    -0.044 A 
ATOM      7  C   UNL     1       7.643  -0.356  -2.210  1.00  0.00     0.008 A 
ATOM      8  C   UNL     1       7.911  -1.267  -0.019  1.00  0.00     0.054 A 
ATOM      9  C   UNL     1       7.997  -1.588  -2.730  1.00  0.00     0.051 A 
ATOM     10  C   UNL     1       8.268  -2.510  -0.550  1.00  0.00     0.166 A 
ATOM     11  C   UNL     1       8.311  -2.672  -1.916  1.00  0.00     0.165 A 
ATOM     12  O   UNL     1       8.616  -3.713   0.027  1.00  0.00    -0.454 OA
ATOM     13  O   UNL     1       8.690  -3.984  -2.153  1.00  0.00    -0.454 OA
ATOM     14  C   UNL     1       8.981  -4.654  -0.950  1.00  0.00     0.468 C 
ENDBRANCH   5   6
ENDBRANCH   1   5
TORSDOF 3
ENDMDL
MODEL 3
REMARK VINA RESULT:      -7.2      2.071      2.628
REMARK SMILES CC(=O)CCc1ccc2c(c1)OCO2
REMARK SMILES IDX 4 1 2 2 1 3 3 4 5 5 6 6 7 7 11 8 8 9 10 10 9 11 12 12 14 13
REMARK SMILES IDX 13 14
REMARK H PARENT
REMARK Flexibility Score: inf
ROOT
ATOM      1  C   UNL     1       5.472  -0.010   2.006  1.00  0.00     0.080 C 
ENDROOT
BRANCH   1   2
ATOM      2  C   UNL     1       4.589   1.162   1.752  1.00  0.00     0.130 C 
ATOM      3  C   UNL     1       4.887   2.146   0.678  1.00  0.00     0.087 C 
ATOM      4  O   UNL     1       3.587   1.349   2.424  1.00  0.00    -0.300 OA
ENDBRANCH   1   2
BRANCH   1   5
ATOM      5  C   UNL     1       6.888   0.256   1.535  1.00  0.00     0.043 C 
BRANCH   5   6
ATOM      6  C   UNL     1       7.305  -0.697   0.491  1.00  0.00    -0.044 A 
ATOM      7  C   UNL     1       7.180  -0.394  -0.870  1.00  0.00     0.008 A 
ATOM      8  C   UNL     1       7.834  -1.916   0.851  1.00  0.00     0.054 A 
ATOM      9  C   UNL     1       7.589  -1.327  -1.805  1.00  0.00     0.051 A 
ATOM     10  C   UNL     1       8.246  -2.855  -0.099  1.00  0.00     0.166 A 
ATOM     11  C   UNL     1       8.122  -2.559  -1.438  1.00  0.00     0.165 A 
ATOM     12  O   UNL     1       8.793  -4.117   0.004  1.00  0.00    -0.454 OA
ATOM     13  O   UNL     1       8.602  -3.655  -2.137  1.00  0.00    -0.454 OA
ATOM     14  C   UNL     1       9.121  -4.628  -1.263  1.00  0.00     0.468 C 
ENDBRANCH   5   6
ENDBRANCH   1   5
TORSDOF 3
ENDMDL
MODEL 4
REMARK VINA RESULT:      -7.1      1.249      1.454
REMARK SMILES CC(=O)CCc1ccc2c(c1)OCO2
REMARK SMILES IDX 4 1 2 2 1 3 3 4 5 5 6 6 7 7 11 8 8 9 10 10 9 11 12 12 14 13
REMARK SMILES IDX 13 14
REMARK H PARENT
REMARK Flexibility Score: inf
ROOT
ATOM      1  C   UNL     1       6.377   1.216   0.943  1.00  0.00     0.080 C 
ENDROOT
BRANCH   1   2
ATOM      2  C   UNL     1       5.651   0.380   1.940  1.00  0.00     0.130 C 
ATOM      3  C   UNL     1       6.260  -0.845   2.524  1.00  0.00     0.087 C 
ATOM      4  O   UNL     1       4.526   0.679   2.308  1.00  0.00    -0.300 OA
ENDBRANCH   1   2
BRANCH   1   5
ATOM      5  C   UNL     1       5.876   0.955  -0.463  1.00  0.00     0.043 C 
BRANCH   5   6
ATOM      6  C   UNL     1       6.819   0.124  -1.234  1.00  0.00    -0.044 A 
ATOM      7  C   UNL     1       7.503   0.630  -2.345  1.00  0.00     0.008 A 
ATOM      8  C   UNL     1       7.042  -1.181  -0.859  1.00  0.00     0.054 A 
ATOM      9  C   UNL     1       8.377  -0.196  -3.028  1.00  0.00     0.051 A 
ATOM     10  C   UNL     1       7.926  -2.012  -1.553  1.00  0.00     0.166 A 
ATOM     11  C   UNL     1       8.599  -1.515  -2.647  1.00  0.00     0.165 A 
ATOM     12  O   UNL     1       8.313  -3.325  -1.382  1.00  0.00    -0.454 OA
ATOM     13  O   UNL     1       9.394  -2.543  -3.130  1.00  0.00    -0.454 OA
ATOM     14  C   UNL     1       9.312  -3.680  -2.303  1.00  0.00     0.468 C 
ENDBRANCH   5   6
ENDBRANCH   1   5
TORSDOF 3
ENDMDL
MODEL 5
REMARK VINA RESULT:      -6.8      1.181      5.172
REMARK SMILES CC(=O)CCc1ccc2c(c1)OCO2
REMARK SMILES IDX 4 1 2 2 1 3 3 4 5 5 6 6 7 7 11 8 8 9 10 10 9 11 12 12 14 13
REMARK SMILES IDX 13 14
REMARK H PARENT
REMARK Flexibility Score: inf
ROOT
ATOM      1  C   UNL     1       8.341   0.244  -2.584  1.00  0.00     0.080 C 
ENDROOT
BRANCH   1   2
ATOM      2  C   UNL     1       8.011  -1.203  -2.705  1.00  0.00     0.130 C 
ATOM      3  C   UNL     1       9.055  -2.219  -3.011  1.00  0.00     0.087 C 
ATOM      4  O   UNL     1       6.867  -1.600  -2.557  1.00  0.00    -0.300 OA
ENDBRANCH   1   2
BRANCH   1   5
ATOM      5  C   UNL     1       8.853   0.578  -1.197  1.00  0.00     0.043 C 
BRANCH   5   6
ATOM      6  C   UNL     1       7.798   0.441  -0.177  1.00  0.00    -0.044 A 
ATOM      7  C   UNL     1       7.878  -0.522   0.835  1.00  0.00     0.008 A 
ATOM      8  C   UNL     1       6.705   1.277  -0.210  1.00  0.00     0.054 A 
ATOM      9  C   UNL     1       6.858  -0.604   1.765  1.00  0.00     0.051 A 
ATOM     10  C   UNL     1       5.677   1.191   0.734  1.00  0.00     0.166 A 
ATOM     11  C   UNL     1       5.754   0.242   1.729  1.00  0.00     0.165 A 
ATOM     12  O   UNL     1       4.505   1.894   0.913  1.00  0.00    -0.454 OA
ATOM     13  O   UNL     1       4.616   0.385   2.507  1.00  0.00    -0.454 OA
ATOM     14  C   UNL     1       3.841   1.480   2.079  1.00  0.00     0.468 C 
ENDBRANCH   5   6
ENDBRANCH   1   5
TORSDOF 3
ENDMDL
