@<TRIPOS>MOLECULE
/home/cewinharhar/GITHUB/reincatalyze/data/processed/docking_pred/2023-May-25-1902_sub9_nm5_bs15_s42_ex16_mel10_mts10000_k50_ec01_g099_lra3e-4_lrc3e-3/d32515ef85c53a65d829162c3cbbbf13c46f52f9_ligand_9.pdbqt
 14 15 0 0 0
SMALL
GASTEIGER

@<TRIPOS>ATOM
      1  C          5.4720   -0.0100    2.0060 C.3     1  UNL1        0.0800
      2  C          4.5890    1.1620    1.7520 C.2     1  UNL1        0.1300
      3  C          4.8870    2.1460    0.6780 C.3     1  UNL1        0.0870
      4  O          3.5870    1.3490    2.4240 O.2     1  UNL1       -0.3000
      5  C          6.8880    0.2560    1.5350 C.3     1  UNL1        0.0430
      6  C          7.3050   -0.6970    0.4910 C.2     1  UNL1       -0.0440
      7  C          7.1800   -0.3940   -0.8700 C.2     1  UNL1        0.0080
      8  C          7.8340   -1.9160    0.8510 C.2     1  UNL1        0.0540
      9  C          7.5890   -1.3270   -1.8050 C.2     1  UNL1        0.0510
     10  C          8.2460   -2.8550   -0.0990 C.2     1  UNL1        0.1660
     11  C          8.1220   -2.5590   -1.4380 C.2     1  UNL1        0.1650
     12  O          8.7930   -4.1170    0.0040 O.2     1  UNL1       -0.4540
     13  O          8.6020   -3.6550   -2.1370 O.2     1  UNL1       -0.4540
     14  C          9.1210   -4.6280   -1.2630 C.3     1  UNL1        0.4680
@<TRIPOS>BOND
     1    13    11    1
     2    13    14    1
     3     9    11    2
     4     9     7    1
     5    11    10    1
     6    14    12    1
     7     7     6    2
     8    10    12    1
     9    10     8    2
    10     6     8    1
    11     6     5    1
    12     3     2    1
    13     5     1    1
    14     2     1    1
    15     2     4    2
