@<TRIPOS>MOLECULE
/home/cewinharhar/GITHUB/reincatalyze/data/processed/docking_pred/2023-May-25-1902_sub9_nm5_bs15_s42_ex16_mel10_mts10000_k50_ec01_g099_lra3e-4_lrc3e-3/d32515ef85c53a65d829162c3cbbbf13c46f52f9_ligand_9.pdbqt
 14 15 0 0 0
SMALL
GASTEIGER

@<TRIPOS>ATOM
      1  C          5.7350    1.3400   -0.2700 C.3     1  UNL1        0.0800
      2  C          5.1160    1.2580    1.0820 C.2     1  UNL1        0.1300
      3  C          5.3570    0.0990    1.9820 C.3     1  UNL1        0.0870
      4  O          4.3870    2.1470    1.4920 O.2     1  UNL1       -0.3000
      5  C          7.2300    1.0950   -0.2070 C.3     1  UNL1        0.0430
      6  C          7.5990   -0.1930   -0.8210 C.2     1  UNL1       -0.0440
      7  C          7.6430   -0.3560   -2.2100 C.2     1  UNL1        0.0080
      8  C          7.9110   -1.2670   -0.0190 C.2     1  UNL1        0.0540
      9  C          7.9970   -1.5880   -2.7300 C.2     1  UNL1        0.0510
     10  C          8.2680   -2.5100   -0.5500 C.2     1  UNL1        0.1660
     11  C          8.3110   -2.6720   -1.9160 C.2     1  UNL1        0.1650
     12  O          8.6160   -3.7130    0.0270 O.2     1  UNL1       -0.4540
     13  O          8.6900   -3.9840   -2.1530 O.2     1  UNL1       -0.4540
     14  C          8.9810   -4.6540   -0.9500 C.3     1  UNL1        0.4680
@<TRIPOS>BOND
     1     9     7    1
     2     9    11    2
     3     7     6    2
     4    13    11    1
     5    13    14    1
     6    11    10    1
     7    14    12    1
     8     6     5    1
     9     6     8    1
    10    10     8    2
    11    10    12    1
    12     1     5    1
    13     1     2    1
    14     2     4    2
    15     2     3    1
