@<TRIPOS>MOLECULE
/home/cewinharhar/GITHUB/reincatalyze/data/processed/docking_pred/2023-May-25-1902_sub9_nm5_bs15_s42_ex16_mel10_mts10000_k50_ec01_g099_lra3e-4_lrc3e-3/d32515ef85c53a65d829162c3cbbbf13c46f52f9_ligand_9.pdbqt
 14 15 0 0 0
SMALL
GASTEIGER

@<TRIPOS>ATOM
      1  C          8.3410    0.2440   -2.5840 C.3     1  UNL1        0.0800
      2  C          8.0110   -1.2030   -2.7050 C.2     1  UNL1        0.1300
      3  C          9.0550   -2.2190   -3.0110 C.3     1  UNL1        0.0870
      4  O          6.8670   -1.6000   -2.5570 O.2     1  UNL1       -0.3000
      5  C          8.8530    0.5780   -1.1970 C.3     1  UNL1        0.0430
      6  C          7.7980    0.4410   -0.1770 C.2     1  UNL1       -0.0440
      7  C          7.8780   -0.5220    0.8350 C.2     1  UNL1        0.0080
      8  C          6.7050    1.2770   -0.2100 C.2     1  UNL1        0.0540
      9  C          6.8580   -0.6040    1.7650 C.2     1  UNL1        0.0510
     10  C          5.6770    1.1910    0.7340 C.2     1  UNL1        0.1660
     11  C          5.7540    0.2420    1.7290 C.2     1  UNL1        0.1650
     12  O          4.5050    1.8940    0.9130 O.2     1  UNL1       -0.4540
     13  O          4.6160    0.3850    2.5070 O.2     1  UNL1       -0.4540
     14  C          3.8410    1.4800    2.0790 C.3     1  UNL1        0.4680
@<TRIPOS>BOND
     1     3     2    1
     2     2     1    1
     3     2     4    2
     4     1     5    1
     5     5     6    1
     6     8     6    2
     7     8    10    1
     8     6     7    1
     9    10    12    1
    10    10    11    2
    11     7     9    2
    12    12    14    1
    13    11     9    1
    14    11    13    1
    15    14    13    1
