@<TRIPOS>MOLECULE
/home/cewinharhar/GITHUB/reincatalyze/data/processed/docking_pred/2023-May-25-1902_sub9_nm5_bs15_s42_ex16_mel10_mts10000_k50_ec01_g099_lra3e-4_lrc3e-3/d3a7bace4d7284fd134c29c8ba069397c7215f06_ligand_9.pdbqt
 14 15 0 0 0
SMALL
GASTEIGER

@<TRIPOS>ATOM
      1  C          5.5480    1.8910    1.2890 C.3     1  UNL1        0.0800
      2  C          5.1070    0.6700    2.0180 C.2     1  UNL1        0.1300
      3  C          6.0020   -0.5060    2.1850 C.3     1  UNL1        0.0870
      4  O          3.9890    0.5980    2.5020 O.2     1  UNL1       -0.3000
      5  C          5.4100    1.7170   -0.2110 C.3     1  UNL1        0.0430
      6  C          6.5720    1.0180   -0.7890 C.2     1  UNL1       -0.0440
      7  C          7.8800    1.4590   -0.5610 C.2     1  UNL1        0.0080
      8  C          6.3770   -0.0980   -1.5700 C.2     1  UNL1        0.0540
      9  C          8.9310    0.7620   -1.1290 C.2     1  UNL1        0.0510
     10  C          7.4430   -0.8000   -2.1410 C.2     1  UNL1        0.1660
     11  C          8.7310   -0.3660   -1.9190 C.2     1  UNL1        0.1650
     12  O          7.5090   -1.9190   -2.9440 O.2     1  UNL1       -0.4540
     13  O          9.5690   -1.2370   -2.5960 O.2     1  UNL1       -0.4540
     14  C          8.8420   -2.2890   -3.1840 C.3     1  UNL1        0.4680
@<TRIPOS>BOND
     1    14    12    1
     2    14    13    1
     3    12    10    1
     4    13    11    1
     5    10    11    2
     6    10     8    1
     7    11     9    1
     8     8     6    2
     9     9     7    2
    10     6     7    1
    11     6     5    1
    12     5     1    1
    13     1     2    1
    14     2     3    1
    15     2     4    2
