MODEL 1
REMARK VINA RESULT:      -7.6      0.000      0.000
REMARK SMILES CC(=O)CCc1ccc2c(c1)OCO2
REMARK SMILES IDX 4 1 2 2 1 3 3 4 5 5 6 6 7 7 11 8 8 9 10 10 9 11 12 12 14 13
REMARK SMILES IDX 13 14
REMARK H PARENT
REMARK Flexibility Score: inf
ROOT
ATOM      1  C   UNL     1       5.548   1.891   1.289  1.00  0.00     0.080 C 
ENDROOT
BRANCH   1   2
ATOM      2  C   UNL     1       5.107   0.670   2.018  1.00  0.00     0.130 C 
ATOM      3  C   UNL     1       6.002  -0.506   2.185  1.00  0.00     0.087 C 
ATOM      4  O   UNL     1       3.989   0.598   2.502  1.00  0.00    -0.300 OA
ENDBRANCH   1   2
BRANCH   1   5
ATOM      5  C   UNL     1       5.410   1.717  -0.211  1.00  0.00     0.043 C 
BRANCH   5   6
ATOM      6  C   UNL     1       6.572   1.018  -0.789  1.00  0.00    -0.044 A 
ATOM      7  C   UNL     1       7.880   1.459  -0.561  1.00  0.00     0.008 A 
ATOM      8  C   UNL     1       6.377  -0.098  -1.570  1.00  0.00     0.054 A 
ATOM      9  C   UNL     1       8.931   0.762  -1.129  1.00  0.00     0.051 A 
ATOM     10  C   UNL     1       7.443  -0.800  -2.141  1.00  0.00     0.166 A 
ATOM     11  C   UNL     1       8.731  -0.366  -1.919  1.00  0.00     0.165 A 
ATOM     12  O   UNL     1       7.509  -1.919  -2.944  1.00  0.00    -0.454 OA
ATOM     13  O   UNL     1       9.569  -1.237  -2.596  1.00  0.00    -0.454 OA
ATOM     14  C   UNL     1       8.842  -2.289  -3.184  1.00  0.00     0.468 C 
ENDBRANCH   5   6
ENDBRANCH   1   5
TORSDOF 3
ENDMDL
MODEL 2
REMARK VINA RESULT:      -7.3      1.871      2.245
REMARK SMILES CC(=O)CCc1ccc2c(c1)OCO2
REMARK SMILES IDX 4 1 2 2 1 3 3 4 5 5 6 6 7 7 11 8 8 9 10 10 9 11 12 12 14 13
REMARK SMILES IDX 13 14
REMARK H PARENT
REMARK Flexibility Score: inf
ROOT
ATOM      1  C   UNL     1       5.583   1.548  -0.056  1.00  0.00     0.080 C 
ENDROOT
BRANCH   1   2
ATOM      2  C   UNL     1       4.967   1.237   1.264  1.00  0.00     0.130 C 
ATOM      3  C   UNL     1       5.426   0.087   2.088  1.00  0.00     0.087 C 
ATOM      4  O   UNL     1       4.059   1.921   1.709  1.00  0.00    -0.300 OA
ENDBRANCH   1   2
BRANCH   1   5
ATOM      5  C   UNL     1       7.080   1.312  -0.033  1.00  0.00     0.043 C 
BRANCH   5   6
ATOM      6  C   UNL     1       7.441   0.030  -0.662  1.00  0.00    -0.044 A 
ATOM      7  C   UNL     1       7.382  -0.149  -2.049  1.00  0.00     0.008 A 
ATOM      8  C   UNL     1       7.849  -1.025   0.123  1.00  0.00     0.054 A 
ATOM      9  C   UNL     1       7.733  -1.375  -2.584  1.00  0.00     0.051 A 
ATOM     10  C   UNL     1       8.204  -2.262  -0.422  1.00  0.00     0.166 A 
ATOM     11  C   UNL     1       8.145  -2.439  -1.787  1.00  0.00     0.165 A 
ATOM     12  O   UNL     1       8.634  -3.447   0.137  1.00  0.00    -0.454 OA
ATOM     13  O   UNL     1       8.546  -3.741  -2.040  1.00  0.00    -0.454 OA
ATOM     14  C   UNL     1       8.951  -4.387  -0.857  1.00  0.00     0.468 C 
ENDBRANCH   5   6
ENDBRANCH   1   5
TORSDOF 3
ENDMDL
MODEL 3
REMARK VINA RESULT:      -7.2      2.049      2.624
REMARK SMILES CC(=O)CCc1ccc2c(c1)OCO2
REMARK SMILES IDX 4 1 2 2 1 3 3 4 5 5 6 6 7 7 11 8 8 9 10 10 9 11 12 12 14 13
REMARK SMILES IDX 13 14
REMARK H PARENT
REMARK Flexibility Score: inf
ROOT
ATOM      1  C   UNL     1       5.393  -0.067   2.016  1.00  0.00     0.080 C 
ENDROOT
BRANCH   1   2
ATOM      2  C   UNL     1       4.560   1.143   1.771  1.00  0.00     0.130 C 
ATOM      3  C   UNL     1       4.908   2.131   0.715  1.00  0.00     0.087 C 
ATOM      4  O   UNL     1       3.559   1.360   2.436  1.00  0.00    -0.300 OA
ENDBRANCH   1   2
BRANCH   1   5
ATOM      5  C   UNL     1       6.838   0.171   1.623  1.00  0.00     0.043 C 
BRANCH   5   6
ATOM      6  C   UNL     1       7.271  -0.744   0.552  1.00  0.00    -0.044 A 
ATOM      7  C   UNL     1       7.150  -0.401  -0.800  1.00  0.00     0.008 A 
ATOM      8  C   UNL     1       7.811  -1.967   0.877  1.00  0.00     0.054 A 
ATOM      9  C   UNL     1       7.574  -1.300  -1.761  1.00  0.00     0.051 A 
ATOM     10  C   UNL     1       8.239  -2.873  -0.099  1.00  0.00     0.166 A 
ATOM     11  C   UNL     1       8.119  -2.536  -1.429  1.00  0.00     0.165 A 
ATOM     12  O   UNL     1       8.799  -4.131  -0.032  1.00  0.00    -0.454 OA
ATOM     13  O   UNL     1       8.614  -3.605  -2.159  1.00  0.00    -0.454 OA
ATOM     14  C   UNL     1       9.140  -4.599  -1.312  1.00  0.00     0.468 C 
ENDBRANCH   5   6
ENDBRANCH   1   5
TORSDOF 3
ENDMDL
MODEL 4
REMARK VINA RESULT:      -7.1      1.947      2.550
REMARK SMILES CC(=O)CCc1ccc2c(c1)OCO2
REMARK SMILES IDX 4 1 2 2 1 3 3 4 5 5 6 6 7 7 11 8 8 9 10 10 9 11 12 12 14 13
REMARK SMILES IDX 13 14
REMARK H PARENT
REMARK Flexibility Score: inf
ROOT
ATOM      1  C   UNL     1       6.853   0.824   1.100  1.00  0.00     0.080 C 
ENDROOT
BRANCH   1   2
ATOM      2  C   UNL     1       5.437   1.220   1.343  1.00  0.00     0.130 C 
ATOM      3  C   UNL     1       4.719   2.149   0.430  1.00  0.00     0.087 C 
ATOM      4  O   UNL     1       4.822   0.789   2.305  1.00  0.00    -0.300 OA
ENDBRANCH   1   2
BRANCH   1   5
ATOM      5  C   UNL     1       7.221   0.968  -0.363  1.00  0.00     0.043 C 
BRANCH   5   6
ATOM      6  C   UNL     1       7.647  -0.316  -0.948  1.00  0.00    -0.044 A 
ATOM      7  C   UNL     1       7.823  -0.471  -2.328  1.00  0.00     0.008 A 
ATOM      8  C   UNL     1       7.883  -1.395  -0.126  1.00  0.00     0.054 A 
ATOM      9  C   UNL     1       8.224  -1.700  -2.819  1.00  0.00     0.051 A 
ATOM     10  C   UNL     1       8.289  -2.635  -0.628  1.00  0.00     0.166 A 
ATOM     11  C   UNL     1       8.461  -2.788  -1.986  1.00  0.00     0.165 A 
ATOM     12  O   UNL     1       8.582  -3.841  -0.028  1.00  0.00    -0.454 OA
ATOM     13  O   UNL     1       8.861  -4.099  -2.194  1.00  0.00    -0.454 OA
ATOM     14  C   UNL     1       9.038  -4.776  -0.972  1.00  0.00     0.468 C 
ENDBRANCH   5   6
ENDBRANCH   1   5
TORSDOF 3
ENDMDL
MODEL 5
REMARK VINA RESULT:      -7.1      1.245      1.447
REMARK SMILES CC(=O)CCc1ccc2c(c1)OCO2
REMARK SMILES IDX 4 1 2 2 1 3 3 4 5 5 6 6 7 7 11 8 8 9 10 10 9 11 12 12 14 13
REMARK SMILES IDX 13 14
REMARK H PARENT
REMARK Flexibility Score: inf
ROOT
ATOM      1  C   UNL     1       6.380   1.204   0.943  1.00  0.00     0.080 C 
ENDROOT
BRANCH   1   2
ATOM      2  C   UNL     1       5.651   0.373   1.941  1.00  0.00     0.130 C 
ATOM      3  C   UNL     1       6.255  -0.854   2.525  1.00  0.00     0.087 C 
ATOM      4  O   UNL     1       4.529   0.677   2.310  1.00  0.00    -0.300 OA
ENDBRANCH   1   2
BRANCH   1   5
ATOM      5  C   UNL     1       5.878   0.943  -0.463  1.00  0.00     0.043 C 
BRANCH   5   6
ATOM      6  C   UNL     1       6.821   0.115  -1.236  1.00  0.00    -0.044 A 
ATOM      7  C   UNL     1       7.503   0.623  -2.347  1.00  0.00     0.008 A 
ATOM      8  C   UNL     1       7.046  -1.191  -0.862  1.00  0.00     0.054 A 
ATOM      9  C   UNL     1       8.376  -0.201  -3.033  1.00  0.00     0.051 A 
ATOM     10  C   UNL     1       7.931  -2.020  -1.559  1.00  0.00     0.166 A 
ATOM     11  C   UNL     1       8.601  -1.520  -2.653  1.00  0.00     0.165 A 
ATOM     12  O   UNL     1       8.320  -3.331  -1.390  1.00  0.00    -0.454 OA
ATOM     13  O   UNL     1       9.397  -2.546  -3.138  1.00  0.00    -0.454 OA
ATOM     14  C   UNL     1       9.319  -3.684  -2.313  1.00  0.00     0.468 C 
ENDBRANCH   5   6
ENDBRANCH   1   5
TORSDOF 3
ENDMDL
