MODEL 1
REMARK VINA RESULT:      -7.6      0.000      0.000
REMARK SMILES CC(=O)CCc1ccc2c(c1)OCO2
REMARK SMILES IDX 4 1 2 2 1 3 3 4 5 5 6 6 7 7 11 8 8 9 10 10 9 11 12 12 14 13
REMARK SMILES IDX 13 14
REMARK H PARENT
REMARK Flexibility Score: inf
ROOT
ATOM      1  C   UNL     1       5.542   1.907   1.277  1.00  0.00     0.080 C 
ENDROOT
BRANCH   1   2
ATOM      2  C   UNL     1       5.108   0.686   2.011  1.00  0.00     0.130 C 
ATOM      3  C   UNL     1       6.012  -0.481   2.187  1.00  0.00     0.087 C 
ATOM      4  O   UNL     1       3.989   0.608   2.491  1.00  0.00    -0.300 OA
ENDBRANCH   1   2
BRANCH   1   5
ATOM      5  C   UNL     1       5.412   1.724  -0.222  1.00  0.00     0.043 C 
BRANCH   5   6
ATOM      6  C   UNL     1       6.575   1.018  -0.789  1.00  0.00    -0.044 A 
ATOM      7  C   UNL     1       7.884   1.448  -0.544  1.00  0.00     0.008 A 
ATOM      8  C   UNL     1       6.381  -0.093  -1.578  1.00  0.00     0.054 A 
ATOM      9  C   UNL     1       8.936   0.745  -1.102  1.00  0.00     0.051 A 
ATOM     10  C   UNL     1       7.448  -0.800  -2.140  1.00  0.00     0.166 A 
ATOM     11  C   UNL     1       8.736  -0.377  -1.900  1.00  0.00     0.165 A 
ATOM     12  O   UNL     1       7.515  -1.916  -2.947  1.00  0.00    -0.454 OA
ATOM     13  O   UNL     1       9.577  -1.252  -2.570  1.00  0.00    -0.454 OA
ATOM     14  C   UNL     1       8.848  -2.296  -3.172  1.00  0.00     0.468 C 
ENDBRANCH   5   6
ENDBRANCH   1   5
TORSDOF 3
ENDMDL
MODEL 2
REMARK VINA RESULT:      -7.3      1.948      2.452
REMARK SMILES CC(=O)CCc1ccc2c(c1)OCO2
REMARK SMILES IDX 4 1 2 2 1 3 3 4 5 5 6 6 7 7 11 8 8 9 10 10 9 11 12 12 14 13
REMARK SMILES IDX 13 14
REMARK H PARENT
REMARK Flexibility Score: inf
ROOT
ATOM      1  C   UNL     1       5.747   1.134  -0.343  1.00  0.00     0.080 C 
ENDROOT
BRANCH   1   2
ATOM      2  C   UNL     1       5.257   1.160   1.064  1.00  0.00     0.130 C 
ATOM      3  C   UNL     1       5.419  -0.008   1.969  1.00  0.00     0.087 C 
ATOM      4  O   UNL     1       4.703   2.150   1.516  1.00  0.00    -0.300 OA
ENDBRANCH   1   2
BRANCH   1   5
ATOM      5  C   UNL     1       7.255   0.987  -0.397  1.00  0.00     0.043 C 
BRANCH   5   6
ATOM      6  C   UNL     1       7.657  -0.308  -0.974  1.00  0.00    -0.044 A 
ATOM      7  C   UNL     1       7.784  -0.487  -2.356  1.00  0.00     0.008 A 
ATOM      8  C   UNL     1       7.920  -1.373  -0.143  1.00  0.00     0.054 A 
ATOM      9  C   UNL     1       8.166  -1.725  -2.840  1.00  0.00     0.051 A 
ATOM     10  C   UNL     1       8.307  -2.622  -0.637  1.00  0.00     0.166 A 
ATOM     11  C   UNL     1       8.430  -2.800  -1.997  1.00  0.00     0.165 A 
ATOM     12  O   UNL     1       8.619  -3.819  -0.026  1.00  0.00    -0.454 OA
ATOM     13  O   UNL     1       8.821  -4.115  -2.195  1.00  0.00    -0.454 OA
ATOM     14  C   UNL     1       9.039  -4.771  -0.969  1.00  0.00     0.468 C 
ENDBRANCH   5   6
ENDBRANCH   1   5
TORSDOF 3
ENDMDL
MODEL 3
REMARK VINA RESULT:      -7.2      2.040      2.595
REMARK SMILES CC(=O)CCc1ccc2c(c1)OCO2
REMARK SMILES IDX 4 1 2 2 1 3 3 4 5 5 6 6 7 7 11 8 8 9 10 10 9 11 12 12 14 13
REMARK SMILES IDX 13 14
REMARK H PARENT
REMARK Flexibility Score: inf
ROOT
ATOM      1  C   UNL     1       5.471  -0.005   2.025  1.00  0.00     0.080 C 
ENDROOT
BRANCH   1   2
ATOM      2  C   UNL     1       4.579   1.159   1.762  1.00  0.00     0.130 C 
ATOM      3  C   UNL     1       4.878   2.144   0.688  1.00  0.00     0.087 C 
ATOM      4  O   UNL     1       3.571   1.339   2.425  1.00  0.00    -0.300 OA
ENDBRANCH   1   2
BRANCH   1   5
ATOM      5  C   UNL     1       6.885   0.267   1.552  1.00  0.00     0.043 C 
BRANCH   5   6
ATOM      6  C   UNL     1       7.298  -0.675   0.496  1.00  0.00    -0.044 A 
ATOM      7  C   UNL     1       7.171  -0.357  -0.861  1.00  0.00     0.008 A 
ATOM      8  C   UNL     1       7.826  -1.898   0.842  1.00  0.00     0.054 A 
ATOM      9  C   UNL     1       7.577  -1.280  -1.807  1.00  0.00     0.051 A 
ATOM     10  C   UNL     1       8.235  -2.828  -0.118  1.00  0.00     0.166 A 
ATOM     11  C   UNL     1       8.110  -2.517  -1.454  1.00  0.00     0.165 A 
ATOM     12  O   UNL     1       8.781  -4.091  -0.031  1.00  0.00    -0.454 OA
ATOM     13  O   UNL     1       8.587  -3.606  -2.166  1.00  0.00    -0.454 OA
ATOM     14  C   UNL     1       9.106  -4.589  -1.303  1.00  0.00     0.468 C 
ENDBRANCH   5   6
ENDBRANCH   1   5
TORSDOF 3
ENDMDL
MODEL 4
REMARK VINA RESULT:      -7.0      1.248      1.445
REMARK SMILES CC(=O)CCc1ccc2c(c1)OCO2
REMARK SMILES IDX 4 1 2 2 1 3 3 4 5 5 6 6 7 7 11 8 8 9 10 10 9 11 12 12 14 13
REMARK SMILES IDX 13 14
REMARK H PARENT
REMARK Flexibility Score: inf
ROOT
ATOM      1  C   UNL     1       6.374   1.224   0.938  1.00  0.00     0.080 C 
ENDROOT
BRANCH   1   2
ATOM      2  C   UNL     1       5.654   0.386   1.937  1.00  0.00     0.130 C 
ATOM      3  C   UNL     1       6.274  -0.829   2.530  1.00  0.00     0.087 C 
ATOM      4  O   UNL     1       4.525   0.674   2.299  1.00  0.00    -0.300 OA
ENDBRANCH   1   2
BRANCH   1   5
ATOM      5  C   UNL     1       5.880   0.951  -0.468  1.00  0.00     0.043 C 
BRANCH   5   6
ATOM      6  C   UNL     1       6.829   0.119  -1.230  1.00  0.00    -0.044 A 
ATOM      7  C   UNL     1       7.528   0.626  -2.331  1.00  0.00     0.008 A 
ATOM      8  C   UNL     1       7.042  -1.188  -0.856  1.00  0.00     0.054 A 
ATOM      9  C   UNL     1       8.407  -0.201  -3.006  1.00  0.00     0.051 A 
ATOM     10  C   UNL     1       7.932  -2.020  -1.542  1.00  0.00     0.166 A 
ATOM     11  C   UNL     1       8.619  -1.523  -2.626  1.00  0.00     0.165 A 
ATOM     12  O   UNL     1       8.312  -3.335  -1.370  1.00  0.00    -0.454 OA
ATOM     13  O   UNL     1       9.416  -2.552  -3.102  1.00  0.00    -0.454 OA
ATOM     14  C   UNL     1       9.320  -3.691  -2.280  1.00  0.00     0.468 C 
ENDBRANCH   5   6
ENDBRANCH   1   5
TORSDOF 3
ENDMDL
MODEL 5
REMARK VINA RESULT:      -6.7      1.255      1.746
REMARK SMILES CC(=O)CCc1ccc2c(c1)OCO2
REMARK SMILES IDX 4 1 2 2 1 3 3 4 5 5 6 6 7 7 11 8 8 9 10 10 9 11 12 12 14 13
REMARK SMILES IDX 13 14
REMARK H PARENT
REMARK Flexibility Score: inf
ROOT
ATOM      1  C   UNL     1       5.335  -0.072   1.969  1.00  0.00     0.080 C 
ENDROOT
BRANCH   1   2
ATOM      2  C   UNL     1       4.450   1.111   1.783  1.00  0.00     0.130 C 
ATOM      3  C   UNL     1       4.736   2.146   0.754  1.00  0.00     0.087 C 
ATOM      4  O   UNL     1       3.458   1.267   2.476  1.00  0.00    -0.300 OA
ENDBRANCH   1   2
BRANCH   1   5
ATOM      5  C   UNL     1       6.798   0.319   1.900  1.00  0.00     0.043 C 
BRANCH   5   6
ATOM      6  C   UNL     1       7.399  -0.038   0.602  1.00  0.00    -0.044 A 
ATOM      7  C   UNL     1       7.894   0.939  -0.269  1.00  0.00     0.008 A 
ATOM      8  C   UNL     1       7.482  -1.360   0.229  1.00  0.00     0.054 A 
ATOM      9  C   UNL     1       8.447   0.544  -1.474  1.00  0.00     0.051 A 
ATOM     10  C   UNL     1       8.043  -1.754  -0.989  1.00  0.00     0.166 A 
ATOM     11  C   UNL     1       8.529  -0.793  -1.848  1.00  0.00     0.165 A 
ATOM     12  O   UNL     1       8.237  -2.984  -1.581  1.00  0.00    -0.454 OA
ATOM     13  O   UNL     1       9.019  -1.461  -2.960  1.00  0.00    -0.454 OA
ATOM     14  C   UNL     1       8.936  -2.856  -2.793  1.00  0.00     0.468 C 
ENDBRANCH   5   6
ENDBRANCH   1   5
TORSDOF 3
ENDMDL
