@<TRIPOS>MOLECULE
/home/cewinharhar/GITHUB/reincatalyze/data/processed/docking_pred/2023-May-25-1902_sub9_nm5_bs15_s42_ex16_mel10_mts10000_k50_ec01_g099_lra3e-4_lrc3e-3/d4292dbdc665c4d20b6271b363b9823f318ec372_ligand_9.pdbqt
 14 15 0 0 0
SMALL
GASTEIGER

@<TRIPOS>ATOM
      1  C          6.3740    1.2240    0.9380 C.3     1  UNL1        0.0800
      2  C          5.6540    0.3860    1.9370 C.2     1  UNL1        0.1300
      3  C          6.2740   -0.8290    2.5300 C.3     1  UNL1        0.0870
      4  O          4.5250    0.6740    2.2990 O.2     1  UNL1       -0.3000
      5  C          5.8800    0.9510   -0.4680 C.3     1  UNL1        0.0430
      6  C          6.8290    0.1190   -1.2300 C.2     1  UNL1       -0.0440
      7  C          7.5280    0.6260   -2.3310 C.2     1  UNL1        0.0080
      8  C          7.0420   -1.1880   -0.8560 C.2     1  UNL1        0.0540
      9  C          8.4070   -0.2010   -3.0060 C.2     1  UNL1        0.0510
     10  C          7.9320   -2.0200   -1.5420 C.2     1  UNL1        0.1660
     11  C          8.6190   -1.5230   -2.6260 C.2     1  UNL1        0.1650
     12  O          8.3120   -3.3350   -1.3700 O.2     1  UNL1       -0.4540
     13  O          9.4160   -2.5520   -3.1020 O.2     1  UNL1       -0.4540
     14  C          9.3200   -3.6910   -2.2800 C.3     1  UNL1        0.4680
@<TRIPOS>BOND
     1    13    11    1
     2    13    14    1
     3     9    11    2
     4     9     7    1
     5    11    10    1
     6     7     6    2
     7    14    12    1
     8    10    12    1
     9    10     8    2
    10     6     8    1
    11     6     5    1
    12     5     1    1
    13     1     2    1
    14     2     4    2
    15     2     3    1
