@<TRIPOS>MOLECULE
/home/cewinharhar/GITHUB/reincatalyze/data/processed/docking_pred/2023-May-25-1902_sub9_nm5_bs15_s42_ex16_mel10_mts10000_k50_ec01_g099_lra3e-4_lrc3e-3/d4292dbdc665c4d20b6271b363b9823f318ec372_ligand_9.pdbqt
 14 15 0 0 0
SMALL
GASTEIGER

@<TRIPOS>ATOM
      1  C          5.3350   -0.0720    1.9690 C.3     1  UNL1        0.0800
      2  C          4.4500    1.1110    1.7830 C.2     1  UNL1        0.1300
      3  C          4.7360    2.1460    0.7540 C.3     1  UNL1        0.0870
      4  O          3.4580    1.2670    2.4760 O.2     1  UNL1       -0.3000
      5  C          6.7980    0.3190    1.9000 C.3     1  UNL1        0.0430
      6  C          7.3990   -0.0380    0.6020 C.2     1  UNL1       -0.0440
      7  C          7.8940    0.9390   -0.2690 C.2     1  UNL1        0.0080
      8  C          7.4820   -1.3600    0.2290 C.2     1  UNL1        0.0540
      9  C          8.4470    0.5440   -1.4740 C.2     1  UNL1        0.0510
     10  C          8.0430   -1.7540   -0.9890 C.2     1  UNL1        0.1660
     11  C          8.5290   -0.7930   -1.8480 C.2     1  UNL1        0.1650
     12  O          8.2370   -2.9840   -1.5810 O.2     1  UNL1       -0.4540
     13  O          9.0190   -1.4610   -2.9600 O.2     1  UNL1       -0.4540
     14  C          8.9360   -2.8560   -2.7930 C.3     1  UNL1        0.4680
@<TRIPOS>BOND
     1    13    14    1
     2    13    11    1
     3    14    12    1
     4    11     9    2
     5    11    10    1
     6    12    10    1
     7     9     7    1
     8    10     8    2
     9     7     6    2
    10     8     6    1
    11     6     5    1
    12     3     2    1
    13     2     1    1
    14     2     4    2
    15     5     1    1
