@<TRIPOS>MOLECULE
/home/cewinharhar/GITHUB/reincatalyze/data/processed/docking_pred/2023-May-25-1902_sub9_nm5_bs15_s42_ex16_mel10_mts10000_k50_ec01_g099_lra3e-4_lrc3e-3/d4292dbdc665c4d20b6271b363b9823f318ec372_ligand_9.pdbqt
 14 15 0 0 0
SMALL
GASTEIGER

@<TRIPOS>ATOM
      1  C          5.4710   -0.0050    2.0250 C.3     1  UNL1        0.0800
      2  C          4.5790    1.1590    1.7620 C.2     1  UNL1        0.1300
      3  C          4.8780    2.1440    0.6880 C.3     1  UNL1        0.0870
      4  O          3.5710    1.3390    2.4250 O.2     1  UNL1       -0.3000
      5  C          6.8850    0.2670    1.5520 C.3     1  UNL1        0.0430
      6  C          7.2980   -0.6750    0.4960 C.2     1  UNL1       -0.0440
      7  C          7.1710   -0.3570   -0.8610 C.2     1  UNL1        0.0080
      8  C          7.8260   -1.8980    0.8420 C.2     1  UNL1        0.0540
      9  C          7.5770   -1.2800   -1.8070 C.2     1  UNL1        0.0510
     10  C          8.2350   -2.8280   -0.1180 C.2     1  UNL1        0.1660
     11  C          8.1100   -2.5170   -1.4540 C.2     1  UNL1        0.1650
     12  O          8.7810   -4.0910   -0.0310 O.2     1  UNL1       -0.4540
     13  O          8.5870   -3.6060   -2.1660 O.2     1  UNL1       -0.4540
     14  C          9.1060   -4.5890   -1.3030 C.3     1  UNL1        0.4680
@<TRIPOS>BOND
     1    13    11    1
     2    13    14    1
     3     9    11    2
     4     9     7    1
     5    11    10    1
     6    14    12    1
     7     7     6    2
     8    10    12    1
     9    10     8    2
    10     6     8    1
    11     6     5    1
    12     3     2    1
    13     5     1    1
    14     2     1    1
    15     2     4    2
