@<TRIPOS>MOLECULE
/home/cewinharhar/GITHUB/reincatalyze/data/processed/docking_pred/2023-May-25-1902_sub9_nm5_bs15_s42_ex16_mel10_mts10000_k50_ec01_g099_lra3e-4_lrc3e-3/d4292dbdc665c4d20b6271b363b9823f318ec372_ligand_9.pdbqt
 14 15 0 0 0
SMALL
GASTEIGER

@<TRIPOS>ATOM
      1  C          5.5420    1.9070    1.2770 C.3     1  UNL1        0.0800
      2  C          5.1080    0.6860    2.0110 C.2     1  UNL1        0.1300
      3  C          6.0120   -0.4810    2.1870 C.3     1  UNL1        0.0870
      4  O          3.9890    0.6080    2.4910 O.2     1  UNL1       -0.3000
      5  C          5.4120    1.7240   -0.2220 C.3     1  UNL1        0.0430
      6  C          6.5750    1.0180   -0.7890 C.2     1  UNL1       -0.0440
      7  C          7.8840    1.4480   -0.5440 C.2     1  UNL1        0.0080
      8  C          6.3810   -0.0930   -1.5780 C.2     1  UNL1        0.0540
      9  C          8.9360    0.7450   -1.1020 C.2     1  UNL1        0.0510
     10  C          7.4480   -0.8000   -2.1400 C.2     1  UNL1        0.1660
     11  C          8.7360   -0.3770   -1.9000 C.2     1  UNL1        0.1650
     12  O          7.5150   -1.9160   -2.9470 O.2     1  UNL1       -0.4540
     13  O          9.5770   -1.2520   -2.5700 O.2     1  UNL1       -0.4540
     14  C          8.8480   -2.2960   -3.1720 C.3     1  UNL1        0.4680
@<TRIPOS>BOND
     1    14    12    1
     2    14    13    1
     3    12    10    1
     4    13    11    1
     5    10    11    2
     6    10     8    1
     7    11     9    1
     8     8     6    2
     9     9     7    2
    10     6     7    1
    11     6     5    1
    12     5     1    1
    13     1     2    1
    14     2     3    1
    15     2     4    2
