MODEL 1
REMARK VINA RESULT:      -7.6      0.000      0.000
REMARK SMILES CC(=O)CCc1ccc2c(c1)OCO2
REMARK SMILES IDX 4 1 2 2 1 3 3 4 5 5 6 6 7 7 11 8 8 9 10 10 9 11 12 12 14 13
REMARK SMILES IDX 13 14
REMARK H PARENT
REMARK Flexibility Score: inf
ROOT
ATOM      1  C   UNL     1       5.534   1.940   1.259  1.00  0.00     0.080 C 
ENDROOT
BRANCH   1   2
ATOM      2  C   UNL     1       5.116   0.720   2.005  1.00  0.00     0.130 C 
ATOM      3  C   UNL     1       6.036  -0.434   2.192  1.00  0.00     0.087 C 
ATOM      4  O   UNL     1       3.998   0.633   2.487  1.00  0.00    -0.300 OA
ENDBRANCH   1   2
BRANCH   1   5
ATOM      5  C   UNL     1       5.405   1.741  -0.238  1.00  0.00     0.043 C 
BRANCH   5   6
ATOM      6  C   UNL     1       6.571   1.034  -0.797  1.00  0.00    -0.044 A 
ATOM      7  C   UNL     1       7.879   1.458  -0.539  1.00  0.00     0.008 A 
ATOM      8  C   UNL     1       6.380  -0.074  -1.592  1.00  0.00     0.054 A 
ATOM      9  C   UNL     1       8.934   0.754  -1.090  1.00  0.00     0.051 A 
ATOM     10  C   UNL     1       7.449  -0.783  -2.146  1.00  0.00     0.166 A 
ATOM     11  C   UNL     1       8.737  -0.365  -1.894  1.00  0.00     0.165 A 
ATOM     12  O   UNL     1       7.520  -1.896  -2.956  1.00  0.00    -0.454 OA
ATOM     13  O   UNL     1       9.580  -1.241  -2.560  1.00  0.00    -0.454 OA
ATOM     14  C   UNL     1       8.854  -2.280  -3.172  1.00  0.00     0.468 C 
ENDBRANCH   5   6
ENDBRANCH   1   5
TORSDOF 3
ENDMDL
MODEL 2
REMARK VINA RESULT:      -7.4      1.936      2.400
REMARK SMILES CC(=O)CCc1ccc2c(c1)OCO2
REMARK SMILES IDX 4 1 2 2 1 3 3 4 5 5 6 6 7 7 11 8 8 9 10 10 9 11 12 12 14 13
REMARK SMILES IDX 13 14
REMARK H PARENT
REMARK Flexibility Score: inf
ROOT
ATOM      1  C   UNL     1       5.745   1.292  -0.294  1.00  0.00     0.080 C 
ENDROOT
BRANCH   1   2
ATOM      2  C   UNL     1       5.168   1.226   1.078  1.00  0.00     0.130 C 
ATOM      3  C   UNL     1       5.369   0.039   1.952  1.00  0.00     0.087 C 
ATOM      4  O   UNL     1       4.510   2.150   1.527  1.00  0.00    -0.300 OA
ENDBRANCH   1   2
BRANCH   1   5
ATOM      5  C   UNL     1       7.245   1.078  -0.271  1.00  0.00     0.043 C 
BRANCH   5   6
ATOM      6  C   UNL     1       7.622  -0.213  -0.875  1.00  0.00    -0.044 A 
ATOM      7  C   UNL     1       7.707  -0.376  -2.263  1.00  0.00     0.008 A 
ATOM      8  C   UNL     1       7.902  -1.289  -0.065  1.00  0.00     0.054 A 
ATOM      9  C   UNL     1       8.066  -1.610  -2.772  1.00  0.00     0.051 A 
ATOM     10  C   UNL     1       8.265  -2.535  -0.585  1.00  0.00     0.166 A 
ATOM     11  C   UNL     1       8.348  -2.697  -1.950  1.00  0.00     0.165 A 
ATOM     12  O   UNL     1       8.586  -3.741   0.002  1.00  0.00    -0.454 OA
ATOM     13  O   UNL     1       8.723  -4.012  -2.176  1.00  0.00    -0.454 OA
ATOM     14  C   UNL     1       8.973  -4.684  -0.964  1.00  0.00     0.468 C 
ENDBRANCH   5   6
ENDBRANCH   1   5
TORSDOF 3
ENDMDL
MODEL 3
REMARK VINA RESULT:      -7.1      2.048      2.624
REMARK SMILES CC(=O)CCc1ccc2c(c1)OCO2
REMARK SMILES IDX 4 1 2 2 1 3 3 4 5 5 6 6 7 7 11 8 8 9 10 10 9 11 12 12 14 13
REMARK SMILES IDX 13 14
REMARK H PARENT
REMARK Flexibility Score: inf
ROOT
ATOM      1  C   UNL     1       5.417  -0.054   2.040  1.00  0.00     0.080 C 
ENDROOT
BRANCH   1   2
ATOM      2  C   UNL     1       4.555   1.131   1.770  1.00  0.00     0.130 C 
ATOM      3  C   UNL     1       4.893   2.115   0.707  1.00  0.00     0.087 C 
ATOM      4  O   UNL     1       3.540   1.329   2.418  1.00  0.00    -0.300 OA
ENDBRANCH   1   2
BRANCH   1   5
ATOM      5  C   UNL     1       6.850   0.200   1.619  1.00  0.00     0.043 C 
BRANCH   5   6
ATOM      6  C   UNL     1       7.278  -0.721   0.551  1.00  0.00    -0.044 A 
ATOM      7  C   UNL     1       7.157  -0.381  -0.801  1.00  0.00     0.008 A 
ATOM      8  C   UNL     1       7.814  -1.945   0.880  1.00  0.00     0.054 A 
ATOM      9  C   UNL     1       7.576  -1.286  -1.760  1.00  0.00     0.051 A 
ATOM     10  C   UNL     1       8.236  -2.856  -0.093  1.00  0.00     0.166 A 
ATOM     11  C   UNL     1       8.116  -2.523  -1.424  1.00  0.00     0.165 A 
ATOM     12  O   UNL     1       8.792  -4.116  -0.023  1.00  0.00    -0.454 OA
ATOM     13  O   UNL     1       8.606  -3.596  -2.151  1.00  0.00    -0.454 OA
ATOM     14  C   UNL     1       9.129  -4.590  -1.302  1.00  0.00     0.468 C 
ENDBRANCH   5   6
ENDBRANCH   1   5
TORSDOF 3
ENDMDL
MODEL 4
REMARK VINA RESULT:      -7.0      1.254      1.471
REMARK SMILES CC(=O)CCc1ccc2c(c1)OCO2
REMARK SMILES IDX 4 1 2 2 1 3 3 4 5 5 6 6 7 7 11 8 8 9 10 10 9 11 12 12 14 13
REMARK SMILES IDX 13 14
REMARK H PARENT
REMARK Flexibility Score: inf
ROOT
ATOM      1  C   UNL     1       6.337   1.228   0.876  1.00  0.00     0.080 C 
ENDROOT
BRANCH   1   2
ATOM      2  C   UNL     1       5.671   0.389   1.912  1.00  0.00     0.130 C 
ATOM      3  C   UNL     1       6.325  -0.821   2.476  1.00  0.00     0.087 C 
ATOM      4  O   UNL     1       4.560   0.675   2.329  1.00  0.00    -0.300 OA
ENDBRANCH   1   2
BRANCH   1   5
ATOM      5  C   UNL     1       5.830   0.893  -0.513  1.00  0.00     0.043 C 
BRANCH   5   6
ATOM      6  C   UNL     1       6.799   0.076  -1.266  1.00  0.00    -0.044 A 
ATOM      7  C   UNL     1       7.508   0.597  -2.353  1.00  0.00     0.008 A 
ATOM      8  C   UNL     1       7.020  -1.232  -0.897  1.00  0.00     0.054 A 
ATOM      9  C   UNL     1       8.405  -0.218  -3.022  1.00  0.00     0.051 A 
ATOM     10  C   UNL     1       7.928  -2.051  -1.575  1.00  0.00     0.166 A 
ATOM     11  C   UNL     1       8.626  -1.539  -2.647  1.00  0.00     0.165 A 
ATOM     12  O   UNL     1       8.318  -3.362  -1.406  1.00  0.00    -0.454 OA
ATOM     13  O   UNL     1       9.439  -2.558  -3.118  1.00  0.00    -0.454 OA
ATOM     14  C   UNL     1       9.343  -3.703  -2.304  1.00  0.00     0.468 C 
ENDBRANCH   5   6
ENDBRANCH   1   5
TORSDOF 3
ENDMDL
MODEL 5
REMARK VINA RESULT:      -6.7      1.268      1.764
REMARK SMILES CC(=O)CCc1ccc2c(c1)OCO2
REMARK SMILES IDX 4 1 2 2 1 3 3 4 5 5 6 6 7 7 11 8 8 9 10 10 9 11 12 12 14 13
REMARK SMILES IDX 13 14
REMARK H PARENT
REMARK Flexibility Score: inf
ROOT
ATOM      1  C   UNL     1       5.305  -0.077   1.955  1.00  0.00     0.080 C 
ENDROOT
BRANCH   1   2
ATOM      2  C   UNL     1       4.438   1.122   1.783  1.00  0.00     0.130 C 
ATOM      3  C   UNL     1       4.723   2.150   0.746  1.00  0.00     0.087 C 
ATOM      4  O   UNL     1       3.461   1.296   2.494  1.00  0.00    -0.300 OA
ENDBRANCH   1   2
BRANCH   1   5
ATOM      5  C   UNL     1       6.774   0.294   1.903  1.00  0.00     0.043 C 
BRANCH   5   6
ATOM      6  C   UNL     1       7.381  -0.058   0.608  1.00  0.00    -0.044 A 
ATOM      7  C   UNL     1       7.868   0.922  -0.265  1.00  0.00     0.008 A 
ATOM      8  C   UNL     1       7.479  -1.381   0.237  1.00  0.00     0.054 A 
ATOM      9  C   UNL     1       8.429   0.531  -1.467  1.00  0.00     0.051 A 
ATOM     10  C   UNL     1       8.047  -1.770  -0.979  1.00  0.00     0.166 A 
ATOM     11  C   UNL     1       8.526  -0.807  -1.839  1.00  0.00     0.165 A 
ATOM     12  O   UNL     1       8.256  -3.000  -1.567  1.00  0.00    -0.454 OA
ATOM     13  O   UNL     1       9.025  -1.471  -2.948  1.00  0.00    -0.454 OA
ATOM     14  C   UNL     1       8.956  -2.867  -2.778  1.00  0.00     0.468 C 
ENDBRANCH   5   6
ENDBRANCH   1   5
TORSDOF 3
ENDMDL
