@<TRIPOS>MOLECULE
/home/cewinharhar/GITHUB/reincatalyze/data/processed/docking_pred/2023-May-25-1902_sub9_nm5_bs15_s42_ex16_mel10_mts10000_k50_ec01_g099_lra3e-4_lrc3e-3/d68da6ca94917019a71bc3feefe4e6b6d631e6ad_ligand_9.pdbqt
 14 15 0 0 0
SMALL
GASTEIGER

@<TRIPOS>ATOM
      1  C          5.5450    1.9150    1.2690 C.3     1  UNL1        0.0800
      2  C          5.1110    0.6950    2.0050 C.2     1  UNL1        0.1300
      3  C          6.0150   -0.4720    2.1830 C.3     1  UNL1        0.0870
      4  O          3.9920    0.6190    2.4860 O.2     1  UNL1       -0.3000
      5  C          5.4170    1.7280   -0.2300 C.3     1  UNL1        0.0430
      6  C          6.5810    1.0220   -0.7940 C.2     1  UNL1       -0.0440
      7  C          7.8900    1.4480   -0.5400 C.2     1  UNL1        0.0080
      8  C          6.3890   -0.0850   -1.5880 C.2     1  UNL1        0.0540
      9  C          8.9440    0.7450   -1.0960 C.2     1  UNL1        0.0510
     10  C          7.4570   -0.7920   -2.1470 C.2     1  UNL1        0.1660
     11  C          8.7450   -0.3730   -1.8990 C.2     1  UNL1        0.1650
     12  O          7.5260   -1.9050   -2.9580 O.2     1  UNL1       -0.4540
     13  O          9.5870   -1.2480   -2.5680 O.2     1  UNL1       -0.4540
     14  C          8.8600   -2.2870   -3.1780 C.3     1  UNL1        0.4680
@<TRIPOS>BOND
     1    14    12    1
     2    14    13    1
     3    12    10    1
     4    13    11    1
     5    10    11    2
     6    10     8    1
     7    11     9    1
     8     8     6    2
     9     9     7    2
    10     6     7    1
    11     6     5    1
    12     5     1    1
    13     1     2    1
    14     2     3    1
    15     2     4    2
