MODEL 1
REMARK VINA RESULT:      -7.7      0.000      0.000
REMARK SMILES CC(=O)CCc1ccc2c(c1)OCO2
REMARK SMILES IDX 4 1 2 2 1 3 3 4 5 5 6 6 7 7 11 8 8 9 10 10 9 11 12 12 14 13
REMARK SMILES IDX 13 14
REMARK H PARENT
REMARK Flexibility Score: inf
ROOT
ATOM      1  C   UNL     1       5.545   1.915   1.269  1.00  0.00     0.080 C 
ENDROOT
BRANCH   1   2
ATOM      2  C   UNL     1       5.111   0.695   2.005  1.00  0.00     0.130 C 
ATOM      3  C   UNL     1       6.015  -0.472   2.183  1.00  0.00     0.087 C 
ATOM      4  O   UNL     1       3.992   0.619   2.486  1.00  0.00    -0.300 OA
ENDBRANCH   1   2
BRANCH   1   5
ATOM      5  C   UNL     1       5.417   1.728  -0.230  1.00  0.00     0.043 C 
BRANCH   5   6
ATOM      6  C   UNL     1       6.581   1.022  -0.794  1.00  0.00    -0.044 A 
ATOM      7  C   UNL     1       7.890   1.448  -0.540  1.00  0.00     0.008 A 
ATOM      8  C   UNL     1       6.389  -0.085  -1.588  1.00  0.00     0.054 A 
ATOM      9  C   UNL     1       8.944   0.745  -1.096  1.00  0.00     0.051 A 
ATOM     10  C   UNL     1       7.457  -0.792  -2.147  1.00  0.00     0.166 A 
ATOM     11  C   UNL     1       8.745  -0.373  -1.899  1.00  0.00     0.165 A 
ATOM     12  O   UNL     1       7.526  -1.905  -2.958  1.00  0.00    -0.454 OA
ATOM     13  O   UNL     1       9.587  -1.248  -2.568  1.00  0.00    -0.454 OA
ATOM     14  C   UNL     1       8.860  -2.287  -3.178  1.00  0.00     0.468 C 
ENDBRANCH   5   6
ENDBRANCH   1   5
TORSDOF 3
ENDMDL
MODEL 2
REMARK VINA RESULT:      -7.5      1.924      2.364
REMARK SMILES CC(=O)CCc1ccc2c(c1)OCO2
REMARK SMILES IDX 4 1 2 2 1 3 3 4 5 5 6 6 7 7 11 8 8 9 10 10 9 11 12 12 14 13
REMARK SMILES IDX 13 14
REMARK H PARENT
REMARK Flexibility Score: inf
ROOT
ATOM      1  C   UNL     1       5.722   1.347  -0.232  1.00  0.00     0.080 C 
ENDROOT
BRANCH   1   2
ATOM      2  C   UNL     1       5.088   1.250   1.112  1.00  0.00     0.130 C 
ATOM      3  C   UNL     1       5.379   0.119   2.034  1.00  0.00     0.087 C 
ATOM      4  O   UNL     1       4.304   2.102   1.498  1.00  0.00    -0.300 OA
ENDBRANCH   1   2
BRANCH   1   5
ATOM      5  C   UNL     1       7.215   1.094  -0.155  1.00  0.00     0.043 C 
BRANCH   5   6
ATOM      6  C   UNL     1       7.585  -0.185  -0.788  1.00  0.00    -0.044 A 
ATOM      7  C   UNL     1       7.634  -0.327  -2.179  1.00  0.00     0.008 A 
ATOM      8  C   UNL     1       7.895  -1.271  -0.001  1.00  0.00     0.054 A 
ATOM      9  C   UNL     1       7.989  -1.551  -2.716  1.00  0.00     0.051 A 
ATOM     10  C   UNL     1       8.254  -2.506  -0.549  1.00  0.00     0.166 A 
ATOM     11  C   UNL     1       8.301  -2.647  -1.918  1.00  0.00     0.165 A 
ATOM     12  O   UNL     1       8.600  -3.717   0.011  1.00  0.00    -0.454 OA
ATOM     13  O   UNL     1       8.680  -3.956  -2.173  1.00  0.00    -0.454 OA
ATOM     14  C   UNL     1       8.968  -4.644  -0.978  1.00  0.00     0.468 C 
ENDBRANCH   5   6
ENDBRANCH   1   5
TORSDOF 3
ENDMDL
MODEL 3
REMARK VINA RESULT:      -7.2      2.064      2.641
REMARK SMILES CC(=O)CCc1ccc2c(c1)OCO2
REMARK SMILES IDX 4 1 2 2 1 3 3 4 5 5 6 6 7 7 11 8 8 9 10 10 9 11 12 12 14 13
REMARK SMILES IDX 13 14
REMARK H PARENT
REMARK Flexibility Score: inf
ROOT
ATOM      1  C   UNL     1       5.405  -0.086   2.000  1.00  0.00     0.080 C 
ENDROOT
BRANCH   1   2
ATOM      2  C   UNL     1       4.581   1.134   1.771  1.00  0.00     0.130 C 
ATOM      3  C   UNL     1       4.932   2.127   0.721  1.00  0.00     0.087 C 
ATOM      4  O   UNL     1       3.588   1.355   2.445  1.00  0.00    -0.300 OA
ENDBRANCH   1   2
BRANCH   1   5
ATOM      5  C   UNL     1       6.852   0.147   1.615  1.00  0.00     0.043 C 
BRANCH   5   6
ATOM      6  C   UNL     1       7.289  -0.770   0.547  1.00  0.00    -0.044 A 
ATOM      7  C   UNL     1       7.169  -0.430  -0.805  1.00  0.00     0.008 A 
ATOM      8  C   UNL     1       7.830  -1.992   0.876  1.00  0.00     0.054 A 
ATOM      9  C   UNL     1       7.597  -1.330  -1.764  1.00  0.00     0.051 A 
ATOM     10  C   UNL     1       8.261  -2.899  -0.097  1.00  0.00     0.166 A 
ATOM     11  C   UNL     1       8.143  -2.565  -1.428  1.00  0.00     0.165 A 
ATOM     12  O   UNL     1       8.823  -4.156  -0.027  1.00  0.00    -0.454 OA
ATOM     13  O   UNL     1       8.641  -3.635  -2.155  1.00  0.00    -0.454 OA
ATOM     14  C   UNL     1       9.166  -4.627  -1.305  1.00  0.00     0.468 C 
ENDBRANCH   5   6
ENDBRANCH   1   5
TORSDOF 3
ENDMDL
MODEL 4
REMARK VINA RESULT:      -7.1      1.243      1.445
REMARK SMILES CC(=O)CCc1ccc2c(c1)OCO2
REMARK SMILES IDX 4 1 2 2 1 3 3 4 5 5 6 6 7 7 11 8 8 9 10 10 9 11 12 12 14 13
REMARK SMILES IDX 13 14
REMARK H PARENT
REMARK Flexibility Score: inf
ROOT
ATOM      1  C   UNL     1       6.353   1.223   0.895  1.00  0.00     0.080 C 
ENDROOT
BRANCH   1   2
ATOM      2  C   UNL     1       5.657   0.400   1.924  1.00  0.00     0.130 C 
ATOM      3  C   UNL     1       6.275  -0.827   2.493  1.00  0.00     0.087 C 
ATOM      4  O   UNL     1       4.549   0.713   2.331  1.00  0.00    -0.300 OA
ENDBRANCH   1   2
BRANCH   1   5
ATOM      5  C   UNL     1       5.844   0.909  -0.498  1.00  0.00     0.043 C 
BRANCH   5   6
ATOM      6  C   UNL     1       6.807   0.096  -1.261  1.00  0.00    -0.044 A 
ATOM      7  C   UNL     1       7.517   0.626  -2.345  1.00  0.00     0.008 A 
ATOM      8  C   UNL     1       7.024  -1.217  -0.908  1.00  0.00     0.054 A 
ATOM      9  C   UNL     1       8.409  -0.185  -3.024  1.00  0.00     0.051 A 
ATOM     10  C   UNL     1       7.927  -2.031  -1.597  1.00  0.00     0.166 A 
ATOM     11  C   UNL     1       8.625  -1.511  -2.664  1.00  0.00     0.165 A 
ATOM     12  O   UNL     1       8.313  -3.346  -1.443  1.00  0.00    -0.454 OA
ATOM     13  O   UNL     1       9.434  -2.528  -3.148  1.00  0.00    -0.454 OA
ATOM     14  C   UNL     1       9.334  -3.681  -2.347  1.00  0.00     0.468 C 
ENDBRANCH   5   6
ENDBRANCH   1   5
TORSDOF 3
ENDMDL
MODEL 5
REMARK VINA RESULT:      -6.8      1.176      5.174
REMARK SMILES CC(=O)CCc1ccc2c(c1)OCO2
REMARK SMILES IDX 4 1 2 2 1 3 3 4 5 5 6 6 7 7 11 8 8 9 10 10 9 11 12 12 14 13
REMARK SMILES IDX 13 14
REMARK H PARENT
REMARK Flexibility Score: inf
ROOT
ATOM      1  C   UNL     1       8.389   0.199  -2.600  1.00  0.00     0.080 C 
ENDROOT
BRANCH   1   2
ATOM      2  C   UNL     1       8.072  -1.252  -2.720  1.00  0.00     0.130 C 
ATOM      3  C   UNL     1       9.129  -2.263  -2.988  1.00  0.00     0.087 C 
ATOM      4  O   UNL     1       6.926  -1.654  -2.602  1.00  0.00    -0.300 OA
ENDBRANCH   1   2
BRANCH   1   5
ATOM      5  C   UNL     1       8.897   0.538  -1.213  1.00  0.00     0.043 C 
BRANCH   5   6
ATOM      6  C   UNL     1       7.836   0.414  -0.197  1.00  0.00    -0.044 A 
ATOM      7  C   UNL     1       7.904  -0.544   0.821  1.00  0.00     0.008 A 
ATOM      8  C   UNL     1       6.749   1.257  -0.240  1.00  0.00     0.054 A 
ATOM      9  C   UNL     1       6.879  -0.613   1.747  1.00  0.00     0.051 A 
ATOM     10  C   UNL     1       5.716   1.184   0.699  1.00  0.00     0.166 A 
ATOM     11  C   UNL     1       5.781   0.240   1.700  1.00  0.00     0.165 A 
ATOM     12  O   UNL     1       4.547   1.896   0.869  1.00  0.00    -0.454 OA
ATOM     13  O   UNL     1       4.641   0.396   2.473  1.00  0.00    -0.454 OA
ATOM     14  C   UNL     1       3.876   1.493   2.035  1.00  0.00     0.468 C 
ENDBRANCH   5   6
ENDBRANCH   1   5
TORSDOF 3
ENDMDL
