@<TRIPOS>MOLECULE
/home/cewinharhar/GITHUB/reincatalyze/data/processed/docking_pred/2023-May-25-1902_sub9_nm5_bs15_s42_ex16_mel10_mts10000_k50_ec01_g099_lra3e-4_lrc3e-3/d68da6ca94917019a71bc3feefe4e6b6d631e6ad_ligand_9.pdbqt
 14 15 0 0 0
SMALL
GASTEIGER

@<TRIPOS>ATOM
      1  C          8.3890    0.1990   -2.6000 C.3     1  UNL1        0.0800
      2  C          8.0720   -1.2520   -2.7200 C.2     1  UNL1        0.1300
      3  C          9.1290   -2.2630   -2.9880 C.3     1  UNL1        0.0870
      4  O          6.9260   -1.6540   -2.6020 O.2     1  UNL1       -0.3000
      5  C          8.8970    0.5380   -1.2130 C.3     1  UNL1        0.0430
      6  C          7.8360    0.4140   -0.1970 C.2     1  UNL1       -0.0440
      7  C          7.9040   -0.5440    0.8210 C.2     1  UNL1        0.0080
      8  C          6.7490    1.2570   -0.2400 C.2     1  UNL1        0.0540
      9  C          6.8790   -0.6130    1.7470 C.2     1  UNL1        0.0510
     10  C          5.7160    1.1840    0.6990 C.2     1  UNL1        0.1660
     11  C          5.7810    0.2400    1.7000 C.2     1  UNL1        0.1650
     12  O          4.5470    1.8960    0.8690 O.2     1  UNL1       -0.4540
     13  O          4.6410    0.3960    2.4730 O.2     1  UNL1       -0.4540
     14  C          3.8760    1.4930    2.0350 C.3     1  UNL1        0.4680
@<TRIPOS>BOND
     1     3     2    1
     2     2     4    2
     3     2     1    1
     4     1     5    1
     5     5     6    1
     6     8     6    2
     7     8    10    1
     8     6     7    1
     9    10    12    1
    10    10    11    2
    11     7     9    2
    12    12    14    1
    13    11     9    1
    14    11    13    1
    15    14    13    1
