@<TRIPOS>MOLECULE
/home/cewinharhar/GITHUB/reincatalyze/data/processed/docking_pred/2023-May-25-1902_sub9_nm5_bs15_s42_ex16_mel10_mts10000_k50_ec01_g099_lra3e-4_lrc3e-3/d68da6ca94917019a71bc3feefe4e6b6d631e6ad_ligand_9.pdbqt
 14 15 0 0 0
SMALL
GASTEIGER

@<TRIPOS>ATOM
      1  C          6.3530    1.2230    0.8950 C.3     1  UNL1        0.0800
      2  C          5.6570    0.4000    1.9240 C.2     1  UNL1        0.1300
      3  C          6.2750   -0.8270    2.4930 C.3     1  UNL1        0.0870
      4  O          4.5490    0.7130    2.3310 O.2     1  UNL1       -0.3000
      5  C          5.8440    0.9090   -0.4980 C.3     1  UNL1        0.0430
      6  C          6.8070    0.0960   -1.2610 C.2     1  UNL1       -0.0440
      7  C          7.5170    0.6260   -2.3450 C.2     1  UNL1        0.0080
      8  C          7.0240   -1.2170   -0.9080 C.2     1  UNL1        0.0540
      9  C          8.4090   -0.1850   -3.0240 C.2     1  UNL1        0.0510
     10  C          7.9270   -2.0310   -1.5970 C.2     1  UNL1        0.1660
     11  C          8.6250   -1.5110   -2.6640 C.2     1  UNL1        0.1650
     12  O          8.3130   -3.3460   -1.4430 O.2     1  UNL1       -0.4540
     13  O          9.4340   -2.5280   -3.1480 O.2     1  UNL1       -0.4540
     14  C          9.3340   -3.6810   -2.3470 C.3     1  UNL1        0.4680
@<TRIPOS>BOND
     1    13    11    1
     2    13    14    1
     3     9    11    2
     4     9     7    1
     5    11    10    1
     6    14    12    1
     7     7     6    2
     8    10    12    1
     9    10     8    2
    10     6     8    1
    11     6     5    1
    12     5     1    1
    13     1     2    1
    14     2     4    2
    15     2     3    1
