@<TRIPOS>MOLECULE
/home/cewinharhar/GITHUB/reincatalyze/data/processed/docking_pred/2023-May-25-1902_sub9_nm5_bs15_s42_ex16_mel10_mts10000_k50_ec01_g099_lra3e-4_lrc3e-3/d68da6ca94917019a71bc3feefe4e6b6d631e6ad_ligand_9.pdbqt
 14 15 0 0 0
SMALL
GASTEIGER

@<TRIPOS>ATOM
      1  C          5.7220    1.3470   -0.2320 C.3     1  UNL1        0.0800
      2  C          5.0880    1.2500    1.1120 C.2     1  UNL1        0.1300
      3  C          5.3790    0.1190    2.0340 C.3     1  UNL1        0.0870
      4  O          4.3040    2.1020    1.4980 O.2     1  UNL1       -0.3000
      5  C          7.2150    1.0940   -0.1550 C.3     1  UNL1        0.0430
      6  C          7.5850   -0.1850   -0.7880 C.2     1  UNL1       -0.0440
      7  C          7.6340   -0.3270   -2.1790 C.2     1  UNL1        0.0080
      8  C          7.8950   -1.2710   -0.0010 C.2     1  UNL1        0.0540
      9  C          7.9890   -1.5510   -2.7160 C.2     1  UNL1        0.0510
     10  C          8.2540   -2.5060   -0.5490 C.2     1  UNL1        0.1660
     11  C          8.3010   -2.6470   -1.9180 C.2     1  UNL1        0.1650
     12  O          8.6000   -3.7170    0.0110 O.2     1  UNL1       -0.4540
     13  O          8.6800   -3.9560   -2.1730 O.2     1  UNL1       -0.4540
     14  C          8.9680   -4.6440   -0.9780 C.3     1  UNL1        0.4680
@<TRIPOS>BOND
     1     9     7    1
     2     9    11    2
     3     7     6    2
     4    13    11    1
     5    13    14    1
     6    11    10    1
     7    14    12    1
     8     6     5    1
     9     6     8    1
    10    10     8    2
    11    10    12    1
    12     1     5    1
    13     1     2    1
    14     2     4    2
    15     2     3    1
