@<TRIPOS>MOLECULE
/home/cewinharhar/GITHUB/reincatalyze/data/processed/docking_pred/2023-May-25-1902_sub9_nm5_bs15_s42_ex16_mel10_mts10000_k50_ec01_g099_lra3e-4_lrc3e-3/d6fa7c89c21ca11aa73af88b15ecc664e93337c3_ligand_9.pdbqt
 14 15 0 0 0
SMALL
GASTEIGER

@<TRIPOS>ATOM
      1  C          6.3980    1.1860    0.9420 C.3     1  UNL1        0.0800
      2  C          5.6580    0.3700    1.9440 C.2     1  UNL1        0.1300
      3  C          6.2460   -0.8620    2.5350 C.3     1  UNL1        0.0870
      4  O          4.5400    0.6920    2.3130 O.2     1  UNL1       -0.3000
      5  C          5.8920    0.9230   -0.4630 C.3     1  UNL1        0.0430
      6  C          6.8360    0.0970   -1.2370 C.2     1  UNL1       -0.0440
      7  C          7.5180    0.6090   -2.3470 C.2     1  UNL1        0.0080
      8  C          7.0610   -1.2090   -0.8680 C.2     1  UNL1        0.0540
      9  C          8.3920   -0.2130   -3.0350 C.2     1  UNL1        0.0510
     10  C          7.9470   -2.0360   -1.5660 C.2     1  UNL1        0.1660
     11  C          8.6170   -1.5330   -2.6590 C.2     1  UNL1        0.1650
     12  O          8.3360   -3.3480   -1.4010 O.2     1  UNL1       -0.4540
     13  O          9.4140   -2.5580   -3.1470 O.2     1  UNL1       -0.4540
     14  C          9.3350   -3.6980   -2.3250 C.3     1  UNL1        0.4680
@<TRIPOS>BOND
     1    13    11    1
     2    13    14    1
     3     9    11    2
     4     9     7    1
     5    11    10    1
     6     7     6    2
     7    14    12    1
     8    10    12    1
     9    10     8    2
    10     6     8    1
    11     6     5    1
    12     5     1    1
    13     1     2    1
    14     2     4    2
    15     2     3    1
