@<TRIPOS>MOLECULE
/home/cewinharhar/GITHUB/reincatalyze/data/processed/docking_pred/2023-May-25-1902_sub9_nm5_bs15_s42_ex16_mel10_mts10000_k50_ec01_g099_lra3e-4_lrc3e-3/d6fa7c89c21ca11aa73af88b15ecc664e93337c3_ligand_9.pdbqt
 14 15 0 0 0
SMALL
GASTEIGER

@<TRIPOS>ATOM
      1  C          6.6440    0.6510    1.4960 C.3     1  UNL1        0.0800
      2  C          5.2330    1.1250    1.5350 C.2     1  UNL1        0.1300
      3  C          4.7270    2.1500    0.5840 C.3     1  UNL1        0.0870
      4  O          4.4460    0.6830    2.3560 O.2     1  UNL1       -0.3000
      5  C          7.2830    0.9340    0.1510 C.3     1  UNL1        0.0430
      6  C          7.6310   -0.3080   -0.5620 C.2     1  UNL1       -0.0440
      7  C          7.6250   -0.3770   -1.9600 C.2     1  UNL1        0.0080
      8  C          7.9730   -1.4330    0.1540 C.2     1  UNL1        0.0540
      9  C          7.9600   -1.5700   -2.5740 C.2     1  UNL1        0.0510
     10  C          8.3120   -2.6360   -0.4720 C.2     1  UNL1        0.1660
     11  C          8.3050   -2.7050   -1.8470 C.2     1  UNL1        0.1650
     12  O          8.6820   -3.8740    0.0100 O.2     1  UNL1       -0.4540
     13  O          8.6760   -3.9970   -2.1850 O.2     1  UNL1       -0.4540
     14  C          9.0120   -4.7450   -1.0410 C.3     1  UNL1        0.4680
@<TRIPOS>BOND
     1     9     7    1
     2     9    11    2
     3    13    11    1
     4    13    14    1
     5     7     6    2
     6    11    10    1
     7    14    12    1
     8     6     5    1
     9     6     8    1
    10    10    12    1
    11    10     8    2
    12     5     1    1
    13     3     2    1
    14     1     2    1
    15     2     4    2
