@<TRIPOS>MOLECULE
/home/cewinharhar/GITHUB/reincatalyze/data/processed/docking_pred/2023-May-25-1902_sub9_nm5_bs15_s42_ex16_mel10_mts10000_k50_ec01_g099_lra3e-4_lrc3e-3/d6fa7c89c21ca11aa73af88b15ecc664e93337c3_ligand_9.pdbqt
 14 15 0 0 0
SMALL
GASTEIGER

@<TRIPOS>ATOM
      1  C          5.7220    1.3520   -0.2940 C.3     1  UNL1        0.0800
      2  C          5.0930    1.2690    1.0540 C.2     1  UNL1        0.1300
      3  C          5.3690    0.1360    1.9770 C.3     1  UNL1        0.0870
      4  O          4.3270    2.1360    1.4420 O.2     1  UNL1       -0.3000
      5  C          7.2160    1.1060   -0.2200 C.3     1  UNL1        0.0430
      6  C          7.5900   -0.1780   -0.8390 C.2     1  UNL1       -0.0440
      7  C          7.6600   -0.3290   -2.2280 C.2     1  UNL1        0.0080
      8  C          7.8820   -1.2610   -0.0410 C.2     1  UNL1        0.0540
      9  C          8.0180   -1.5580   -2.7530 C.2     1  UNL1        0.0510
     10  C          8.2430   -2.5010   -0.5760 C.2     1  UNL1        0.1660
     11  C          8.3110   -2.6500   -1.9430 C.2     1  UNL1        0.1650
     12  O          8.5740   -3.7100   -0.0030 O.2     1  UNL1       -0.4540
     13  O          8.6880   -3.9620   -2.1840 O.2     1  UNL1       -0.4540
     14  C          8.9530   -4.6440   -0.9820 C.3     1  UNL1        0.4680
@<TRIPOS>BOND
     1     9     7    1
     2     9    11    2
     3     7     6    2
     4    13    11    1
     5    13    14    1
     6    11    10    1
     7    14    12    1
     8     6     5    1
     9     6     8    1
    10    10     8    2
    11    10    12    1
    12     1     5    1
    13     1     2    1
    14     2     4    2
    15     2     3    1
