@<TRIPOS>MOLECULE
/home/cewinharhar/GITHUB/reincatalyze/data/processed/docking_pred/2023-May-25-1902_sub9_nm5_bs15_s42_ex16_mel10_mts10000_k50_ec01_g099_lra3e-4_lrc3e-3/d6fa7c89c21ca11aa73af88b15ecc664e93337c3_ligand_9.pdbqt
 14 15 0 0 0
SMALL
GASTEIGER

@<TRIPOS>ATOM
      1  C          8.2240    0.0760   -2.7990 C.3     1  UNL1        0.0800
      2  C          8.0310   -1.4000   -2.8520 C.2     1  UNL1        0.1300
      3  C          9.1830   -2.3360   -2.9510 C.3     1  UNL1        0.0870
      4  O          6.9120   -1.8870   -2.8140 O.2     1  UNL1       -0.3000
      5  C          8.7950    0.5090   -1.4640 C.3     1  UNL1        0.0430
      6  C          7.8050    0.3840   -0.3800 C.2     1  UNL1       -0.0440
      7  C          7.9630   -0.5470    0.6540 C.2     1  UNL1        0.0080
      8  C          6.6950    1.1980   -0.3720 C.2     1  UNL1        0.0540
      9  C          7.0020   -0.6190    1.6450 C.2     1  UNL1        0.0510
     10  C          5.7260    1.1210    0.6330 C.2     1  UNL1        0.1660
     11  C          5.8810    0.2050    1.6500 C.2     1  UNL1        0.1650
     12  O          4.5520    1.8080    0.8610 O.2     1  UNL1       -0.4540
     13  O          4.7880    0.3500    2.4900 O.2     1  UNL1       -0.4540
     14  C          3.9670    1.4170    2.0770 C.3     1  UNL1        0.4680
@<TRIPOS>BOND
     1     3     2    1
     2     2     4    2
     3     2     1    1
     4     1     5    1
     5     5     6    1
     6     6     8    2
     7     6     7    1
     8     8    10    1
     9    10    12    1
    10    10    11    2
    11     7     9    2
    12    12    14    1
    13     9    11    1
    14    11    13    1
    15    14    13    1
