@<TRIPOS>MOLECULE
/home/cewinharhar/GITHUB/reincatalyze/data/processed/docking_pred/2023-May-25-1902_sub9_nm5_bs15_s42_ex16_mel10_mts10000_k50_ec01_g099_lra3e-4_lrc3e-3/d6fa7c89c21ca11aa73af88b15ecc664e93337c3_ligand_9.pdbqt
 14 15 0 0 0
SMALL
GASTEIGER

@<TRIPOS>ATOM
      1  C          5.5080    1.9320    1.2500 C.3     1  UNL1        0.0800
      2  C          5.0420    0.7280    1.9920 C.2     1  UNL1        0.1300
      3  C          5.8980   -0.4800    2.1350 C.3     1  UNL1        0.0870
      4  O          3.9360    0.6980    2.5080 O.2     1  UNL1       -0.3000
      5  C          5.3870    1.7360   -0.2480 C.3     1  UNL1        0.0430
      6  C          6.5580    1.0340   -0.8030 C.2     1  UNL1       -0.0440
      7  C          7.8640    1.4670   -0.5430 C.2     1  UNL1        0.0080
      8  C          6.3760   -0.0760   -1.5960 C.2     1  UNL1        0.0540
      9  C          8.9240    0.7680   -1.0900 C.2     1  UNL1        0.0510
     10  C          7.4510   -0.7800   -2.1470 C.2     1  UNL1        0.1660
     11  C          8.7360   -0.3540   -1.8920 C.2     1  UNL1        0.1650
     12  O          7.5300   -1.8940   -2.9540 O.2     1  UNL1       -0.4540
     13  O          9.5860   -1.2260   -2.5540 O.2     1  UNL1       -0.4540
     14  C          8.8670   -2.2700   -3.1650 C.3     1  UNL1        0.4680
@<TRIPOS>BOND
     1    14    12    1
     2    14    13    1
     3    12    10    1
     4    13    11    1
     5    10    11    2
     6    10     8    1
     7    11     9    1
     8     8     6    2
     9     9     7    2
    10     6     7    1
    11     6     5    1
    12     5     1    1
    13     1     2    1
    14     2     3    1
    15     2     4    2
