MODEL 1
REMARK VINA RESULT:      -7.7      0.000      0.000
REMARK SMILES CC(=O)CCc1ccc2c(c1)OCO2
REMARK SMILES IDX 4 1 2 2 1 3 3 4 5 5 6 6 7 7 11 8 8 9 10 10 9 11 12 12 14 13
REMARK SMILES IDX 13 14
REMARK H PARENT
REMARK Flexibility Score: inf
ROOT
ATOM      1  C   UNL     1       5.508   1.932   1.250  1.00  0.00     0.080 C 
ENDROOT
BRANCH   1   2
ATOM      2  C   UNL     1       5.042   0.728   1.992  1.00  0.00     0.130 C 
ATOM      3  C   UNL     1       5.898  -0.480   2.135  1.00  0.00     0.087 C 
ATOM      4  O   UNL     1       3.936   0.698   2.508  1.00  0.00    -0.300 OA
ENDBRANCH   1   2
BRANCH   1   5
ATOM      5  C   UNL     1       5.387   1.736  -0.248  1.00  0.00     0.043 C 
BRANCH   5   6
ATOM      6  C   UNL     1       6.558   1.034  -0.803  1.00  0.00    -0.044 A 
ATOM      7  C   UNL     1       7.864   1.467  -0.543  1.00  0.00     0.008 A 
ATOM      8  C   UNL     1       6.376  -0.076  -1.596  1.00  0.00     0.054 A 
ATOM      9  C   UNL     1       8.924   0.768  -1.090  1.00  0.00     0.051 A 
ATOM     10  C   UNL     1       7.451  -0.780  -2.147  1.00  0.00     0.166 A 
ATOM     11  C   UNL     1       8.736  -0.354  -1.892  1.00  0.00     0.165 A 
ATOM     12  O   UNL     1       7.530  -1.894  -2.954  1.00  0.00    -0.454 OA
ATOM     13  O   UNL     1       9.586  -1.226  -2.554  1.00  0.00    -0.454 OA
ATOM     14  C   UNL     1       8.867  -2.270  -3.165  1.00  0.00     0.468 C 
ENDBRANCH   5   6
ENDBRANCH   1   5
TORSDOF 3
ENDMDL
MODEL 2
REMARK VINA RESULT:      -7.5      1.919      2.374
REMARK SMILES CC(=O)CCc1ccc2c(c1)OCO2
REMARK SMILES IDX 4 1 2 2 1 3 3 4 5 5 6 6 7 7 11 8 8 9 10 10 9 11 12 12 14 13
REMARK SMILES IDX 13 14
REMARK H PARENT
REMARK Flexibility Score: inf
ROOT
ATOM      1  C   UNL     1       5.722   1.352  -0.294  1.00  0.00     0.080 C 
ENDROOT
BRANCH   1   2
ATOM      2  C   UNL     1       5.093   1.269   1.054  1.00  0.00     0.130 C 
ATOM      3  C   UNL     1       5.369   0.136   1.977  1.00  0.00     0.087 C 
ATOM      4  O   UNL     1       4.327   2.136   1.442  1.00  0.00    -0.300 OA
ENDBRANCH   1   2
BRANCH   1   5
ATOM      5  C   UNL     1       7.216   1.106  -0.220  1.00  0.00     0.043 C 
BRANCH   5   6
ATOM      6  C   UNL     1       7.590  -0.178  -0.839  1.00  0.00    -0.044 A 
ATOM      7  C   UNL     1       7.660  -0.329  -2.228  1.00  0.00     0.008 A 
ATOM      8  C   UNL     1       7.882  -1.261  -0.041  1.00  0.00     0.054 A 
ATOM      9  C   UNL     1       8.018  -1.558  -2.753  1.00  0.00     0.051 A 
ATOM     10  C   UNL     1       8.243  -2.501  -0.576  1.00  0.00     0.166 A 
ATOM     11  C   UNL     1       8.311  -2.650  -1.943  1.00  0.00     0.165 A 
ATOM     12  O   UNL     1       8.574  -3.710  -0.003  1.00  0.00    -0.454 OA
ATOM     13  O   UNL     1       8.688  -3.962  -2.184  1.00  0.00    -0.454 OA
ATOM     14  C   UNL     1       8.953  -4.644  -0.982  1.00  0.00     0.468 C 
ENDBRANCH   5   6
ENDBRANCH   1   5
TORSDOF 3
ENDMDL
MODEL 3
REMARK VINA RESULT:      -7.1      1.988      2.526
REMARK SMILES CC(=O)CCc1ccc2c(c1)OCO2
REMARK SMILES IDX 4 1 2 2 1 3 3 4 5 5 6 6 7 7 11 8 8 9 10 10 9 11 12 12 14 13
REMARK SMILES IDX 13 14
REMARK H PARENT
REMARK Flexibility Score: inf
ROOT
ATOM      1  C   UNL     1       6.644   0.651   1.496  1.00  0.00     0.080 C 
ENDROOT
BRANCH   1   2
ATOM      2  C   UNL     1       5.233   1.125   1.535  1.00  0.00     0.130 C 
ATOM      3  C   UNL     1       4.727   2.150   0.584  1.00  0.00     0.087 C 
ATOM      4  O   UNL     1       4.446   0.683   2.356  1.00  0.00    -0.300 OA
ENDBRANCH   1   2
BRANCH   1   5
ATOM      5  C   UNL     1       7.283   0.934   0.151  1.00  0.00     0.043 C 
BRANCH   5   6
ATOM      6  C   UNL     1       7.631  -0.308  -0.562  1.00  0.00    -0.044 A 
ATOM      7  C   UNL     1       7.625  -0.377  -1.960  1.00  0.00     0.008 A 
ATOM      8  C   UNL     1       7.973  -1.433   0.154  1.00  0.00     0.054 A 
ATOM      9  C   UNL     1       7.960  -1.570  -2.574  1.00  0.00     0.051 A 
ATOM     10  C   UNL     1       8.312  -2.636  -0.472  1.00  0.00     0.166 A 
ATOM     11  C   UNL     1       8.305  -2.705  -1.847  1.00  0.00     0.165 A 
ATOM     12  O   UNL     1       8.682  -3.874   0.010  1.00  0.00    -0.454 OA
ATOM     13  O   UNL     1       8.676  -3.997  -2.185  1.00  0.00    -0.454 OA
ATOM     14  C   UNL     1       9.012  -4.745  -1.041  1.00  0.00     0.468 C 
ENDBRANCH   5   6
ENDBRANCH   1   5
TORSDOF 3
ENDMDL
MODEL 4
REMARK VINA RESULT:      -7.1      1.266      1.482
REMARK SMILES CC(=O)CCc1ccc2c(c1)OCO2
REMARK SMILES IDX 4 1 2 2 1 3 3 4 5 5 6 6 7 7 11 8 8 9 10 10 9 11 12 12 14 13
REMARK SMILES IDX 13 14
REMARK H PARENT
REMARK Flexibility Score: inf
ROOT
ATOM      1  C   UNL     1       6.398   1.186   0.942  1.00  0.00     0.080 C 
ENDROOT
BRANCH   1   2
ATOM      2  C   UNL     1       5.658   0.370   1.944  1.00  0.00     0.130 C 
ATOM      3  C   UNL     1       6.246  -0.862   2.535  1.00  0.00     0.087 C 
ATOM      4  O   UNL     1       4.540   0.692   2.313  1.00  0.00    -0.300 OA
ENDBRANCH   1   2
BRANCH   1   5
ATOM      5  C   UNL     1       5.892   0.923  -0.463  1.00  0.00     0.043 C 
BRANCH   5   6
ATOM      6  C   UNL     1       6.836   0.097  -1.237  1.00  0.00    -0.044 A 
ATOM      7  C   UNL     1       7.518   0.609  -2.347  1.00  0.00     0.008 A 
ATOM      8  C   UNL     1       7.061  -1.209  -0.868  1.00  0.00     0.054 A 
ATOM      9  C   UNL     1       8.392  -0.213  -3.035  1.00  0.00     0.051 A 
ATOM     10  C   UNL     1       7.947  -2.036  -1.566  1.00  0.00     0.166 A 
ATOM     11  C   UNL     1       8.617  -1.533  -2.659  1.00  0.00     0.165 A 
ATOM     12  O   UNL     1       8.336  -3.348  -1.401  1.00  0.00    -0.454 OA
ATOM     13  O   UNL     1       9.414  -2.558  -3.147  1.00  0.00    -0.454 OA
ATOM     14  C   UNL     1       9.335  -3.698  -2.325  1.00  0.00     0.468 C 
ENDBRANCH   5   6
ENDBRANCH   1   5
TORSDOF 3
ENDMDL
MODEL 5
REMARK VINA RESULT:      -6.7      1.203      5.177
REMARK SMILES CC(=O)CCc1ccc2c(c1)OCO2
REMARK SMILES IDX 4 1 2 2 1 3 3 4 5 5 6 6 7 7 11 8 8 9 10 10 9 11 12 12 14 13
REMARK SMILES IDX 13 14
REMARK H PARENT
REMARK Flexibility Score: inf
ROOT
ATOM      1  C   UNL     1       8.224   0.076  -2.799  1.00  0.00     0.080 C 
ENDROOT
BRANCH   1   2
ATOM      2  C   UNL     1       8.031  -1.400  -2.852  1.00  0.00     0.130 C 
ATOM      3  C   UNL     1       9.183  -2.336  -2.951  1.00  0.00     0.087 C 
ATOM      4  O   UNL     1       6.912  -1.887  -2.814  1.00  0.00    -0.300 OA
ENDBRANCH   1   2
BRANCH   1   5
ATOM      5  C   UNL     1       8.795   0.509  -1.464  1.00  0.00     0.043 C 
BRANCH   5   6
ATOM      6  C   UNL     1       7.805   0.384  -0.380  1.00  0.00    -0.044 A 
ATOM      7  C   UNL     1       7.963  -0.547   0.654  1.00  0.00     0.008 A 
ATOM      8  C   UNL     1       6.695   1.198  -0.372  1.00  0.00     0.054 A 
ATOM      9  C   UNL     1       7.002  -0.619   1.645  1.00  0.00     0.051 A 
ATOM     10  C   UNL     1       5.726   1.121   0.633  1.00  0.00     0.166 A 
ATOM     11  C   UNL     1       5.881   0.205   1.650  1.00  0.00     0.165 A 
ATOM     12  O   UNL     1       4.552   1.808   0.861  1.00  0.00    -0.454 OA
ATOM     13  O   UNL     1       4.788   0.350   2.490  1.00  0.00    -0.454 OA
ATOM     14  C   UNL     1       3.967   1.417   2.077  1.00  0.00     0.468 C 
ENDBRANCH   5   6
ENDBRANCH   1   5
TORSDOF 3
ENDMDL
