@<TRIPOS>MOLECULE
/home/cewinharhar/GITHUB/reincatalyze/data/processed/docking_pred/2023-May-25-1902_sub9_nm5_bs15_s42_ex16_mel10_mts10000_k50_ec01_g099_lra3e-4_lrc3e-3/d98db6e7330c4682e6208573911aa9edae27e8f4_ligand_9.pdbqt
 14 15 0 0 0
SMALL
GASTEIGER

@<TRIPOS>ATOM
      1  C          6.6890    0.2830    1.8820 C.3     1  UNL1        0.0800
      2  C          5.3610    0.9100    1.6340 C.2     1  UNL1        0.1300
      3  C          5.1470    1.8700    0.5180 C.3     1  UNL1        0.0870
      4  O          4.4030    0.6520    2.3450 O.2     1  UNL1       -0.3000
      5  C          6.8420   -1.0080    1.1040 C.3     1  UNL1        0.0430
      6  C          7.4330   -0.7780   -0.2260 C.2     1  UNL1       -0.0440
      7  C          6.8460   -1.2900   -1.3880 C.2     1  UNL1        0.0080
      8  C          8.5900   -0.0400   -0.3400 C.2     1  UNL1        0.0540
      9  C          7.4450   -1.0410   -2.6090 C.2     1  UNL1        0.0510
     10  C          9.1920    0.2090   -1.5770 C.2     1  UNL1        0.1660
     11  C          8.6150   -0.2950   -2.7210 C.2     1  UNL1        0.1650
     12  O         10.3250    0.9010   -1.9480 O.2     1  UNL1       -0.4540
     13  O          9.4140    0.1020   -3.7820 O.2     1  UNL1       -0.4540
     14  C         10.4580    0.9390   -3.3450 C.3     1  UNL1        0.4680
@<TRIPOS>BOND
     1    13    14    1
     2    13    11    1
     3    14    12    1
     4    11     9    2
     5    11    10    1
     6     9     7    1
     7    12    10    1
     8    10     8    2
     9     7     6    2
    10     8     6    1
    11     6     5    1
    12     3     2    1
    13     5     1    1
    14     2     1    1
    15     2     4    2
