@<TRIPOS>MOLECULE
/home/cewinharhar/GITHUB/reincatalyze/data/processed/docking_pred/2023-May-25-1902_sub9_nm5_bs15_s42_ex16_mel10_mts10000_k50_ec01_g099_lra3e-4_lrc3e-3/d98db6e7330c4682e6208573911aa9edae27e8f4_ligand_9.pdbqt
 14 15 0 0 0
SMALL
GASTEIGER

@<TRIPOS>ATOM
      1  C          6.0390    1.3740    1.1430 C.3     1  UNL1        0.0800
      2  C          5.5070    0.2810    2.0030 C.2     1  UNL1        0.1300
      3  C          6.3000   -0.9440    2.2910 C.3     1  UNL1        0.0870
      4  O          4.3950    0.3600    2.5000 O.2     1  UNL1       -0.3000
      5  C          5.6730    1.1570   -0.3120 C.3     1  UNL1        0.0430
      6  C          6.7780    0.5420   -1.0680 C.2     1  UNL1       -0.0440
      7  C          6.6110   -0.6630   -1.7600 C.2     1  UNL1        0.0080
      8  C          8.0070    1.1600   -1.1050 C.2     1  UNL1        0.0540
      9  C          7.6840   -1.1930   -2.4530 C.2     1  UNL1        0.0510
     10  C          9.0880    0.6210   -1.8080 C.2     1  UNL1        0.1660
     11  C          8.9260   -0.5660   -2.4870 C.2     1  UNL1        0.1650
     12  O         10.3900    1.0360   -1.9930 O.2     1  UNL1       -0.4540
     13  O         10.1430   -0.8570   -3.0830 O.2     1  UNL1       -0.4540
     14  C         11.0730    0.1780   -2.8700 C.3     1  UNL1        0.4680
@<TRIPOS>BOND
     1    13    14    1
     2    13    11    1
     3    14    12    1
     4    11     9    2
     5    11    10    1
     6     9     7    1
     7    12    10    1
     8    10     8    2
     9     7     6    2
    10     8     6    1
    11     6     5    1
    12     5     1    1
    13     1     2    1
    14     2     3    1
    15     2     4    2
