MODEL 1
REMARK VINA RESULT:      -8.0      0.000      0.000
REMARK SMILES CC(=O)CCc1ccc2c(c1)OCO2
REMARK SMILES IDX 4 1 2 2 1 3 3 4 5 5 6 6 7 7 11 8 8 9 10 10 9 11 12 12 14 13
REMARK SMILES IDX 13 14
REMARK H PARENT
REMARK Flexibility Score: inf
ROOT
ATOM      1  C   UNL     1       6.248   1.336   1.130  1.00  0.00     0.080 C 
ENDROOT
BRANCH   1   2
ATOM      2  C   UNL     1       5.634   0.264   1.963  1.00  0.00     0.130 C 
ATOM      3  C   UNL     1       6.337  -1.020   2.225  1.00  0.00     0.087 C 
ATOM      4  O   UNL     1       4.528   0.411   2.457  1.00  0.00    -0.300 OA
ENDBRANCH   1   2
BRANCH   1   5
ATOM      5  C   UNL     1       5.894   1.166  -0.334  1.00  0.00     0.043 C 
BRANCH   5   6
ATOM      6  C   UNL     1       6.965   0.480  -1.079  1.00  0.00    -0.044 A 
ATOM      7  C   UNL     1       8.274   0.973  -1.101  1.00  0.00     0.008 A 
ATOM      8  C   UNL     1       6.682  -0.676  -1.771  1.00  0.00     0.054 A 
ATOM      9  C   UNL     1       9.238   0.287  -1.817  1.00  0.00     0.051 A 
ATOM     10  C   UNL     1       7.660  -1.367  -2.493  1.00  0.00     0.166 A 
ATOM     11  C   UNL     1       8.949  -0.881  -2.516  1.00  0.00     0.165 A 
ATOM     12  O   UNL     1       7.631  -2.518  -3.251  1.00  0.00    -0.454 OA
ATOM     13  O   UNL     1       9.692  -1.754  -3.296  1.00  0.00    -0.454 OA
ATOM     14  C   UNL     1       8.916  -2.855  -3.707  1.00  0.00     0.468 C 
ENDBRANCH   5   6
ENDBRANCH   1   5
TORSDOF 3
ENDMDL
MODEL 2
REMARK VINA RESULT:      -7.4      1.106      1.334
REMARK SMILES CC(=O)CCc1ccc2c(c1)OCO2
REMARK SMILES IDX 4 1 2 2 1 3 3 4 5 5 6 6 7 7 11 8 8 9 10 10 9 11 12 12 14 13
REMARK SMILES IDX 13 14
REMARK H PARENT
REMARK Flexibility Score: inf
ROOT
ATOM      1  C   UNL     1       5.887   1.062  -0.303  1.00  0.00     0.080 C 
ENDROOT
BRANCH   1   2
ATOM      2  C   UNL     1       5.376   0.932   1.091  1.00  0.00     0.130 C 
ATOM      3  C   UNL     1       5.745  -0.223   1.953  1.00  0.00     0.087 C 
ATOM      4  O   UNL     1       4.635   1.776   1.568  1.00  0.00    -0.300 OA
ENDBRANCH   1   2
BRANCH   1   5
ATOM      5  C   UNL     1       7.402   1.086  -0.334  1.00  0.00     0.043 C 
BRANCH   5   6
ATOM      6  C   UNL     1       7.942   0.171  -1.356  1.00  0.00    -0.044 A 
ATOM      7  C   UNL     1       8.616   0.650  -2.485  1.00  0.00     0.008 A 
ATOM      8  C   UNL     1       7.788  -1.188  -1.204  1.00  0.00     0.054 A 
ATOM      9  C   UNL     1       9.102  -0.256  -3.410  1.00  0.00     0.051 A 
ATOM     10  C   UNL     1       8.282  -2.100  -2.142  1.00  0.00     0.166 A 
ATOM     11  C   UNL     1       8.944  -1.630  -3.254  1.00  0.00     0.165 A 
ATOM     12  O   UNL     1       8.257  -3.476  -2.218  1.00  0.00    -0.454 OA
ATOM     13  O   UNL     1       9.317  -2.739  -3.997  1.00  0.00    -0.454 OA
ATOM     14  C   UNL     1       8.981  -3.933  -3.332  1.00  0.00     0.468 C 
ENDBRANCH   5   6
ENDBRANCH   1   5
TORSDOF 3
ENDMDL
MODEL 3
REMARK VINA RESULT:      -7.3      1.088      2.081
REMARK SMILES CC(=O)CCc1ccc2c(c1)OCO2
REMARK SMILES IDX 4 1 2 2 1 3 3 4 5 5 6 6 7 7 11 8 8 9 10 10 9 11 12 12 14 13
REMARK SMILES IDX 13 14
REMARK H PARENT
REMARK Flexibility Score: inf
ROOT
ATOM      1  C   UNL     1       6.039   1.374   1.143  1.00  0.00     0.080 C 
ENDROOT
BRANCH   1   2
ATOM      2  C   UNL     1       5.507   0.281   2.003  1.00  0.00     0.130 C 
ATOM      3  C   UNL     1       6.300  -0.944   2.291  1.00  0.00     0.087 C 
ATOM      4  O   UNL     1       4.395   0.360   2.500  1.00  0.00    -0.300 OA
ENDBRANCH   1   2
BRANCH   1   5
ATOM      5  C   UNL     1       5.673   1.157  -0.312  1.00  0.00     0.043 C 
BRANCH   5   6
ATOM      6  C   UNL     1       6.778   0.542  -1.068  1.00  0.00    -0.044 A 
ATOM      7  C   UNL     1       6.611  -0.663  -1.760  1.00  0.00     0.008 A 
ATOM      8  C   UNL     1       8.007   1.160  -1.105  1.00  0.00     0.054 A 
ATOM      9  C   UNL     1       7.684  -1.193  -2.453  1.00  0.00     0.051 A 
ATOM     10  C   UNL     1       9.088   0.621  -1.808  1.00  0.00     0.166 A 
ATOM     11  C   UNL     1       8.926  -0.566  -2.487  1.00  0.00     0.165 A 
ATOM     12  O   UNL     1      10.390   1.036  -1.993  1.00  0.00    -0.454 OA
ATOM     13  O   UNL     1      10.143  -0.857  -3.083  1.00  0.00    -0.454 OA
ATOM     14  C   UNL     1      11.073   0.178  -2.870  1.00  0.00     0.468 C 
ENDBRANCH   5   6
ENDBRANCH   1   5
TORSDOF 3
ENDMDL
MODEL 4
REMARK VINA RESULT:      -7.3      1.038      1.510
REMARK SMILES CC(=O)CCc1ccc2c(c1)OCO2
REMARK SMILES IDX 4 1 2 2 1 3 3 4 5 5 6 6 7 7 11 8 8 9 10 10 9 11 12 12 14 13
REMARK SMILES IDX 13 14
REMARK H PARENT
REMARK Flexibility Score: inf
ROOT
ATOM      1  C   UNL     1       5.887  -0.504   1.570  1.00  0.00     0.080 C 
ENDROOT
BRANCH   1   2
ATOM      2  C   UNL     1       4.969   0.664   1.678  1.00  0.00     0.130 C 
ATOM      3  C   UNL     1       5.062   1.819   0.746  1.00  0.00     0.087 C 
ATOM      4  O   UNL     1       4.108   0.706   2.542  1.00  0.00    -0.300 OA
ENDBRANCH   1   2
BRANCH   1   5
ATOM      5  C   UNL     1       7.323  -0.059   1.377  1.00  0.00     0.043 C 
BRANCH   5   6
ATOM      6  C   UNL     1       7.788  -0.296  -0.001  1.00  0.00    -0.044 A 
ATOM      7  C   UNL     1       8.351   0.728  -0.771  1.00  0.00     0.008 A 
ATOM      8  C   UNL     1       7.673  -1.552  -0.553  1.00  0.00     0.054 A 
ATOM      9  C   UNL     1       8.771   0.446  -2.058  1.00  0.00     0.051 A 
ATOM     10  C   UNL     1       8.100  -1.832  -1.855  1.00  0.00     0.166 A 
ATOM     11  C   UNL     1       8.653  -0.824  -2.614  1.00  0.00     0.165 A 
ATOM     12  O   UNL     1       8.094  -2.979  -2.619  1.00  0.00    -0.454 OA
ATOM     13  O   UNL     1       8.979  -1.380  -3.841  1.00  0.00    -0.454 OA
ATOM     14  C   UNL     1       8.725  -2.765  -3.855  1.00  0.00     0.468 C 
ENDBRANCH   5   6
ENDBRANCH   1   5
TORSDOF 3
ENDMDL
MODEL 5
REMARK VINA RESULT:      -7.0      1.498      2.562
REMARK SMILES CC(=O)CCc1ccc2c(c1)OCO2
REMARK SMILES IDX 4 1 2 2 1 3 3 4 5 5 6 6 7 7 11 8 8 9 10 10 9 11 12 12 14 13
REMARK SMILES IDX 13 14
REMARK H PARENT
REMARK Flexibility Score: inf
ROOT
ATOM      1  C   UNL     1       6.689   0.283   1.882  1.00  0.00     0.080 C 
ENDROOT
BRANCH   1   2
ATOM      2  C   UNL     1       5.361   0.910   1.634  1.00  0.00     0.130 C 
ATOM      3  C   UNL     1       5.147   1.870   0.518  1.00  0.00     0.087 C 
ATOM      4  O   UNL     1       4.403   0.652   2.345  1.00  0.00    -0.300 OA
ENDBRANCH   1   2
BRANCH   1   5
ATOM      5  C   UNL     1       6.842  -1.008   1.104  1.00  0.00     0.043 C 
BRANCH   5   6
ATOM      6  C   UNL     1       7.433  -0.778  -0.226  1.00  0.00    -0.044 A 
ATOM      7  C   UNL     1       6.846  -1.290  -1.388  1.00  0.00     0.008 A 
ATOM      8  C   UNL     1       8.590  -0.040  -0.340  1.00  0.00     0.054 A 
ATOM      9  C   UNL     1       7.445  -1.041  -2.609  1.00  0.00     0.051 A 
ATOM     10  C   UNL     1       9.192   0.209  -1.577  1.00  0.00     0.166 A 
ATOM     11  C   UNL     1       8.615  -0.295  -2.721  1.00  0.00     0.165 A 
ATOM     12  O   UNL     1      10.325   0.901  -1.948  1.00  0.00    -0.454 OA
ATOM     13  O   UNL     1       9.414   0.102  -3.782  1.00  0.00    -0.454 OA
ATOM     14  C   UNL     1      10.458   0.939  -3.345  1.00  0.00     0.468 C 
ENDBRANCH   5   6
ENDBRANCH   1   5
TORSDOF 3
ENDMDL
