@<TRIPOS>MOLECULE
/home/cewinharhar/GITHUB/reincatalyze/data/processed/docking_pred/2023-May-25-1902_sub9_nm5_bs15_s42_ex16_mel10_mts10000_k50_ec01_g099_lra3e-4_lrc3e-3/d98db6e7330c4682e6208573911aa9edae27e8f4_ligand_9.pdbqt
 14 15 0 0 0
SMALL
GASTEIGER

@<TRIPOS>ATOM
      1  C          5.8870    1.0620   -0.3030 C.3     1  UNL1        0.0800
      2  C          5.3760    0.9320    1.0910 C.2     1  UNL1        0.1300
      3  C          5.7450   -0.2230    1.9530 C.3     1  UNL1        0.0870
      4  O          4.6350    1.7760    1.5680 O.2     1  UNL1       -0.3000
      5  C          7.4020    1.0860   -0.3340 C.3     1  UNL1        0.0430
      6  C          7.9420    0.1710   -1.3560 C.2     1  UNL1       -0.0440
      7  C          8.6160    0.6500   -2.4850 C.2     1  UNL1        0.0080
      8  C          7.7880   -1.1880   -1.2040 C.2     1  UNL1        0.0540
      9  C          9.1020   -0.2560   -3.4100 C.2     1  UNL1        0.0510
     10  C          8.2820   -2.1000   -2.1420 C.2     1  UNL1        0.1660
     11  C          8.9440   -1.6300   -3.2540 C.2     1  UNL1        0.1650
     12  O          8.2570   -3.4760   -2.2180 O.2     1  UNL1       -0.4540
     13  O          9.3170   -2.7390   -3.9970 O.2     1  UNL1       -0.4540
     14  C          8.9810   -3.9330   -3.3320 C.3     1  UNL1        0.4680
@<TRIPOS>BOND
     1    13    14    1
     2    13    11    1
     3     9    11    2
     4     9     7    1
     5    14    12    1
     6    11    10    1
     7     7     6    2
     8    12    10    1
     9    10     8    2
    10     6     8    1
    11     6     5    1
    12     5     1    1
    13     1     2    1
    14     2     4    2
    15     2     3    1
