@<TRIPOS>MOLECULE
/home/cewinharhar/GITHUB/reincatalyze/data/processed/docking_pred/2023-May-25-1902_sub9_nm5_bs15_s42_ex16_mel10_mts10000_k50_ec01_g099_lra3e-4_lrc3e-3/da55d276f49f8aea3f2b333b6115ea57fe53d1b0_ligand_9.pdbqt
 14 15 0 0 0
SMALL
GASTEIGER

@<TRIPOS>ATOM
      1  C          6.3870    1.2160    0.9250 C.3     1  UNL1        0.0800
      2  C          5.6690    0.3810    1.9270 C.2     1  UNL1        0.1300
      3  C          6.2830   -0.8420    2.5100 C.3     1  UNL1        0.0870
      4  O          4.5460    0.6790    2.3010 O.2     1  UNL1       -0.3000
      5  C          5.8850    0.9440   -0.4800 C.3     1  UNL1        0.0430
      6  C          6.8310    0.1150   -1.2480 C.2     1  UNL1       -0.0440
      7  C          7.5260    0.6270   -2.3500 C.2     1  UNL1        0.0080
      8  C          7.0450   -1.1940   -0.8810 C.2     1  UNL1        0.0540
      9  C          8.4020   -0.1980   -3.0320 C.2     1  UNL1        0.0510
     10  C          7.9320   -2.0230   -1.5730 C.2     1  UNL1        0.1660
     11  C          8.6150   -1.5210   -2.6580 C.2     1  UNL1        0.1650
     12  O          8.3120   -3.3380   -1.4090 O.2     1  UNL1       -0.4540
     13  O          9.4100   -2.5490   -3.1420 O.2     1  UNL1       -0.4540
     14  C          9.3170   -3.6910   -2.3240 C.3     1  UNL1        0.4680
@<TRIPOS>BOND
     1    13    11    1
     2    13    14    1
     3     9    11    2
     4     9     7    1
     5    11    10    1
     6     7     6    2
     7    14    12    1
     8    10    12    1
     9    10     8    2
    10     6     8    1
    11     6     5    1
    12     5     1    1
    13     1     2    1
    14     2     4    2
    15     2     3    1
