@<TRIPOS>MOLECULE
/home/cewinharhar/GITHUB/reincatalyze/data/processed/docking_pred/2023-May-25-1902_sub9_nm5_bs15_s42_ex16_mel10_mts10000_k50_ec01_g099_lra3e-4_lrc3e-3/da55d276f49f8aea3f2b333b6115ea57fe53d1b0_ligand_9.pdbqt
 14 15 0 0 0
SMALL
GASTEIGER

@<TRIPOS>ATOM
      1  C          5.5400   -0.0100    1.9480 C.3     1  UNL1        0.0800
      2  C          4.6730    1.1620    1.6440 C.2     1  UNL1        0.1300
      3  C          4.9860    2.0970    0.5300 C.3     1  UNL1        0.0870
      4  O          3.6740    1.3910    2.3070 O.2     1  UNL1       -0.3000
      5  C          6.9680    0.2300    1.4990 C.3     1  UNL1        0.0430
      6  C          7.3800   -0.7250    0.4550 C.2     1  UNL1       -0.0440
      7  C          7.2840   -0.4110   -0.9050 C.2     1  UNL1        0.0080
      8  C          7.8760   -1.9580    0.8160 C.2     1  UNL1        0.0540
      9  C          7.6870   -1.3470   -1.8400 C.2     1  UNL1        0.0510
     10  C          8.2830   -2.9000   -0.1330 C.2     1  UNL1        0.1660
     11  C          8.1870   -2.5930   -1.4720 C.2     1  UNL1        0.1650
     12  O          8.8010   -4.1740   -0.0300 O.2     1  UNL1       -0.4540
     13  O          8.6540   -3.6950   -2.1710 O.2     1  UNL1       -0.4540
     14  C          9.1380   -4.6850   -1.2950 C.3     1  UNL1        0.4680
@<TRIPOS>BOND
     1    13    11    1
     2    13    14    1
     3     9    11    2
     4     9     7    1
     5    11    10    1
     6    14    12    1
     7     7     6    2
     8    10    12    1
     9    10     8    2
    10     6     8    1
    11     6     5    1
    12     3     2    1
    13     5     1    1
    14     2     1    1
    15     2     4    2
