MODEL 1
REMARK VINA RESULT:      -7.7      0.000      0.000
REMARK SMILES CC(=O)CCc1ccc2c(c1)OCO2
REMARK SMILES IDX 4 1 2 2 1 3 3 4 5 5 6 6 7 7 11 8 8 9 10 10 9 11 12 12 14 13
REMARK SMILES IDX 13 14
REMARK H PARENT
REMARK Flexibility Score: inf
ROOT
ATOM      1  C   UNL     1       5.502   1.924   1.252  1.00  0.00     0.080 C 
ENDROOT
BRANCH   1   2
ATOM      2  C   UNL     1       5.035   0.717   1.989  1.00  0.00     0.130 C 
ATOM      3  C   UNL     1       5.889  -0.493   2.127  1.00  0.00     0.087 C 
ATOM      4  O   UNL     1       3.929   0.687   2.505  1.00  0.00    -0.300 OA
ENDBRANCH   1   2
BRANCH   1   5
ATOM      5  C   UNL     1       5.383   1.733  -0.247  1.00  0.00     0.043 C 
BRANCH   5   6
ATOM      6  C   UNL     1       6.555   1.032  -0.803  1.00  0.00    -0.044 A 
ATOM      7  C   UNL     1       7.860   1.466  -0.544  1.00  0.00     0.008 A 
ATOM      8  C   UNL     1       6.372  -0.079  -1.595  1.00  0.00     0.054 A 
ATOM      9  C   UNL     1       8.920   0.768  -1.092  1.00  0.00     0.051 A 
ATOM     10  C   UNL     1       7.448  -0.782  -2.146  1.00  0.00     0.166 A 
ATOM     11  C   UNL     1       8.732  -0.355  -1.893  1.00  0.00     0.165 A 
ATOM     12  O   UNL     1       7.527  -1.898  -2.952  1.00  0.00    -0.454 OA
ATOM     13  O   UNL     1       9.582  -1.227  -2.555  1.00  0.00    -0.454 OA
ATOM     14  C   UNL     1       8.864  -2.272  -3.165  1.00  0.00     0.468 C 
ENDBRANCH   5   6
ENDBRANCH   1   5
TORSDOF 3
ENDMDL
MODEL 2
REMARK VINA RESULT:      -7.5      1.940      2.391
REMARK SMILES CC(=O)CCc1ccc2c(c1)OCO2
REMARK SMILES IDX 4 1 2 2 1 3 3 4 5 5 6 6 7 7 11 8 8 9 10 10 9 11 12 12 14 13
REMARK SMILES IDX 13 14
REMARK H PARENT
REMARK Flexibility Score: inf
ROOT
ATOM      1  C   UNL     1       5.688   1.306  -0.298  1.00  0.00     0.080 C 
ENDROOT
BRANCH   1   2
ATOM      2  C   UNL     1       5.099   1.254   1.069  1.00  0.00     0.130 C 
ATOM      3  C   UNL     1       5.365   0.117   1.991  1.00  0.00     0.087 C 
ATOM      4  O   UNL     1       4.376   2.149   1.474  1.00  0.00    -0.300 OA
ENDBRANCH   1   2
BRANCH   1   5
ATOM      5  C   UNL     1       7.190   1.101  -0.259  1.00  0.00     0.043 C 
BRANCH   5   6
ATOM      6  C   UNL     1       7.580  -0.190  -0.853  1.00  0.00    -0.044 A 
ATOM      7  C   UNL     1       7.658  -0.365  -2.240  1.00  0.00     0.008 A 
ATOM      8  C   UNL     1       7.881  -1.255  -0.035  1.00  0.00     0.054 A 
ATOM      9  C   UNL     1       8.031  -1.599  -2.740  1.00  0.00     0.051 A 
ATOM     10  C   UNL     1       8.258  -2.500  -0.546  1.00  0.00     0.166 A 
ATOM     11  C   UNL     1       8.333  -2.674  -1.910  1.00  0.00     0.165 A 
ATOM     12  O   UNL     1       8.600  -3.696   0.049  1.00  0.00    -0.454 OA
ATOM     13  O   UNL     1       8.725  -3.986  -2.126  1.00  0.00    -0.454 OA
ATOM     14  C   UNL     1       8.993  -4.643  -0.911  1.00  0.00     0.468 C 
ENDBRANCH   5   6
ENDBRANCH   1   5
TORSDOF 3
ENDMDL
MODEL 3
REMARK VINA RESULT:      -7.2      2.098      2.635
REMARK SMILES CC(=O)CCc1ccc2c(c1)OCO2
REMARK SMILES IDX 4 1 2 2 1 3 3 4 5 5 6 6 7 7 11 8 8 9 10 10 9 11 12 12 14 13
REMARK SMILES IDX 13 14
REMARK H PARENT
REMARK Flexibility Score: inf
ROOT
ATOM      1  C   UNL     1       5.540  -0.010   1.948  1.00  0.00     0.080 C 
ENDROOT
BRANCH   1   2
ATOM      2  C   UNL     1       4.673   1.162   1.644  1.00  0.00     0.130 C 
ATOM      3  C   UNL     1       4.986   2.097   0.530  1.00  0.00     0.087 C 
ATOM      4  O   UNL     1       3.674   1.391   2.307  1.00  0.00    -0.300 OA
ENDBRANCH   1   2
BRANCH   1   5
ATOM      5  C   UNL     1       6.968   0.230   1.499  1.00  0.00     0.043 C 
BRANCH   5   6
ATOM      6  C   UNL     1       7.380  -0.725   0.455  1.00  0.00    -0.044 A 
ATOM      7  C   UNL     1       7.284  -0.411  -0.905  1.00  0.00     0.008 A 
ATOM      8  C   UNL     1       7.876  -1.958   0.816  1.00  0.00     0.054 A 
ATOM      9  C   UNL     1       7.687  -1.347  -1.840  1.00  0.00     0.051 A 
ATOM     10  C   UNL     1       8.283  -2.900  -0.133  1.00  0.00     0.166 A 
ATOM     11  C   UNL     1       8.187  -2.593  -1.472  1.00  0.00     0.165 A 
ATOM     12  O   UNL     1       8.801  -4.174  -0.030  1.00  0.00    -0.454 OA
ATOM     13  O   UNL     1       8.654  -3.695  -2.171  1.00  0.00    -0.454 OA
ATOM     14  C   UNL     1       9.138  -4.685  -1.295  1.00  0.00     0.468 C 
ENDBRANCH   5   6
ENDBRANCH   1   5
TORSDOF 3
ENDMDL
MODEL 4
REMARK VINA RESULT:      -7.1      1.259      1.469
REMARK SMILES CC(=O)CCc1ccc2c(c1)OCO2
REMARK SMILES IDX 4 1 2 2 1 3 3 4 5 5 6 6 7 7 11 8 8 9 10 10 9 11 12 12 14 13
REMARK SMILES IDX 13 14
REMARK H PARENT
REMARK Flexibility Score: inf
ROOT
ATOM      1  C   UNL     1       6.387   1.216   0.925  1.00  0.00     0.080 C 
ENDROOT
BRANCH   1   2
ATOM      2  C   UNL     1       5.669   0.381   1.927  1.00  0.00     0.130 C 
ATOM      3  C   UNL     1       6.283  -0.842   2.510  1.00  0.00     0.087 C 
ATOM      4  O   UNL     1       4.546   0.679   2.301  1.00  0.00    -0.300 OA
ENDBRANCH   1   2
BRANCH   1   5
ATOM      5  C   UNL     1       5.885   0.944  -0.480  1.00  0.00     0.043 C 
BRANCH   5   6
ATOM      6  C   UNL     1       6.831   0.115  -1.248  1.00  0.00    -0.044 A 
ATOM      7  C   UNL     1       7.526   0.627  -2.350  1.00  0.00     0.008 A 
ATOM      8  C   UNL     1       7.045  -1.194  -0.881  1.00  0.00     0.054 A 
ATOM      9  C   UNL     1       8.402  -0.198  -3.032  1.00  0.00     0.051 A 
ATOM     10  C   UNL     1       7.932  -2.023  -1.573  1.00  0.00     0.166 A 
ATOM     11  C   UNL     1       8.615  -1.521  -2.658  1.00  0.00     0.165 A 
ATOM     12  O   UNL     1       8.312  -3.338  -1.409  1.00  0.00    -0.454 OA
ATOM     13  O   UNL     1       9.410  -2.549  -3.142  1.00  0.00    -0.454 OA
ATOM     14  C   UNL     1       9.317  -3.691  -2.324  1.00  0.00     0.468 C 
ENDBRANCH   5   6
ENDBRANCH   1   5
TORSDOF 3
ENDMDL
MODEL 5
REMARK VINA RESULT:      -6.8      1.188      5.173
REMARK SMILES CC(=O)CCc1ccc2c(c1)OCO2
REMARK SMILES IDX 4 1 2 2 1 3 3 4 5 5 6 6 7 7 11 8 8 9 10 10 9 11 12 12 14 13
REMARK SMILES IDX 13 14
REMARK H PARENT
REMARK Flexibility Score: inf
ROOT
ATOM      1  C   UNL     1       8.303   0.200  -2.680  1.00  0.00     0.080 C 
ENDROOT
BRANCH   1   2
ATOM      2  C   UNL     1       8.040  -1.264  -2.754  1.00  0.00     0.130 C 
ATOM      3  C   UNL     1       9.130  -2.240  -3.022  1.00  0.00     0.087 C 
ATOM      4  O   UNL     1       6.914  -1.707  -2.596  1.00  0.00    -0.300 OA
ENDBRANCH   1   2
BRANCH   1   5
ATOM      5  C   UNL     1       8.831   0.597  -1.316  1.00  0.00     0.043 C 
BRANCH   5   6
ATOM      6  C   UNL     1       7.803   0.455  -0.270  1.00  0.00    -0.044 A 
ATOM      7  C   UNL     1       7.920  -0.498   0.749  1.00  0.00     0.008 A 
ATOM      8  C   UNL     1       6.698   1.276  -0.283  1.00  0.00     0.054 A 
ATOM      9  C   UNL     1       6.924  -0.585   1.704  1.00  0.00     0.051 A 
ATOM     10  C   UNL     1       5.694   1.185   0.686  1.00  0.00     0.166 A 
ATOM     11  C   UNL     1       5.808   0.247   1.687  1.00  0.00     0.165 A 
ATOM     12  O   UNL     1       4.518   1.874   0.887  1.00  0.00    -0.454 OA
ATOM     13  O   UNL     1       4.687   0.381   2.492  1.00  0.00    -0.454 OA
ATOM     14  C   UNL     1       3.888   1.462   2.073  1.00  0.00     0.468 C 
ENDBRANCH   5   6
ENDBRANCH   1   5
TORSDOF 3
ENDMDL
