@<TRIPOS>MOLECULE
/home/cewinharhar/GITHUB/reincatalyze/data/processed/docking_pred/2023-May-25-1902_sub9_nm5_bs15_s42_ex16_mel10_mts10000_k50_ec01_g099_lra3e-4_lrc3e-3/da55d276f49f8aea3f2b333b6115ea57fe53d1b0_ligand_9.pdbqt
 14 15 0 0 0
SMALL
GASTEIGER

@<TRIPOS>ATOM
      1  C          8.3030    0.2000   -2.6800 C.3     1  UNL1        0.0800
      2  C          8.0400   -1.2640   -2.7540 C.2     1  UNL1        0.1300
      3  C          9.1300   -2.2400   -3.0220 C.3     1  UNL1        0.0870
      4  O          6.9140   -1.7070   -2.5960 O.2     1  UNL1       -0.3000
      5  C          8.8310    0.5970   -1.3160 C.3     1  UNL1        0.0430
      6  C          7.8030    0.4550   -0.2700 C.2     1  UNL1       -0.0440
      7  C          7.9200   -0.4980    0.7490 C.2     1  UNL1        0.0080
      8  C          6.6980    1.2760   -0.2830 C.2     1  UNL1        0.0540
      9  C          6.9240   -0.5850    1.7040 C.2     1  UNL1        0.0510
     10  C          5.6940    1.1850    0.6860 C.2     1  UNL1        0.1660
     11  C          5.8080    0.2470    1.6870 C.2     1  UNL1        0.1650
     12  O          4.5180    1.8740    0.8870 O.2     1  UNL1       -0.4540
     13  O          4.6870    0.3810    2.4920 O.2     1  UNL1       -0.4540
     14  C          3.8880    1.4620    2.0730 C.3     1  UNL1        0.4680
@<TRIPOS>BOND
     1     3     2    1
     2     2     1    1
     3     2     4    2
     4     1     5    1
     5     5     6    1
     6     8     6    2
     7     8    10    1
     8     6     7    1
     9    10    12    1
    10    10    11    2
    11     7     9    2
    12    12    14    1
    13    11     9    1
    14    11    13    1
    15    14    13    1
