@<TRIPOS>MOLECULE
/home/cewinharhar/GITHUB/reincatalyze/data/processed/docking_pred/2023-May-25-1902_sub9_nm5_bs15_s42_ex16_mel10_mts10000_k50_ec01_g099_lra3e-4_lrc3e-3/db57195a81496af8cffcd6b4d9524a1fe0637e4f_ligand_9.pdbqt
 14 15 0 0 0
SMALL
GASTEIGER

@<TRIPOS>ATOM
      1  C          5.7330    1.3990   -0.1940 C.3     1  UNL1        0.0800
      2  C          5.0370    1.2420    1.1140 C.2     1  UNL1        0.1300
      3  C          5.3160    0.0910    2.0130 C.3     1  UNL1        0.0870
      4  O          4.2120    2.0600    1.4860 O.2     1  UNL1       -0.3000
      5  C          7.2140    1.0990   -0.0690 C.3     1  UNL1        0.0430
      6  C          7.5710   -0.1740   -0.7200 C.2     1  UNL1       -0.0440
      7  C          7.5710   -0.3100   -2.1130 C.2     1  UNL1        0.0080
      8  C          7.9160   -1.2610    0.0500 C.2     1  UNL1        0.0540
      9  C          7.9160   -1.5290   -2.6680 C.2     1  UNL1        0.0510
     10  C          8.2640   -2.4910   -0.5150 C.2     1  UNL1        0.1660
     11  C          8.2640   -2.6260   -1.8860 C.2     1  UNL1        0.1650
     12  O          8.6380   -3.7020    0.0270 O.2     1  UNL1       -0.4540
     13  O          8.6430   -3.9310   -2.1600 O.2     1  UNL1       -0.4540
     14  C          8.9770   -4.6210   -0.9800 C.3     1  UNL1        0.4680
@<TRIPOS>BOND
     1     9     7    1
     2     9    11    2
     3    13    11    1
     4    13    14    1
     5     7     6    2
     6    11    10    1
     7    14    12    1
     8     6     5    1
     9     6     8    1
    10    10    12    1
    11    10     8    2
    12     1     5    1
    13     1     2    1
    14     2     4    2
    15     2     3    1
