MODEL 1
REMARK VINA RESULT:      -7.7      0.000      0.000
REMARK SMILES CC(=O)CCc1ccc2c(c1)OCO2
REMARK SMILES IDX 4 1 2 2 1 3 3 4 5 5 6 6 7 7 11 8 8 9 10 10 9 11 12 12 14 13
REMARK SMILES IDX 13 14
REMARK H PARENT
REMARK Flexibility Score: inf
ROOT
ATOM      1  C   UNL     1       5.508   1.921   1.258  1.00  0.00     0.080 C 
ENDROOT
BRANCH   1   2
ATOM      2  C   UNL     1       5.063   0.707   1.997  1.00  0.00     0.130 C 
ATOM      3  C   UNL     1       5.948  -0.479   2.153  1.00  0.00     0.087 C 
ATOM      4  O   UNL     1       3.952   0.650   2.499  1.00  0.00    -0.300 OA
ENDBRANCH   1   2
BRANCH   1   5
ATOM      5  C   UNL     1       5.386   1.729  -0.241  1.00  0.00     0.043 C 
BRANCH   5   6
ATOM      6  C   UNL     1       6.555   1.027  -0.798  1.00  0.00    -0.044 A 
ATOM      7  C   UNL     1       7.861   1.462  -0.544  1.00  0.00     0.008 A 
ATOM      8  C   UNL     1       6.371  -0.085  -1.588  1.00  0.00     0.054 A 
ATOM      9  C   UNL     1       8.920   0.763  -1.094  1.00  0.00     0.051 A 
ATOM     10  C   UNL     1       7.445  -0.789  -2.141  1.00  0.00     0.166 A 
ATOM     11  C   UNL     1       8.730  -0.361  -1.892  1.00  0.00     0.165 A 
ATOM     12  O   UNL     1       7.522  -1.905  -2.946  1.00  0.00    -0.454 OA
ATOM     13  O   UNL     1       9.579  -1.233  -2.556  1.00  0.00    -0.454 OA
ATOM     14  C   UNL     1       8.859  -2.280  -3.162  1.00  0.00     0.468 C 
ENDBRANCH   5   6
ENDBRANCH   1   5
TORSDOF 3
ENDMDL
MODEL 2
REMARK VINA RESULT:      -7.5      1.922      2.374
REMARK SMILES CC(=O)CCc1ccc2c(c1)OCO2
REMARK SMILES IDX 4 1 2 2 1 3 3 4 5 5 6 6 7 7 11 8 8 9 10 10 9 11 12 12 14 13
REMARK SMILES IDX 13 14
REMARK H PARENT
REMARK Flexibility Score: inf
ROOT
ATOM      1  C   UNL     1       5.695   1.310  -0.284  1.00  0.00     0.080 C 
ENDROOT
BRANCH   1   2
ATOM      2  C   UNL     1       5.093   1.252   1.077  1.00  0.00     0.130 C 
ATOM      3  C   UNL     1       5.386   0.134   2.013  1.00  0.00     0.087 C 
ATOM      4  O   UNL     1       4.334   2.126   1.464  1.00  0.00    -0.300 OA
ENDBRANCH   1   2
BRANCH   1   5
ATOM      5  C   UNL     1       7.194   1.091  -0.232  1.00  0.00     0.043 C 
BRANCH   5   6
ATOM      6  C   UNL     1       7.581  -0.192  -0.845  1.00  0.00    -0.044 A 
ATOM      7  C   UNL     1       7.669  -0.344  -2.234  1.00  0.00     0.008 A 
ATOM      8  C   UNL     1       7.866  -1.273  -0.043  1.00  0.00     0.054 A 
ATOM      9  C   UNL     1       8.037  -1.572  -2.752  1.00  0.00     0.051 A 
ATOM     10  C   UNL     1       8.239  -2.512  -0.572  1.00  0.00     0.166 A 
ATOM     11  C   UNL     1       8.325  -2.663  -1.938  1.00  0.00     0.165 A 
ATOM     12  O   UNL     1       8.567  -3.720   0.006  1.00  0.00    -0.454 OA
ATOM     13  O   UNL     1       8.709  -3.974  -2.173  1.00  0.00    -0.454 OA
ATOM     14  C   UNL     1       8.962  -4.654  -0.967  1.00  0.00     0.468 C 
ENDBRANCH   5   6
ENDBRANCH   1   5
TORSDOF 3
ENDMDL
MODEL 3
REMARK VINA RESULT:      -7.2      2.050      2.608
REMARK SMILES CC(=O)CCc1ccc2c(c1)OCO2
REMARK SMILES IDX 4 1 2 2 1 3 3 4 5 5 6 6 7 7 11 8 8 9 10 10 9 11 12 12 14 13
REMARK SMILES IDX 13 14
REMARK H PARENT
REMARK Flexibility Score: inf
ROOT
ATOM      1  C   UNL     1       5.467  -0.035   2.012  1.00  0.00     0.080 C 
ENDROOT
BRANCH   1   2
ATOM      2  C   UNL     1       4.596   1.148   1.762  1.00  0.00     0.130 C 
ATOM      3  C   UNL     1       4.913   2.142   0.703  1.00  0.00     0.087 C 
ATOM      4  O   UNL     1       3.589   1.335   2.426  1.00  0.00    -0.300 OA
ENDBRANCH   1   2
BRANCH   1   5
ATOM      5  C   UNL     1       6.892   0.228   1.566  1.00  0.00     0.043 C 
BRANCH   5   6
ATOM      6  C   UNL     1       7.313  -0.705   0.506  1.00  0.00    -0.044 A 
ATOM      7  C   UNL     1       7.203  -0.373  -0.849  1.00  0.00     0.008 A 
ATOM      8  C   UNL     1       7.832  -1.934   0.846  1.00  0.00     0.054 A 
ATOM      9  C   UNL     1       7.615  -1.289  -1.800  1.00  0.00     0.051 A 
ATOM     10  C   UNL     1       8.249  -2.856  -0.119  1.00  0.00     0.166 A 
ATOM     11  C   UNL     1       8.139  -2.531  -1.453  1.00  0.00     0.165 A 
ATOM     12  O   UNL     1       8.789  -4.122  -0.038  1.00  0.00    -0.454 OA
ATOM     13  O   UNL     1       8.620  -3.615  -2.171  1.00  0.00    -0.454 OA
ATOM     14  C   UNL     1       9.126  -4.609  -1.312  1.00  0.00     0.468 C 
ENDBRANCH   5   6
ENDBRANCH   1   5
TORSDOF 3
ENDMDL
MODEL 4
REMARK VINA RESULT:      -7.1      1.247      1.455
REMARK SMILES CC(=O)CCc1ccc2c(c1)OCO2
REMARK SMILES IDX 4 1 2 2 1 3 3 4 5 5 6 6 7 7 11 8 8 9 10 10 9 11 12 12 14 13
REMARK SMILES IDX 13 14
REMARK H PARENT
REMARK Flexibility Score: inf
ROOT
ATOM      1  C   UNL     1       6.361   1.223   0.889  1.00  0.00     0.080 C 
ENDROOT
BRANCH   1   2
ATOM      2  C   UNL     1       5.668   0.399   1.918  1.00  0.00     0.130 C 
ATOM      3  C   UNL     1       6.299  -0.816   2.500  1.00  0.00     0.087 C 
ATOM      4  O   UNL     1       4.554   0.698   2.314  1.00  0.00    -0.300 OA
ENDBRANCH   1   2
BRANCH   1   5
ATOM      5  C   UNL     1       5.852   0.908  -0.503  1.00  0.00     0.043 C 
BRANCH   5   6
ATOM      6  C   UNL     1       6.815   0.095  -1.267  1.00  0.00    -0.044 A 
ATOM      7  C   UNL     1       7.530   0.626  -2.346  1.00  0.00     0.008 A 
ATOM      8  C   UNL     1       7.025  -1.220  -0.917  1.00  0.00     0.054 A 
ATOM      9  C   UNL     1       8.422  -0.185  -3.024  1.00  0.00     0.051 A 
ATOM     10  C   UNL     1       7.928  -2.035  -1.606  1.00  0.00     0.166 A 
ATOM     11  C   UNL     1       8.632  -1.514  -2.669  1.00  0.00     0.165 A 
ATOM     12  O   UNL     1       8.308  -3.352  -1.456  1.00  0.00    -0.454 OA
ATOM     13  O   UNL     1       9.439  -2.531  -3.153  1.00  0.00    -0.454 OA
ATOM     14  C   UNL     1       9.332  -3.687  -2.357  1.00  0.00     0.468 C 
ENDBRANCH   5   6
ENDBRANCH   1   5
TORSDOF 3
ENDMDL
MODEL 5
REMARK VINA RESULT:      -7.0      1.951      2.531
REMARK SMILES CC(=O)CCc1ccc2c(c1)OCO2
REMARK SMILES IDX 4 1 2 2 1 3 3 4 5 5 6 6 7 7 11 8 8 9 10 10 9 11 12 12 14 13
REMARK SMILES IDX 13 14
REMARK H PARENT
REMARK Flexibility Score: inf
ROOT
ATOM      1  C   UNL     1       6.993   1.173   1.184  1.00  0.00     0.080 C 
ENDROOT
BRANCH   1   2
ATOM      2  C   UNL     1       5.514   1.332   1.263  1.00  0.00     0.130 C 
ATOM      3  C   UNL     1       4.762   2.148   0.272  1.00  0.00     0.087 C 
ATOM      4  O   UNL     1       4.872   0.792   2.149  1.00  0.00    -0.300 OA
ENDBRANCH   1   2
BRANCH   1   5
ATOM      5  C   UNL     1       7.481   1.266  -0.247  1.00  0.00     0.043 C 
BRANCH   5   6
ATOM      6  C   UNL     1       7.776  -0.063  -0.812  1.00  0.00    -0.044 A 
ATOM      7  C   UNL     1       7.794  -0.284  -2.194  1.00  0.00     0.008 A 
ATOM      8  C   UNL     1       8.043  -1.118   0.030  1.00  0.00     0.054 A 
ATOM      9  C   UNL     1       8.078  -1.553  -2.666  1.00  0.00     0.051 A 
ATOM     10  C   UNL     1       8.329  -2.398  -0.452  1.00  0.00     0.166 A 
ATOM     11  C   UNL     1       8.347  -2.618  -1.812  1.00  0.00     0.165 A 
ATOM     12  O   UNL     1       8.623  -3.593   0.170  1.00  0.00    -0.454 OA
ATOM     13  O   UNL     1       8.654  -3.956  -1.998  1.00  0.00    -0.454 OA
ATOM     14  C   UNL     1       8.926  -4.591  -0.771  1.00  0.00     0.468 C 
ENDBRANCH   5   6
ENDBRANCH   1   5
TORSDOF 3
ENDMDL
