@<TRIPOS>MOLECULE
/home/cewinharhar/GITHUB/reincatalyze/data/processed/docking_pred/2023-May-25-1902_sub9_nm5_bs15_s42_ex16_mel10_mts10000_k50_ec01_g099_lra3e-4_lrc3e-3/dba3942d2f0306a5a819952336ad453bb769fd78_ligand_9.pdbqt
 14 15 0 0 0
SMALL
GASTEIGER

@<TRIPOS>ATOM
      1  C          5.6950    1.3100   -0.2840 C.3     1  UNL1        0.0800
      2  C          5.0930    1.2520    1.0770 C.2     1  UNL1        0.1300
      3  C          5.3860    0.1340    2.0130 C.3     1  UNL1        0.0870
      4  O          4.3340    2.1260    1.4640 O.2     1  UNL1       -0.3000
      5  C          7.1940    1.0910   -0.2320 C.3     1  UNL1        0.0430
      6  C          7.5810   -0.1920   -0.8450 C.2     1  UNL1       -0.0440
      7  C          7.6690   -0.3440   -2.2340 C.2     1  UNL1        0.0080
      8  C          7.8660   -1.2730   -0.0430 C.2     1  UNL1        0.0540
      9  C          8.0370   -1.5720   -2.7520 C.2     1  UNL1        0.0510
     10  C          8.2390   -2.5120   -0.5720 C.2     1  UNL1        0.1660
     11  C          8.3250   -2.6630   -1.9380 C.2     1  UNL1        0.1650
     12  O          8.5670   -3.7200    0.0060 O.2     1  UNL1       -0.4540
     13  O          8.7090   -3.9740   -2.1730 O.2     1  UNL1       -0.4540
     14  C          8.9620   -4.6540   -0.9670 C.3     1  UNL1        0.4680
@<TRIPOS>BOND
     1     9     7    1
     2     9    11    2
     3     7     6    2
     4    13    11    1
     5    13    14    1
     6    11    10    1
     7    14    12    1
     8     6     5    1
     9     6     8    1
    10    10     8    2
    11    10    12    1
    12     1     5    1
    13     1     2    1
    14     2     4    2
    15     2     3    1
