@<TRIPOS>MOLECULE
/home/cewinharhar/GITHUB/reincatalyze/data/processed/docking_pred/2023-May-25-1902_sub9_nm5_bs15_s42_ex16_mel10_mts10000_k50_ec01_g099_lra3e-4_lrc3e-3/dba3942d2f0306a5a819952336ad453bb769fd78_ligand_9.pdbqt
 14 15 0 0 0
SMALL
GASTEIGER

@<TRIPOS>ATOM
      1  C          5.5080    1.9210    1.2580 C.3     1  UNL1        0.0800
      2  C          5.0630    0.7070    1.9970 C.2     1  UNL1        0.1300
      3  C          5.9480   -0.4790    2.1530 C.3     1  UNL1        0.0870
      4  O          3.9520    0.6500    2.4990 O.2     1  UNL1       -0.3000
      5  C          5.3860    1.7290   -0.2410 C.3     1  UNL1        0.0430
      6  C          6.5550    1.0270   -0.7980 C.2     1  UNL1       -0.0440
      7  C          7.8610    1.4620   -0.5440 C.2     1  UNL1        0.0080
      8  C          6.3710   -0.0850   -1.5880 C.2     1  UNL1        0.0540
      9  C          8.9200    0.7630   -1.0940 C.2     1  UNL1        0.0510
     10  C          7.4450   -0.7890   -2.1410 C.2     1  UNL1        0.1660
     11  C          8.7300   -0.3610   -1.8920 C.2     1  UNL1        0.1650
     12  O          7.5220   -1.9050   -2.9460 O.2     1  UNL1       -0.4540
     13  O          9.5790   -1.2330   -2.5560 O.2     1  UNL1       -0.4540
     14  C          8.8590   -2.2800   -3.1620 C.3     1  UNL1        0.4680
@<TRIPOS>BOND
     1    14    12    1
     2    14    13    1
     3    12    10    1
     4    13    11    1
     5    10    11    2
     6    10     8    1
     7    11     9    1
     8     8     6    2
     9     9     7    2
    10     6     7    1
    11     6     5    1
    12     5     1    1
    13     1     2    1
    14     2     3    1
    15     2     4    2
