@<TRIPOS>MOLECULE
/home/cewinharhar/GITHUB/reincatalyze/data/processed/docking_pred/2023-May-25-1902_sub9_nm5_bs15_s42_ex16_mel10_mts10000_k50_ec01_g099_lra3e-4_lrc3e-3/dba3942d2f0306a5a819952336ad453bb769fd78_ligand_9.pdbqt
 14 15 0 0 0
SMALL
GASTEIGER

@<TRIPOS>ATOM
      1  C          6.9930    1.1730    1.1840 C.3     1  UNL1        0.0800
      2  C          5.5140    1.3320    1.2630 C.2     1  UNL1        0.1300
      3  C          4.7620    2.1480    0.2720 C.3     1  UNL1        0.0870
      4  O          4.8720    0.7920    2.1490 O.2     1  UNL1       -0.3000
      5  C          7.4810    1.2660   -0.2470 C.3     1  UNL1        0.0430
      6  C          7.7760   -0.0630   -0.8120 C.2     1  UNL1       -0.0440
      7  C          7.7940   -0.2840   -2.1940 C.2     1  UNL1        0.0080
      8  C          8.0430   -1.1180    0.0300 C.2     1  UNL1        0.0540
      9  C          8.0780   -1.5530   -2.6660 C.2     1  UNL1        0.0510
     10  C          8.3290   -2.3980   -0.4520 C.2     1  UNL1        0.1660
     11  C          8.3470   -2.6180   -1.8120 C.2     1  UNL1        0.1650
     12  O          8.6230   -3.5930    0.1700 O.2     1  UNL1       -0.4540
     13  O          8.6540   -3.9560   -1.9980 O.2     1  UNL1       -0.4540
     14  C          8.9260   -4.5910   -0.7710 C.3     1  UNL1        0.4680
@<TRIPOS>BOND
     1     9     7    1
     2     9    11    2
     3     7     6    2
     4    13    11    1
     5    13    14    1
     6    11    10    1
     7     6     5    1
     8     6     8    1
     9    14    12    1
    10    10     8    2
    11    10    12    1
    12     5     1    1
    13     3     2    1
    14     1     2    1
    15     2     4    2
