@<TRIPOS>MOLECULE
/home/cewinharhar/GITHUB/reincatalyze/data/processed/docking_pred/2023-May-25-1902_sub9_nm5_bs15_s42_ex16_mel10_mts10000_k50_ec01_g099_lra3e-4_lrc3e-3/dba3942d2f0306a5a819952336ad453bb769fd78_ligand_9.pdbqt
 14 15 0 0 0
SMALL
GASTEIGER

@<TRIPOS>ATOM
      1  C          6.3610    1.2230    0.8890 C.3     1  UNL1        0.0800
      2  C          5.6680    0.3990    1.9180 C.2     1  UNL1        0.1300
      3  C          6.2990   -0.8160    2.5000 C.3     1  UNL1        0.0870
      4  O          4.5540    0.6980    2.3140 O.2     1  UNL1       -0.3000
      5  C          5.8520    0.9080   -0.5030 C.3     1  UNL1        0.0430
      6  C          6.8150    0.0950   -1.2670 C.2     1  UNL1       -0.0440
      7  C          7.5300    0.6260   -2.3460 C.2     1  UNL1        0.0080
      8  C          7.0250   -1.2200   -0.9170 C.2     1  UNL1        0.0540
      9  C          8.4220   -0.1850   -3.0240 C.2     1  UNL1        0.0510
     10  C          7.9280   -2.0350   -1.6060 C.2     1  UNL1        0.1660
     11  C          8.6320   -1.5140   -2.6690 C.2     1  UNL1        0.1650
     12  O          8.3080   -3.3520   -1.4560 O.2     1  UNL1       -0.4540
     13  O          9.4390   -2.5310   -3.1530 O.2     1  UNL1       -0.4540
     14  C          9.3320   -3.6870   -2.3570 C.3     1  UNL1        0.4680
@<TRIPOS>BOND
     1    13    11    1
     2    13    14    1
     3     9    11    2
     4     9     7    1
     5    11    10    1
     6    14    12    1
     7     7     6    2
     8    10    12    1
     9    10     8    2
    10     6     8    1
    11     6     5    1
    12     5     1    1
    13     1     2    1
    14     2     4    2
    15     2     3    1
