@<TRIPOS>MOLECULE
/home/cewinharhar/GITHUB/reincatalyze/data/processed/docking_pred/2023-May-25-1902_sub9_nm5_bs15_s42_ex16_mel10_mts10000_k50_ec01_g099_lra3e-4_lrc3e-3/dba3942d2f0306a5a819952336ad453bb769fd78_ligand_9.pdbqt
 14 15 0 0 0
SMALL
GASTEIGER

@<TRIPOS>ATOM
      1  C          5.4670   -0.0350    2.0120 C.3     1  UNL1        0.0800
      2  C          4.5960    1.1480    1.7620 C.2     1  UNL1        0.1300
      3  C          4.9130    2.1420    0.7030 C.3     1  UNL1        0.0870
      4  O          3.5890    1.3350    2.4260 O.2     1  UNL1       -0.3000
      5  C          6.8920    0.2280    1.5660 C.3     1  UNL1        0.0430
      6  C          7.3130   -0.7050    0.5060 C.2     1  UNL1       -0.0440
      7  C          7.2030   -0.3730   -0.8490 C.2     1  UNL1        0.0080
      8  C          7.8320   -1.9340    0.8460 C.2     1  UNL1        0.0540
      9  C          7.6150   -1.2890   -1.8000 C.2     1  UNL1        0.0510
     10  C          8.2490   -2.8560   -0.1190 C.2     1  UNL1        0.1660
     11  C          8.1390   -2.5310   -1.4530 C.2     1  UNL1        0.1650
     12  O          8.7890   -4.1220   -0.0380 O.2     1  UNL1       -0.4540
     13  O          8.6200   -3.6150   -2.1710 O.2     1  UNL1       -0.4540
     14  C          9.1260   -4.6090   -1.3120 C.3     1  UNL1        0.4680
@<TRIPOS>BOND
     1    13    11    1
     2    13    14    1
     3     9    11    2
     4     9     7    1
     5    11    10    1
     6    14    12    1
     7     7     6    2
     8    10    12    1
     9    10     8    2
    10     6     8    1
    11     6     5    1
    12     3     2    1
    13     5     1    1
    14     2     1    1
    15     2     4    2
