@<TRIPOS>MOLECULE
/home/cewinharhar/GITHUB/reincatalyze/data/processed/docking_pred/2023-May-25-1902_sub9_nm5_bs15_s42_ex16_mel10_mts10000_k50_ec01_g099_lra3e-4_lrc3e-3/dca47ac415302ce9f1313af6aebf6be1e2794cfe_ligand_9.pdbqt
 14 15 0 0 0
SMALL
GASTEIGER

@<TRIPOS>ATOM
      1  C          5.7620    1.4290   -0.2090 C.3     1  UNL1        0.0800
      2  C          5.0700    1.2720    1.1010 C.2     1  UNL1        0.1300
      3  C          5.3410    0.1130    1.9930 C.3     1  UNL1        0.0870
      4  O          4.2550    2.0960    1.4830 O.2     1  UNL1       -0.3000
      5  C          7.2440    1.1340   -0.0870 C.3     1  UNL1        0.0430
      6  C          7.6020   -0.1410   -0.7350 C.2     1  UNL1       -0.0440
      7  C          7.6460   -0.2690   -2.1280 C.2     1  UNL1        0.0080
      8  C          7.9050   -1.2380    0.0400 C.2     1  UNL1        0.0540
      9  C          7.9890   -1.4900   -2.6790 C.2     1  UNL1        0.0510
     10  C          8.2520   -2.4700   -0.5230 C.2     1  UNL1        0.1660
     11  C          8.2940   -2.5970   -1.8930 C.2     1  UNL1        0.1650
     12  O          8.5900   -3.6900    0.0230 O.2     1  UNL1       -0.4540
     13  O          8.6620   -3.9060   -2.1630 O.2     1  UNL1       -0.4540
     14  C          8.9470   -4.6080   -0.9770 C.3     1  UNL1        0.4680
@<TRIPOS>BOND
     1     9     7    1
     2     9    11    2
     3    13    11    1
     4    13    14    1
     5     7     6    2
     6    11    10    1
     7    14    12    1
     8     6     5    1
     9     6     8    1
    10    10    12    1
    11    10     8    2
    12     1     5    1
    13     1     2    1
    14     2     4    2
    15     2     3    1
