@<TRIPOS>MOLECULE
/home/cewinharhar/GITHUB/reincatalyze/data/processed/docking_pred/2023-May-25-1902_sub9_nm5_bs15_s42_ex16_mel10_mts10000_k50_ec01_g099_lra3e-4_lrc3e-3/dca47ac415302ce9f1313af6aebf6be1e2794cfe_ligand_9.pdbqt
 14 15 0 0 0
SMALL
GASTEIGER

@<TRIPOS>ATOM
      1  C          5.4000   -0.0660    2.0060 C.3     1  UNL1        0.0800
      2  C          4.5690    1.1460    1.7640 C.2     1  UNL1        0.1300
      3  C          4.9140    2.1310    0.7040 C.3     1  UNL1        0.0870
      4  O          3.5730    1.3680    2.4350 O.2     1  UNL1       -0.3000
      5  C          6.8440    0.1690    1.6090 C.3     1  UNL1        0.0430
      6  C          7.2720   -0.7480    0.5380 C.2     1  UNL1       -0.0440
      7  C          7.1410   -0.4080   -0.8140 C.2     1  UNL1        0.0080
      8  C          7.8170   -1.9700    0.8620 C.2     1  UNL1        0.0540
      9  C          7.5610   -1.3090   -1.7760 C.2     1  UNL1        0.0510
     10  C          8.2400   -2.8760   -0.1140 C.2     1  UNL1        0.1660
     11  C          8.1110   -2.5430   -1.4440 C.2     1  UNL1        0.1650
     12  O          8.8040   -4.1330   -0.0480 O.2     1  UNL1       -0.4540
     13  O          8.6040   -3.6130   -2.1750 O.2     1  UNL1       -0.4540
     14  C          9.1370   -4.6040   -1.3290 C.3     1  UNL1        0.4680
@<TRIPOS>BOND
     1    13    11    1
     2    13    14    1
     3     9    11    2
     4     9     7    1
     5    11    10    1
     6    14    12    1
     7     7     6    2
     8    10    12    1
     9    10     8    2
    10     6     8    1
    11     6     5    1
    12     3     2    1
    13     5     1    1
    14     2     1    1
    15     2     4    2
