@<TRIPOS>MOLECULE
/home/cewinharhar/GITHUB/reincatalyze/data/processed/docking_pred/2023-May-25-1902_sub9_nm5_bs15_s42_ex16_mel10_mts10000_k50_ec01_g099_lra3e-4_lrc3e-3/dca47ac415302ce9f1313af6aebf6be1e2794cfe_ligand_9.pdbqt
 14 15 0 0 0
SMALL
GASTEIGER

@<TRIPOS>ATOM
      1  C          6.7490    0.6930    1.3830 C.3     1  UNL1        0.0800
      2  C          5.3310    1.1440    1.4580 C.2     1  UNL1        0.1300
      3  C          4.7800    2.1500    0.5110 C.3     1  UNL1        0.0870
      4  O          4.5750    0.6980    2.3060 O.2     1  UNL1       -0.3000
      5  C          7.3290    0.9280    0.0030 C.3     1  UNL1        0.0430
      6  C          7.6510   -0.3390   -0.6770 C.2     1  UNL1       -0.0440
      7  C          7.6210   -0.4510   -2.0720 C.2     1  UNL1        0.0080
      8  C          7.9940   -1.4450    0.0670 C.2     1  UNL1        0.0540
      9  C          7.9340   -1.6660   -2.6550 C.2     1  UNL1        0.0510
     10  C          8.3100   -2.6700   -0.5270 C.2     1  UNL1        0.1660
     11  C          8.2790   -2.7820   -1.8990 C.2     1  UNL1        0.1650
     12  O          8.6760   -3.8970   -0.0140 O.2     1  UNL1       -0.4540
     13  O          8.6310   -4.0870   -2.2040 O.2     1  UNL1       -0.4540
     14  C          8.9790   -4.8040   -1.0430 C.3     1  UNL1        0.4680
@<TRIPOS>BOND
     1     9     7    1
     2     9    11    2
     3    13    11    1
     4    13    14    1
     5     7     6    2
     6    11    10    1
     7    14    12    1
     8     6     5    1
     9     6     8    1
    10    10    12    1
    11    10     8    2
    12     5     1    1
    13     3     2    1
    14     1     2    1
    15     2     4    2
