@<TRIPOS>MOLECULE
/home/cewinharhar/GITHUB/reincatalyze/data/processed/docking_pred/2023-May-25-1902_sub9_nm5_bs15_s42_ex16_mel10_mts10000_k50_ec01_g099_lra3e-4_lrc3e-3/dca47ac415302ce9f1313af6aebf6be1e2794cfe_ligand_9.pdbqt
 14 15 0 0 0
SMALL
GASTEIGER

@<TRIPOS>ATOM
      1  C          6.3780    1.1830    0.9250 C.3     1  UNL1        0.0800
      2  C          5.6690    0.3600    1.9450 C.2     1  UNL1        0.1300
      3  C          6.2750   -0.8740    2.5120 C.3     1  UNL1        0.0870
      4  O          4.5600    0.6770    2.3450 O.2     1  UNL1       -0.3000
      5  C          5.8640    0.8940   -0.4710 C.3     1  UNL1        0.0430
      6  C          6.8140    0.0760   -1.2450 C.2     1  UNL1       -0.0440
      7  C          7.4970    0.5950   -2.3510 C.2     1  UNL1        0.0080
      8  C          7.0460   -1.2310   -0.8790 C.2     1  UNL1        0.0540
      9  C          8.3780   -0.2190   -3.0390 C.2     1  UNL1        0.0510
     10  C          7.9380   -2.0500   -1.5770 C.2     1  UNL1        0.1660
     11  C          8.6090   -1.5400   -2.6660 C.2     1  UNL1        0.1650
     12  O          8.3350   -3.3600   -1.4150 O.2     1  UNL1       -0.4540
     13  O          9.4130   -2.5580   -3.1550 O.2     1  UNL1       -0.4540
     14  C          9.3380   -3.7010   -2.3370 C.3     1  UNL1        0.4680
@<TRIPOS>BOND
     1    13    11    1
     2    13    14    1
     3     9    11    2
     4     9     7    1
     5    11    10    1
     6     7     6    2
     7    14    12    1
     8    10    12    1
     9    10     8    2
    10     6     8    1
    11     6     5    1
    12     5     1    1
    13     1     2    1
    14     2     4    2
    15     2     3    1
