MODEL 1
REMARK VINA RESULT:      -7.6      0.000      0.000
REMARK SMILES CC(=O)CCc1ccc2c(c1)OCO2
REMARK SMILES IDX 4 1 2 2 1 3 3 4 5 5 6 6 7 7 11 8 8 9 10 10 9 11 12 12 14 13
REMARK SMILES IDX 13 14
REMARK H PARENT
REMARK Flexibility Score: inf
ROOT
ATOM      1  C   UNL     1       5.559   1.899   1.294  1.00  0.00     0.080 C 
ENDROOT
BRANCH   1   2
ATOM      2  C   UNL     1       5.118   0.678   2.025  1.00  0.00     0.130 C 
ATOM      3  C   UNL     1       6.014  -0.497   2.193  1.00  0.00     0.087 C 
ATOM      4  O   UNL     1       4.001   0.608   2.510  1.00  0.00    -0.300 OA
ENDBRANCH   1   2
BRANCH   1   5
ATOM      5  C   UNL     1       5.422   1.722  -0.206  1.00  0.00     0.043 C 
BRANCH   5   6
ATOM      6  C   UNL     1       6.584   1.023  -0.782  1.00  0.00    -0.044 A 
ATOM      7  C   UNL     1       7.893   1.456  -0.543  1.00  0.00     0.008 A 
ATOM      8  C   UNL     1       6.390  -0.086  -1.574  1.00  0.00     0.054 A 
ATOM      9  C   UNL     1       8.945   0.760  -1.109  1.00  0.00     0.051 A 
ATOM     10  C   UNL     1       7.456  -0.787  -2.144  1.00  0.00     0.166 A 
ATOM     11  C   UNL     1       8.745  -0.360  -1.910  1.00  0.00     0.165 A 
ATOM     12  O   UNL     1       7.523  -1.900  -2.955  1.00  0.00    -0.454 OA
ATOM     13  O   UNL     1       9.584  -1.230  -2.589  1.00  0.00    -0.454 OA
ATOM     14  C   UNL     1       8.857  -2.274  -3.190  1.00  0.00     0.468 C 
ENDBRANCH   5   6
ENDBRANCH   1   5
TORSDOF 3
ENDMDL
MODEL 2
REMARK VINA RESULT:      -7.4      1.922      2.349
REMARK SMILES CC(=O)CCc1ccc2c(c1)OCO2
REMARK SMILES IDX 4 1 2 2 1 3 3 4 5 5 6 6 7 7 11 8 8 9 10 10 9 11 12 12 14 13
REMARK SMILES IDX 13 14
REMARK H PARENT
REMARK Flexibility Score: inf
ROOT
ATOM      1  C   UNL     1       5.762   1.429  -0.209  1.00  0.00     0.080 C 
ENDROOT
BRANCH   1   2
ATOM      2  C   UNL     1       5.070   1.272   1.101  1.00  0.00     0.130 C 
ATOM      3  C   UNL     1       5.341   0.113   1.993  1.00  0.00     0.087 C 
ATOM      4  O   UNL     1       4.255   2.096   1.483  1.00  0.00    -0.300 OA
ENDBRANCH   1   2
BRANCH   1   5
ATOM      5  C   UNL     1       7.244   1.134  -0.087  1.00  0.00     0.043 C 
BRANCH   5   6
ATOM      6  C   UNL     1       7.602  -0.141  -0.735  1.00  0.00    -0.044 A 
ATOM      7  C   UNL     1       7.646  -0.269  -2.128  1.00  0.00     0.008 A 
ATOM      8  C   UNL     1       7.905  -1.238   0.040  1.00  0.00     0.054 A 
ATOM      9  C   UNL     1       7.989  -1.490  -2.679  1.00  0.00     0.051 A 
ATOM     10  C   UNL     1       8.252  -2.470  -0.523  1.00  0.00     0.166 A 
ATOM     11  C   UNL     1       8.294  -2.597  -1.893  1.00  0.00     0.165 A 
ATOM     12  O   UNL     1       8.590  -3.690   0.023  1.00  0.00    -0.454 OA
ATOM     13  O   UNL     1       8.662  -3.906  -2.163  1.00  0.00    -0.454 OA
ATOM     14  C   UNL     1       8.947  -4.608  -0.977  1.00  0.00     0.468 C 
ENDBRANCH   5   6
ENDBRANCH   1   5
TORSDOF 3
ENDMDL
MODEL 3
REMARK VINA RESULT:      -7.2      2.053      2.629
REMARK SMILES CC(=O)CCc1ccc2c(c1)OCO2
REMARK SMILES IDX 4 1 2 2 1 3 3 4 5 5 6 6 7 7 11 8 8 9 10 10 9 11 12 12 14 13
REMARK SMILES IDX 13 14
REMARK H PARENT
REMARK Flexibility Score: inf
ROOT
ATOM      1  C   UNL     1       5.400  -0.066   2.006  1.00  0.00     0.080 C 
ENDROOT
BRANCH   1   2
ATOM      2  C   UNL     1       4.569   1.146   1.764  1.00  0.00     0.130 C 
ATOM      3  C   UNL     1       4.914   2.131   0.704  1.00  0.00     0.087 C 
ATOM      4  O   UNL     1       3.573   1.368   2.435  1.00  0.00    -0.300 OA
ENDBRANCH   1   2
BRANCH   1   5
ATOM      5  C   UNL     1       6.844   0.169   1.609  1.00  0.00     0.043 C 
BRANCH   5   6
ATOM      6  C   UNL     1       7.272  -0.748   0.538  1.00  0.00    -0.044 A 
ATOM      7  C   UNL     1       7.141  -0.408  -0.814  1.00  0.00     0.008 A 
ATOM      8  C   UNL     1       7.817  -1.970   0.862  1.00  0.00     0.054 A 
ATOM      9  C   UNL     1       7.561  -1.309  -1.776  1.00  0.00     0.051 A 
ATOM     10  C   UNL     1       8.240  -2.876  -0.114  1.00  0.00     0.166 A 
ATOM     11  C   UNL     1       8.111  -2.543  -1.444  1.00  0.00     0.165 A 
ATOM     12  O   UNL     1       8.804  -4.133  -0.048  1.00  0.00    -0.454 OA
ATOM     13  O   UNL     1       8.604  -3.613  -2.175  1.00  0.00    -0.454 OA
ATOM     14  C   UNL     1       9.137  -4.604  -1.329  1.00  0.00     0.468 C 
ENDBRANCH   5   6
ENDBRANCH   1   5
TORSDOF 3
ENDMDL
MODEL 4
REMARK VINA RESULT:      -7.1      1.995      2.566
REMARK SMILES CC(=O)CCc1ccc2c(c1)OCO2
REMARK SMILES IDX 4 1 2 2 1 3 3 4 5 5 6 6 7 7 11 8 8 9 10 10 9 11 12 12 14 13
REMARK SMILES IDX 13 14
REMARK H PARENT
REMARK Flexibility Score: inf
ROOT
ATOM      1  C   UNL     1       6.749   0.693   1.383  1.00  0.00     0.080 C 
ENDROOT
BRANCH   1   2
ATOM      2  C   UNL     1       5.331   1.144   1.458  1.00  0.00     0.130 C 
ATOM      3  C   UNL     1       4.780   2.150   0.511  1.00  0.00     0.087 C 
ATOM      4  O   UNL     1       4.575   0.698   2.306  1.00  0.00    -0.300 OA
ENDBRANCH   1   2
BRANCH   1   5
ATOM      5  C   UNL     1       7.329   0.928   0.003  1.00  0.00     0.043 C 
BRANCH   5   6
ATOM      6  C   UNL     1       7.651  -0.339  -0.677  1.00  0.00    -0.044 A 
ATOM      7  C   UNL     1       7.621  -0.451  -2.072  1.00  0.00     0.008 A 
ATOM      8  C   UNL     1       7.994  -1.445   0.067  1.00  0.00     0.054 A 
ATOM      9  C   UNL     1       7.934  -1.666  -2.655  1.00  0.00     0.051 A 
ATOM     10  C   UNL     1       8.310  -2.670  -0.527  1.00  0.00     0.166 A 
ATOM     11  C   UNL     1       8.279  -2.782  -1.899  1.00  0.00     0.165 A 
ATOM     12  O   UNL     1       8.676  -3.897  -0.014  1.00  0.00    -0.454 OA
ATOM     13  O   UNL     1       8.631  -4.087  -2.204  1.00  0.00    -0.454 OA
ATOM     14  C   UNL     1       8.979  -4.804  -1.043  1.00  0.00     0.468 C 
ENDBRANCH   5   6
ENDBRANCH   1   5
TORSDOF 3
ENDMDL
MODEL 5
REMARK VINA RESULT:      -7.1      1.253      1.471
REMARK SMILES CC(=O)CCc1ccc2c(c1)OCO2
REMARK SMILES IDX 4 1 2 2 1 3 3 4 5 5 6 6 7 7 11 8 8 9 10 10 9 11 12 12 14 13
REMARK SMILES IDX 13 14
REMARK H PARENT
REMARK Flexibility Score: inf
ROOT
ATOM      1  C   UNL     1       6.378   1.183   0.925  1.00  0.00     0.080 C 
ENDROOT
BRANCH   1   2
ATOM      2  C   UNL     1       5.669   0.360   1.945  1.00  0.00     0.130 C 
ATOM      3  C   UNL     1       6.275  -0.874   2.512  1.00  0.00     0.087 C 
ATOM      4  O   UNL     1       4.560   0.677   2.345  1.00  0.00    -0.300 OA
ENDBRANCH   1   2
BRANCH   1   5
ATOM      5  C   UNL     1       5.864   0.894  -0.471  1.00  0.00     0.043 C 
BRANCH   5   6
ATOM      6  C   UNL     1       6.814   0.076  -1.245  1.00  0.00    -0.044 A 
ATOM      7  C   UNL     1       7.497   0.595  -2.351  1.00  0.00     0.008 A 
ATOM      8  C   UNL     1       7.046  -1.231  -0.879  1.00  0.00     0.054 A 
ATOM      9  C   UNL     1       8.378  -0.219  -3.039  1.00  0.00     0.051 A 
ATOM     10  C   UNL     1       7.938  -2.050  -1.577  1.00  0.00     0.166 A 
ATOM     11  C   UNL     1       8.609  -1.540  -2.666  1.00  0.00     0.165 A 
ATOM     12  O   UNL     1       8.335  -3.360  -1.415  1.00  0.00    -0.454 OA
ATOM     13  O   UNL     1       9.413  -2.558  -3.155  1.00  0.00    -0.454 OA
ATOM     14  C   UNL     1       9.338  -3.701  -2.337  1.00  0.00     0.468 C 
ENDBRANCH   5   6
ENDBRANCH   1   5
TORSDOF 3
ENDMDL
