@<TRIPOS>MOLECULE
/home/cewinharhar/GITHUB/reincatalyze/data/processed/docking_pred/2023-May-25-1902_sub9_nm5_bs15_s42_ex16_mel10_mts10000_k50_ec01_g099_lra3e-4_lrc3e-3/dcb3b3821b230acb752c106843a0b7e907fda2aa_ligand_9.pdbqt
 14 15 0 0 0
SMALL
GASTEIGER

@<TRIPOS>ATOM
      1  C          5.5510    0.0310    1.9460 C.3     1  UNL1        0.0800
      2  C          4.6540    1.1790    1.6370 C.2     1  UNL1        0.1300
      3  C          4.9610    2.1370    0.5410 C.3     1  UNL1        0.0870
      4  O          3.6340    1.3680    2.2790 O.2     1  UNL1       -0.3000
      5  C          6.9620    0.2870    1.4560 C.3     1  UNL1        0.0430
      6  C          7.3640   -0.6790    0.4180 C.2     1  UNL1       -0.0440
      7  C          7.2400   -0.3840   -0.9450 C.2     1  UNL1        0.0080
      8  C          7.8770   -1.9020    0.7860 C.2     1  UNL1        0.0540
      9  C          7.6340   -1.3290   -1.8740 C.2     1  UNL1        0.0510
     10  C          8.2750   -2.8540   -0.1580 C.2     1  UNL1        0.1660
     11  C          8.1520   -2.5650   -1.4990 C.2     1  UNL1        0.1650
     12  O          8.8050   -4.1210   -0.0480 O.2     1  UNL1       -0.4540
     13  O          8.6160   -3.6730   -2.1910 O.2     1  UNL1       -0.4540
     14  C          9.1240   -4.6460   -1.3110 C.3     1  UNL1        0.4680
@<TRIPOS>BOND
     1    13    11    1
     2    13    14    1
     3     9    11    2
     4     9     7    1
     5    11    10    1
     6    14    12    1
     7     7     6    2
     8    10    12    1
     9    10     8    2
    10     6     8    1
    11     6     5    1
    12     3     2    1
    13     5     1    1
    14     2     1    1
    15     2     4    2
