@<TRIPOS>MOLECULE
/home/cewinharhar/GITHUB/reincatalyze/data/processed/docking_pred/2023-May-25-1902_sub9_nm5_bs15_s42_ex16_mel10_mts10000_k50_ec01_g099_lra3e-4_lrc3e-3/dcca543849eb83a4cf97fda16a0578d2b97a91da_ligand_9.pdbqt
 14 15 0 0 0
SMALL
GASTEIGER

@<TRIPOS>ATOM
      1  C          6.0460   -0.4680    1.5390 C.3     1  UNL1        0.0800
      2  C          5.0870    0.6630    1.6750 C.2     1  UNL1        0.1300
      3  C          5.1360    1.8420    0.7680 C.3     1  UNL1        0.0870
      4  O          4.2260    0.6550    2.5400 O.2     1  UNL1       -0.3000
      5  C          7.4080    0.0170    1.0810 C.3     1  UNL1        0.0430
      6  C          7.7280   -0.4580   -0.2770 C.2     1  UNL1       -0.0440
      7  C          7.8820    0.4310   -1.3470 C.2     1  UNL1        0.0080
      8  C          7.8840   -1.8050   -0.5100 C.2     1  UNL1        0.0540
      9  C          8.1830   -0.0720   -2.6000 C.2     1  UNL1        0.0510
     10  C          8.1890   -2.3090   -1.7780 C.2     1  UNL1        0.1660
     11  C          8.3390   -1.4350   -2.8310 C.2     1  UNL1        0.1650
     12  O          8.3900   -3.5860   -2.2580 O.2     1  UNL1       -0.4540
     13  O          8.6340   -2.2010   -3.9480 O.2     1  UNL1       -0.4540
     14  C          8.7650   -3.5620   -3.6110 C.3     1  UNL1        0.4680
@<TRIPOS>BOND
     1    13    14    1
     2    13    11    1
     3    14    12    1
     4    11     9    2
     5    11    10    1
     6     9     7    1
     7    12    10    1
     8    10     8    2
     9     7     6    2
    10     8     6    1
    11     6     5    1
    12     3     2    1
    13     5     1    1
    14     1     2    1
    15     2     4    2
