@<TRIPOS>MOLECULE
/home/cewinharhar/GITHUB/reincatalyze/data/processed/docking_pred/2023-May-25-1902_sub9_nm5_bs15_s42_ex16_mel10_mts10000_k50_ec01_g099_lra3e-4_lrc3e-3/dcca543849eb83a4cf97fda16a0578d2b97a91da_ligand_9.pdbqt
 14 15 0 0 0
SMALL
GASTEIGER

@<TRIPOS>ATOM
      1  C          8.1130   -2.5830   -3.6210 C.3     1  UNL1        0.0800
      2  C          9.2390   -3.5350   -3.4070 C.2     1  UNL1        0.1300
      3  C          9.0100   -4.9980   -3.2740 C.3     1  UNL1        0.0870
      4  O         10.3910   -3.1370   -3.3330 O.2     1  UNL1       -0.3000
      5  C          8.4850   -1.1820   -3.1790 C.3     1  UNL1        0.0430
      6  C          7.7300   -0.7680   -1.9830 C.2     1  UNL1       -0.0440
      7  C          6.8800    0.3440   -2.0010 C.2     1  UNL1        0.0080
      8  C          7.8540   -1.4870   -0.8150 C.2     1  UNL1        0.0540
      9  C          6.1960    0.6840   -0.8480 C.2     1  UNL1        0.0510
     10  C          7.1600   -1.1390    0.3470 C.2     1  UNL1        0.1660
     11  C          6.3240   -0.0440    0.3310 C.2     1  UNL1        0.1650
     12  O          7.1150   -1.6830    1.6130 O.2     1  UNL1       -0.4540
     13  O          5.7770    0.0610    1.6000 O.2     1  UNL1       -0.4540
     14  C          6.1810   -1.0100    2.4180 C.3     1  UNL1        0.4680
@<TRIPOS>BOND
     1     1     2    1
     2     1     5    1
     3     2     4    2
     4     2     3    1
     5     5     6    1
     6     7     6    2
     7     7     9    1
     8     6     8    1
     9     9    11    2
    10     8    10    2
    11    11    10    1
    12    11    13    1
    13    10    12    1
    14    13    14    1
    15    12    14    1
