@<TRIPOS>MOLECULE
/home/cewinharhar/GITHUB/reincatalyze/data/processed/docking_pred/2023-May-25-1902_sub9_nm5_bs15_s42_ex16_mel10_mts10000_k50_ec01_g099_lra3e-4_lrc3e-3/dcca543849eb83a4cf97fda16a0578d2b97a91da_ligand_9.pdbqt
 14 15 0 0 0
SMALL
GASTEIGER

@<TRIPOS>ATOM
      1  C          8.1280   -2.5610   -3.5810 C.3     1  UNL1        0.0800
      2  C          9.2400   -3.5350   -3.3920 C.2     1  UNL1        0.1300
      3  C          8.9880   -4.9970   -3.2850 C.3     1  UNL1        0.0870
      4  O         10.3980   -3.1570   -3.3190 O.2     1  UNL1       -0.3000
      5  C          8.5020   -1.1900   -3.0520 C.3     1  UNL1        0.0430
      6  C          7.7370   -0.8450   -1.8410 C.2     1  UNL1       -0.0440
      7  C          7.7730   -1.6490   -0.6960 C.2     1  UNL1        0.0080
      8  C          6.9660    0.2950   -1.8230 C.2     1  UNL1        0.0540
      9  C          7.0350   -1.2740    0.4110 C.2     1  UNL1        0.0510
     10  C          6.2220    0.6710   -0.7010 C.2     1  UNL1        0.1660
     11  C          6.2560   -0.1210    0.4260 C.2     1  UNL1        0.1650
     12  O          5.3900    1.7390   -0.4390 O.2     1  UNL1       -0.4540
     13  O          5.4380    0.4850    1.3660 O.2     1  UNL1       -0.4540
     14  C          4.9410    1.7130    0.8920 C.3     1  UNL1        0.4680
@<TRIPOS>BOND
     1     1     2    1
     2     1     5    1
     3     2     4    2
     4     2     3    1
     5     5     6    1
     6     6     8    2
     7     6     7    1
     8     8    10    1
     9    10    12    1
    10    10    11    2
    11     7     9    2
    12    12    14    1
    13     9    11    1
    14    11    13    1
    15    14    13    1
