@<TRIPOS>MOLECULE
/home/cewinharhar/GITHUB/reincatalyze/data/processed/docking_pred/2023-May-25-1902_sub9_nm5_bs15_s42_ex16_mel10_mts10000_k50_ec01_g099_lra3e-4_lrc3e-3/dd626561b0241c753f5aa586a778cbbb50e2da15_ligand_9.pdbqt
 14 15 0 0 0
SMALL
GASTEIGER

@<TRIPOS>ATOM
      1  C          5.7030    0.7500    0.3900 C.3     1  UNL1        0.0800
      2  C          5.4210    0.2870    1.7770 C.2     1  UNL1        0.1300
      3  C          6.2870   -0.7130    2.4580 C.3     1  UNL1        0.0870
      4  O          4.4630    0.7170    2.3990 O.2     1  UNL1       -0.3000
      5  C          7.1940    0.8730    0.1430 C.3     1  UNL1        0.0430
      6  C          7.6380    0.0030   -0.9600 C.2     1  UNL1       -0.0440
      7  C          7.9140    0.5160   -2.2330 C.2     1  UNL1        0.0080
      8  C          7.7920   -1.3480   -0.7450 C.2     1  UNL1        0.0540
      9  C          8.3280   -0.3480   -3.2300 C.2     1  UNL1        0.0510
     10  C          8.2120   -2.2170   -1.7560 C.2     1  UNL1        0.1660
     11  C          8.4820   -1.7130   -3.0090 C.2     1  UNL1        0.1650
     12  O          8.4360   -3.5770   -1.7930 O.2     1  UNL1       -0.4540
     13  O          8.8710   -2.7850   -3.7970 O.2     1  UNL1       -0.4540
     14  C          8.9440   -3.9710   -3.0420 C.3     1  UNL1        0.4680
@<TRIPOS>BOND
     1    13    14    1
     2    13    11    1
     3     9    11    2
     4     9     7    1
     5    14    12    1
     6    11    10    1
     7     7     6    2
     8    12    10    1
     9    10     8    2
    10     6     8    1
    11     6     5    1
    12     5     1    1
    13     1     2    1
    14     2     4    2
    15     2     3    1
