@<TRIPOS>MOLECULE
/home/cewinharhar/GITHUB/reincatalyze/data/processed/docking_pred/2023-May-25-1902_sub9_nm5_bs15_s42_ex16_mel10_mts10000_k50_ec01_g099_lra3e-4_lrc3e-3/dd626561b0241c753f5aa586a778cbbb50e2da15_ligand_9.pdbqt
 14 15 0 0 0
SMALL
GASTEIGER

@<TRIPOS>ATOM
      1  C          6.0020    1.6380    1.1370 C.3     1  UNL1        0.0800
      2  C          5.4380    0.5430    1.9740 C.2     1  UNL1        0.1300
      3  C          6.2290   -0.6710    2.3090 C.3     1  UNL1        0.0870
      4  O          4.3010    0.6110    2.4120 O.2     1  UNL1       -0.3000
      5  C          5.7240    1.4060   -0.3340 C.3     1  UNL1        0.0430
      6  C          6.8000    0.6300   -0.9780 C.2     1  UNL1       -0.0440
      7  C          8.1430    1.0050   -0.8630 C.2     1  UNL1        0.0080
      8  C          6.4870   -0.4930   -1.7100 C.2     1  UNL1        0.0540
      9  C          9.1100    0.2380   -1.4880 C.2     1  UNL1        0.0510
     10  C          7.4680   -1.2650   -2.3390 C.2     1  UNL1        0.1660
     11  C          8.7900   -0.8960   -2.2280 C.2     1  UNL1        0.1650
     12  O          7.4130   -2.4060   -3.1110 O.2     1  UNL1       -0.4540
     13  O          9.5280   -1.8290   -2.9400 O.2     1  UNL1       -0.4540
     14  C          8.7030   -2.8540   -3.4410 C.3     1  UNL1        0.4680
@<TRIPOS>BOND
     1    14    12    1
     2    14    13    1
     3    12    10    1
     4    13    11    1
     5    10    11    2
     6    10     8    1
     7    11     9    1
     8     8     6    2
     9     9     7    2
    10     6     7    1
    11     6     5    1
    12     5     1    1
    13     1     2    1
    14     2     3    1
    15     2     4    2
