@<TRIPOS>MOLECULE
/home/cewinharhar/GITHUB/reincatalyze/data/processed/docking_pred/2023-May-25-1902_sub9_nm5_bs15_s42_ex16_mel10_mts10000_k50_ec01_g099_lra3e-4_lrc3e-3/de552809cd3cf8423e47c41d2ed627091c55f56d_ligand_9.pdbqt
 14 15 0 0 0
SMALL
GASTEIGER

@<TRIPOS>ATOM
      1  C          5.9740    1.2070   -0.1950 C.3     1  UNL1        0.0800
      2  C          5.9130    1.1870    1.2930 C.2     1  UNL1        0.1300
      3  C          5.3120    0.0460    2.0340 C.3     1  UNL1        0.0870
      4  O          6.3570    2.1130    1.9510 O.2     1  UNL1       -0.3000
      5  C          7.4040    1.1190   -0.6880 C.3     1  UNL1        0.0430
      6  C          7.7300   -0.2310   -1.1820 C.2     1  UNL1       -0.0440
      7  C          7.8010   -0.5140   -2.5510 C.2     1  UNL1        0.0080
      8  C          7.9750   -1.2450   -0.2840 C.2     1  UNL1        0.0540
      9  C          8.1120   -1.7990   -2.9550 C.2     1  UNL1        0.0510
     10  C          8.2900   -2.5430   -0.6980 C.2     1  UNL1        0.1660
     11  C          8.3590   -2.8220   -2.0450 C.2     1  UNL1        0.1650
     12  O          8.5700   -3.7060   -0.0130 O.2     1  UNL1       -0.4540
     13  O          8.6840   -4.1640   -2.1600 O.2     1  UNL1       -0.4540
     14  C          8.9160   -4.7410   -0.8970 C.3     1  UNL1        0.4680
@<TRIPOS>BOND
     1     9     7    1
     2     9    11    2
     3     7     6    2
     4    13    11    1
     5    13    14    1
     6    11    10    1
     7     6     5    1
     8     6     8    1
     9    14    12    1
    10    10     8    2
    11    10    12    1
    12     5     1    1
    13     1     2    1
    14     2     4    2
    15     2     3    1
