@<TRIPOS>MOLECULE
/home/cewinharhar/GITHUB/reincatalyze/data/processed/docking_pred/2023-May-25-1902_sub9_nm5_bs15_s42_ex16_mel10_mts10000_k50_ec01_g099_lra3e-4_lrc3e-3/de552809cd3cf8423e47c41d2ed627091c55f56d_ligand_9.pdbqt
 14 15 0 0 0
SMALL
GASTEIGER

@<TRIPOS>ATOM
      1  C          6.2170   -0.3500    2.3180 C.3     1  UNL1        0.0800
      2  C          5.1390    0.5730    1.8660 C.2     1  UNL1        0.1300
      3  C          5.2930    1.4190    0.6520 C.3     1  UNL1        0.0870
      4  O          4.0910    0.6630    2.4850 O.2     1  UNL1       -0.3000
      5  C          7.5290   -0.0480    1.6210 C.3     1  UNL1        0.0430
      6  C          7.8000   -1.0010    0.5300 C.2     1  UNL1       -0.0440
      7  C          7.6270   -0.6470   -0.8130 C.2     1  UNL1        0.0080
      8  C          8.2380   -2.2710    0.8280 C.2     1  UNL1        0.0540
      9  C          7.8980   -1.5840   -1.7930 C.2     1  UNL1        0.0510
     10  C          8.5110   -3.2140   -0.1670 C.2     1  UNL1        0.1660
     11  C          8.3400   -2.8670   -1.4890 C.2     1  UNL1        0.1650
     12  O          8.9490   -4.5210   -0.1290 O.2     1  UNL1       -0.4540
     13  O          8.6800   -3.9800   -2.2430 O.2     1  UNL1       -0.4540
     14  C          9.1590   -5.0210   -1.4250 C.3     1  UNL1        0.4680
@<TRIPOS>BOND
     1    13    11    1
     2    13    14    1
     3     9    11    2
     4     9     7    1
     5    11    10    1
     6    14    12    1
     7     7     6    2
     8    10    12    1
     9    10     8    2
    10     6     8    1
    11     6     5    1
    12     3     2    1
    13     5     1    1
    14     2     1    1
    15     2     4    2
