@<TRIPOS>MOLECULE
/home/cewinharhar/GITHUB/reincatalyze/data/processed/docking_pred/2023-May-25-1902_sub9_nm5_bs15_s42_ex16_mel10_mts10000_k50_ec01_g099_lra3e-4_lrc3e-3/de552809cd3cf8423e47c41d2ed627091c55f56d_ligand_9.pdbqt
 14 15 0 0 0
SMALL
GASTEIGER

@<TRIPOS>ATOM
      1  C          6.3530    1.2260    0.8670 C.3     1  UNL1        0.0800
      2  C          5.6790    0.4010    1.9080 C.2     1  UNL1        0.1300
      3  C          6.3220   -0.8130    2.4780 C.3     1  UNL1        0.0870
      4  O          4.5720    0.6990    2.3250 O.2     1  UNL1       -0.3000
      5  C          5.8420    0.8870   -0.5200 C.3     1  UNL1        0.0430
      6  C          6.8100    0.0710   -1.2740 C.2     1  UNL1       -0.0440
      7  C          7.5220    0.5940   -2.3590 C.2     1  UNL1        0.0080
      8  C          7.0280   -1.2380   -0.9100 C.2     1  UNL1        0.0540
      9  C          8.4180   -0.2190   -3.0290 C.2     1  UNL1        0.0510
     10  C          7.9360   -2.0560   -1.5890 C.2     1  UNL1        0.1660
     11  C          8.6360   -1.5420   -2.6580 C.2     1  UNL1        0.1650
     12  O          8.3240   -3.3690   -1.4250 O.2     1  UNL1       -0.4540
     13  O          9.4490   -2.5600   -3.1320 O.2     1  UNL1       -0.4540
     14  C          9.3500   -3.7080   -2.3220 C.3     1  UNL1        0.4680
@<TRIPOS>BOND
     1    13    11    1
     2    13    14    1
     3     9    11    2
     4     9     7    1
     5    11    10    1
     6     7     6    2
     7    14    12    1
     8    10    12    1
     9    10     8    2
    10     6     8    1
    11     6     5    1
    12     5     1    1
    13     1     2    1
    14     2     4    2
    15     2     3    1
