@<TRIPOS>MOLECULE
/home/cewinharhar/GITHUB/reincatalyze/data/processed/docking_pred/2023-May-25-1902_sub9_nm5_bs15_s42_ex16_mel10_mts10000_k50_ec01_g099_lra3e-4_lrc3e-3/dea2b8be3c05a7e32d8e1c0cb085cc688668c765_ligand_9.pdbqt
 14 15 0 0 0
SMALL
GASTEIGER

@<TRIPOS>ATOM
      1  C          8.3610    0.2210   -2.5880 C.3     1  UNL1        0.0800
      2  C          8.0090   -1.2220   -2.7020 C.2     1  UNL1        0.1300
      3  C          9.0330   -2.2520   -3.0250 C.3     1  UNL1        0.0870
      4  O          6.8620   -1.6030   -2.5320 O.2     1  UNL1       -0.3000
      5  C          8.8790    0.5540   -1.2020 C.3     1  UNL1        0.0430
      6  C          7.8280    0.4160   -0.1790 C.2     1  UNL1       -0.0440
      7  C          7.9120   -0.5460    0.8340 C.2     1  UNL1        0.0080
      8  C          6.7340    1.2510   -0.2080 C.2     1  UNL1        0.0540
      9  C          6.8960   -0.6280    1.7680 C.2     1  UNL1        0.0510
     10  C          5.7090    1.1650    0.7400 C.2     1  UNL1        0.1660
     11  C          5.7910    0.2170    1.7360 C.2     1  UNL1        0.1650
     12  O          4.5370    1.8670    0.9220 O.2     1  UNL1       -0.4540
     13  O          4.6560    0.3600    2.5180 O.2     1  UNL1       -0.4540
     14  C          3.8790    1.4530    2.0920 C.3     1  UNL1        0.4680
@<TRIPOS>BOND
     1     3     2    1
     2     2     1    1
     3     2     4    2
     4     1     5    1
     5     5     6    1
     6     8     6    2
     7     8    10    1
     8     6     7    1
     9    10    12    1
    10    10    11    2
    11     7     9    2
    12    12    14    1
    13    11     9    1
    14    11    13    1
    15    14    13    1
