MODEL 1
REMARK VINA RESULT:      -7.6      0.000      0.000
REMARK SMILES CC(=O)CCc1ccc2c(c1)OCO2
REMARK SMILES IDX 4 1 2 2 1 3 3 4 5 5 6 6 7 7 11 8 8 9 10 10 9 11 12 12 14 13
REMARK SMILES IDX 13 14
REMARK H PARENT
REMARK Flexibility Score: inf
ROOT
ATOM      1  C   UNL     1       5.542   1.902   1.282  1.00  0.00     0.080 C 
ENDROOT
BRANCH   1   2
ATOM      2  C   UNL     1       5.107   0.680   2.014  1.00  0.00     0.130 C 
ATOM      3  C   UNL     1       6.008  -0.491   2.184  1.00  0.00     0.087 C 
ATOM      4  O   UNL     1       3.989   0.605   2.498  1.00  0.00    -0.300 OA
ENDBRANCH   1   2
BRANCH   1   5
ATOM      5  C   UNL     1       5.412   1.720  -0.218  1.00  0.00     0.043 C 
BRANCH   5   6
ATOM      6  C   UNL     1       6.576   1.016  -0.786  1.00  0.00    -0.044 A 
ATOM      7  C   UNL     1       7.885   1.445  -0.538  1.00  0.00     0.008 A 
ATOM      8  C   UNL     1       6.382  -0.092  -1.578  1.00  0.00     0.054 A 
ATOM      9  C   UNL     1       8.938   0.744  -1.098  1.00  0.00     0.051 A 
ATOM     10  C   UNL     1       7.450  -0.798  -2.141  1.00  0.00     0.166 A 
ATOM     11  C   UNL     1       8.738  -0.376  -1.899  1.00  0.00     0.165 A 
ATOM     12  O   UNL     1       7.517  -1.912  -2.951  1.00  0.00    -0.454 OA
ATOM     13  O   UNL     1       9.579  -1.250  -2.571  1.00  0.00    -0.454 OA
ATOM     14  C   UNL     1       8.850  -2.291  -3.177  1.00  0.00     0.468 C 
ENDBRANCH   5   6
ENDBRANCH   1   5
TORSDOF 3
ENDMDL
MODEL 2
REMARK VINA RESULT:      -7.4      1.898      2.385
REMARK SMILES CC(=O)CCc1ccc2c(c1)OCO2
REMARK SMILES IDX 4 1 2 2 1 3 3 4 5 5 6 6 7 7 11 8 8 9 10 10 9 11 12 12 14 13
REMARK SMILES IDX 13 14
REMARK H PARENT
REMARK Flexibility Score: inf
ROOT
ATOM      1  C   UNL     1       5.661   1.156  -0.374  1.00  0.00     0.080 C 
ENDROOT
BRANCH   1   2
ATOM      2  C   UNL     1       5.155   1.212   1.026  1.00  0.00     0.130 C 
ATOM      3  C   UNL     1       5.459   0.139   2.010  1.00  0.00     0.087 C 
ATOM      4  O   UNL     1       4.471   2.148   1.407  1.00  0.00    -0.300 OA
ENDBRANCH   1   2
BRANCH   1   5
ATOM      5  C   UNL     1       7.172   1.041  -0.409  1.00  0.00     0.043 C 
BRANCH   5   6
ATOM      6  C   UNL     1       7.609  -0.239  -0.993  1.00  0.00    -0.044 A 
ATOM      7  C   UNL     1       7.826  -0.381  -2.369  1.00  0.00     0.008 A 
ATOM      8  C   UNL     1       7.815  -1.327  -0.176  1.00  0.00     0.054 A 
ATOM      9  C   UNL     1       8.237  -1.607  -2.860  1.00  0.00     0.051 A 
ATOM     10  C   UNL     1       8.231  -2.564  -0.677  1.00  0.00     0.166 A 
ATOM     11  C   UNL     1       8.444  -2.705  -2.031  1.00  0.00     0.165 A 
ATOM     12  O   UNL     1       8.500  -3.778  -0.081  1.00  0.00    -0.454 OA
ATOM     13  O   UNL     1       8.844  -4.016  -2.239  1.00  0.00    -0.454 OA
ATOM     14  C   UNL     1       8.981  -4.705  -1.020  1.00  0.00     0.468 C 
ENDBRANCH   5   6
ENDBRANCH   1   5
TORSDOF 3
ENDMDL
MODEL 3
REMARK VINA RESULT:      -7.2      2.089      2.611
REMARK SMILES CC(=O)CCc1ccc2c(c1)OCO2
REMARK SMILES IDX 4 1 2 2 1 3 3 4 5 5 6 6 7 7 11 8 8 9 10 10 9 11 12 12 14 13
REMARK SMILES IDX 13 14
REMARK H PARENT
REMARK Flexibility Score: inf
ROOT
ATOM      1  C   UNL     1       5.634   0.085   1.965  1.00  0.00     0.080 C 
ENDROOT
BRANCH   1   2
ATOM      2  C   UNL     1       4.700   1.189   1.610  1.00  0.00     0.130 C 
ATOM      3  C   UNL     1       4.981   2.116   0.481  1.00  0.00     0.087 C 
ATOM      4  O   UNL     1       3.670   1.366   2.240  1.00  0.00    -0.300 OA
ENDBRANCH   1   2
BRANCH   1   5
ATOM      5  C   UNL     1       7.027   0.347   1.426  1.00  0.00     0.043 C 
BRANCH   5   6
ATOM      6  C   UNL     1       7.412  -0.644   0.405  1.00  0.00    -0.044 A 
ATOM      7  C   UNL     1       7.296  -0.371  -0.963  1.00  0.00     0.008 A 
ATOM      8  C   UNL     1       7.902  -1.870   0.795  1.00  0.00     0.054 A 
ATOM      9  C   UNL     1       7.674  -1.339  -1.875  1.00  0.00     0.051 A 
ATOM     10  C   UNL     1       8.283  -2.845  -0.131  1.00  0.00     0.166 A 
ATOM     11  C   UNL     1       8.168  -2.578  -1.477  1.00  0.00     0.165 A 
ATOM     12  O   UNL     1       8.790  -4.121   0.002  1.00  0.00    -0.454 OA
ATOM     13  O   UNL     1       8.612  -3.706  -2.150  1.00  0.00    -0.454 OA
ATOM     14  C   UNL     1       9.100  -4.673  -1.251  1.00  0.00     0.468 C 
ENDBRANCH   5   6
ENDBRANCH   1   5
TORSDOF 3
ENDMDL
MODEL 4
REMARK VINA RESULT:      -7.1      1.239      1.439
REMARK SMILES CC(=O)CCc1ccc2c(c1)OCO2
REMARK SMILES IDX 4 1 2 2 1 3 3 4 5 5 6 6 7 7 11 8 8 9 10 10 9 11 12 12 14 13
REMARK SMILES IDX 13 14
REMARK H PARENT
REMARK Flexibility Score: inf
ROOT
ATOM      1  C   UNL     1       6.354   1.230   0.919  1.00  0.00     0.080 C 
ENDROOT
BRANCH   1   2
ATOM      2  C   UNL     1       5.658   0.380   1.924  1.00  0.00     0.130 C 
ATOM      3  C   UNL     1       6.293  -0.842   2.488  1.00  0.00     0.087 C 
ATOM      4  O   UNL     1       4.538   0.663   2.317  1.00  0.00    -0.300 OA
ENDBRANCH   1   2
BRANCH   1   5
ATOM      5  C   UNL     1       5.851   0.950  -0.483  1.00  0.00     0.043 C 
BRANCH   5   6
ATOM      6  C   UNL     1       6.801   0.124  -1.249  1.00  0.00    -0.044 A 
ATOM      7  C   UNL     1       7.496   0.637  -2.350  1.00  0.00     0.008 A 
ATOM      8  C   UNL     1       7.019  -1.184  -0.880  1.00  0.00     0.054 A 
ATOM      9  C   UNL     1       8.376  -0.185  -3.031  1.00  0.00     0.051 A 
ATOM     10  C   UNL     1       7.910  -2.011  -1.572  1.00  0.00     0.166 A 
ATOM     11  C   UNL     1       8.594  -1.507  -2.656  1.00  0.00     0.165 A 
ATOM     12  O   UNL     1       8.295  -3.325  -1.405  1.00  0.00    -0.454 OA
ATOM     13  O   UNL     1       9.393  -2.532  -3.138  1.00  0.00    -0.454 OA
ATOM     14  C   UNL     1       9.302  -3.674  -2.319  1.00  0.00     0.468 C 
ENDBRANCH   5   6
ENDBRANCH   1   5
TORSDOF 3
ENDMDL
MODEL 5
REMARK VINA RESULT:      -6.9      1.941      2.540
REMARK SMILES CC(=O)CCc1ccc2c(c1)OCO2
REMARK SMILES IDX 4 1 2 2 1 3 3 4 5 5 6 6 7 7 11 8 8 9 10 10 9 11 12 12 14 13
REMARK SMILES IDX 13 14
REMARK H PARENT
REMARK Flexibility Score: inf
ROOT
ATOM      1  C   UNL     1       6.884   0.940   1.059  1.00  0.00     0.080 C 
ENDROOT
BRANCH   1   2
ATOM      2  C   UNL     1       5.458   1.154   1.433  1.00  0.00     0.130 C 
ATOM      3  C   UNL     1       4.607   2.150   0.729  1.00  0.00     0.087 C 
ATOM      4  O   UNL     1       4.944   0.512   2.334  1.00  0.00    -0.300 OA
ENDBRANCH   1   2
BRANCH   1   5
ATOM      5  C   UNL     1       7.075   1.002  -0.443  1.00  0.00     0.043 C 
BRANCH   5   6
ATOM      6  C   UNL     1       7.495  -0.298  -0.995  1.00  0.00    -0.044 A 
ATOM      7  C   UNL     1       7.573  -0.518  -2.375  1.00  0.00     0.008 A 
ATOM      8  C   UNL     1       7.823  -1.327  -0.142  1.00  0.00     0.054 A 
ATOM      9  C   UNL     1       7.974  -1.760  -2.835  1.00  0.00     0.051 A 
ATOM     10  C   UNL     1       8.229  -2.580  -0.612  1.00  0.00     0.166 A 
ATOM     11  C   UNL     1       8.304  -2.798  -1.970  1.00  0.00     0.165 A 
ATOM     12  O   UNL     1       8.601  -3.746   0.022  1.00  0.00    -0.454 OA
ATOM     13  O   UNL     1       8.727  -4.107  -2.142  1.00  0.00    -0.454 OA
ATOM     14  C   UNL     1       9.014  -4.715  -0.906  1.00  0.00     0.468 C 
ENDBRANCH   5   6
ENDBRANCH   1   5
TORSDOF 3
ENDMDL
