@<TRIPOS>MOLECULE
/home/cewinharhar/GITHUB/reincatalyze/data/processed/docking_pred/2023-May-25-1902_sub9_nm5_bs15_s42_ex16_mel10_mts10000_k50_ec01_g099_lra3e-4_lrc3e-3/e1ac879641feb84a16575019a922afe40680d27c_ligand_9.pdbqt
 14 15 0 0 0
SMALL
GASTEIGER

@<TRIPOS>ATOM
      1  C          6.3930    1.2110    0.9170 C.3     1  UNL1        0.0800
      2  C          5.6670    0.3890    1.9250 C.2     1  UNL1        0.1300
      3  C          6.2690   -0.8380    2.5120 C.3     1  UNL1        0.0870
      4  O          4.5490    0.7020    2.3010 O.2     1  UNL1       -0.3000
      5  C          5.8890    0.9330   -0.4860 C.3     1  UNL1        0.0430
      6  C          6.8370    0.1050   -1.2530 C.2     1  UNL1       -0.0440
      7  C          7.5310    0.6160   -2.3550 C.2     1  UNL1        0.0080
      8  C          7.0530   -1.2030   -0.8840 C.2     1  UNL1        0.0540
      9  C          8.4080   -0.2080   -3.0370 C.2     1  UNL1        0.0510
     10  C          7.9420   -2.0320   -1.5760 C.2     1  UNL1        0.1660
     11  C          8.6240   -1.5300   -2.6610 C.2     1  UNL1        0.1650
     12  O          8.3240   -3.3460   -1.4090 O.2     1  UNL1       -0.4540
     13  O          9.4210   -2.5570   -3.1430 O.2     1  UNL1       -0.4540
     14  C          9.3300   -3.6980   -2.3240 C.3     1  UNL1        0.4680
@<TRIPOS>BOND
     1    13    11    1
     2    13    14    1
     3     9    11    2
     4     9     7    1
     5    11    10    1
     6     7     6    2
     7    14    12    1
     8    10    12    1
     9    10     8    2
    10     6     8    1
    11     6     5    1
    12     5     1    1
    13     1     2    1
    14     2     4    2
    15     2     3    1
