@<TRIPOS>MOLECULE
/home/cewinharhar/GITHUB/reincatalyze/data/processed/docking_pred/2023-May-25-1902_sub9_nm5_bs15_s42_ex16_mel10_mts10000_k50_ec01_g099_lra3e-4_lrc3e-3/e1ac879641feb84a16575019a922afe40680d27c_ligand_9.pdbqt
 14 15 0 0 0
SMALL
GASTEIGER

@<TRIPOS>ATOM
      1  C          5.5410    1.9080    1.2530 C.3     1  UNL1        0.0800
      2  C          5.0970    0.7030    2.0070 C.2     1  UNL1        0.1300
      3  C          5.9850   -0.4770    2.1860 C.3     1  UNL1        0.0870
      4  O          3.9830    0.6480    2.5020 O.2     1  UNL1       -0.3000
      5  C          5.4060    1.7030   -0.2430 C.3     1  UNL1        0.0430
      6  C          6.5750    1.0060   -0.8060 C.2     1  UNL1       -0.0440
      7  C          7.8810    1.4460   -0.5590 C.2     1  UNL1        0.0080
      8  C          6.3910   -0.1070   -1.5940 C.2     1  UNL1        0.0540
      9  C          8.9400    0.7510   -1.1140 C.2     1  UNL1        0.0510
     10  C          7.4650   -0.8070   -2.1530 C.2     1  UNL1        0.1660
     11  C          8.7500   -0.3740   -1.9110 C.2     1  UNL1        0.1650
     12  O          7.5430   -1.9230   -2.9580 O.2     1  UNL1       -0.4540
     13  O          9.5990   -1.2430   -2.5780 O.2     1  UNL1       -0.4540
     14  C          8.8800   -2.2930   -3.1800 C.3     1  UNL1        0.4680
@<TRIPOS>BOND
     1    14    12    1
     2    14    13    1
     3    12    10    1
     4    13    11    1
     5    10    11    2
     6    10     8    1
     7    11     9    1
     8     8     6    2
     9     9     7    2
    10     6     7    1
    11     6     5    1
    12     5     1    1
    13     1     2    1
    14     2     3    1
    15     2     4    2
