@<TRIPOS>MOLECULE
/home/cewinharhar/GITHUB/reincatalyze/data/processed/docking_pred/2023-May-25-1902_sub9_nm5_bs15_s42_ex16_mel10_mts10000_k50_ec01_g099_lra3e-4_lrc3e-3/e1ce65d60a2474d246d1f5974e33526a3c4c7326_ligand_9.pdbqt
 14 15 0 0 0
SMALL
GASTEIGER

@<TRIPOS>ATOM
      1  C          6.8440    0.8860    1.3250 C.3     1  UNL1        0.0800
      2  C          5.3860    1.1470    1.4850 C.2     1  UNL1        0.1300
      3  C          4.6750    2.1500    0.6480 C.3     1  UNL1        0.0870
      4  O          4.7290    0.5410    2.3160 O.2     1  UNL1       -0.3000
      5  C          7.2810    1.0750   -0.1140 C.3     1  UNL1        0.0430
      6  C          7.6260   -0.2070   -0.7540 C.2     1  UNL1       -0.0440
      7  C          7.6610   -0.3450   -2.1470 C.2     1  UNL1        0.0080
      8  C          7.9240   -1.3010    0.0260 C.2     1  UNL1        0.0540
      9  C          7.9920   -1.5730   -2.6910 C.2     1  UNL1        0.0510
     10  C          8.2580   -2.5400   -0.5290 C.2     1  UNL1        0.1660
     11  C          8.2920   -2.6770   -1.8990 C.2     1  UNL1        0.1650
     12  O          8.5890   -3.7580    0.0240 O.2     1  UNL1       -0.4540
     13  O          8.6480   -3.9900   -2.1610 O.2     1  UNL1       -0.4540
     14  C          8.9340   -4.6870   -0.9720 C.3     1  UNL1        0.4680
@<TRIPOS>BOND
     1     9     7    1
     2     9    11    2
     3    13    11    1
     4    13    14    1
     5     7     6    2
     6    11    10    1
     7    14    12    1
     8     6     5    1
     9     6     8    1
    10    10    12    1
    11    10     8    2
    12     5     1    1
    13     3     2    1
    14     1     2    1
    15     2     4    2
