@<TRIPOS>MOLECULE
/home/cewinharhar/GITHUB/reincatalyze/data/processed/docking_pred/2023-May-25-1902_sub9_nm5_bs15_s42_ex16_mel10_mts10000_k50_ec01_g099_lra3e-4_lrc3e-3/e1ce65d60a2474d246d1f5974e33526a3c4c7326_ligand_9.pdbqt
 14 15 0 0 0
SMALL
GASTEIGER

@<TRIPOS>ATOM
      1  C          5.5800    0.0170    1.9400 C.3     1  UNL1        0.0800
      2  C          4.6760    1.1610    1.6350 C.2     1  UNL1        0.1300
      3  C          4.9440    2.0880    0.5030 C.3     1  UNL1        0.0870
      4  O          3.6830    1.3730    2.3120 O.2     1  UNL1       -0.3000
      5  C          6.9890    0.2820    1.4490 C.3     1  UNL1        0.0430
      6  C          7.4000   -0.6870    0.4180 C.2     1  UNL1       -0.0440
      7  C          7.3210   -0.3840   -0.9470 C.2     1  UNL1        0.0080
      8  C          7.8790   -1.9210    0.7930 C.2     1  UNL1        0.0540
      9  C          7.7220   -1.3320   -1.8690 C.2     1  UNL1        0.0510
     10  C          8.2840   -2.8770   -0.1430 C.2     1  UNL1        0.1660
     11  C          8.2040   -2.5800   -1.4860 C.2     1  UNL1        0.1650
     12  O          8.7850   -4.1550   -0.0250 O.2     1  UNL1       -0.4540
     13  O          8.6650   -3.6940   -2.1700 O.2     1  UNL1       -0.4540
     14  C          9.1280   -4.6810   -1.2810 C.3     1  UNL1        0.4680
@<TRIPOS>BOND
     1    13    11    1
     2    13    14    1
     3     9    11    2
     4     9     7    1
     5    11    10    1
     6    14    12    1
     7     7     6    2
     8    10    12    1
     9    10     8    2
    10     6     8    1
    11     6     5    1
    12     3     2    1
    13     5     1    1
    14     2     1    1
    15     2     4    2
