@<TRIPOS>MOLECULE
/home/cewinharhar/GITHUB/reincatalyze/data/processed/docking_pred/2023-May-25-1902_sub9_nm5_bs15_s42_ex16_mel10_mts10000_k50_ec01_g099_lra3e-4_lrc3e-3/e1ce65d60a2474d246d1f5974e33526a3c4c7326_ligand_9.pdbqt
 14 15 0 0 0
SMALL
GASTEIGER

@<TRIPOS>ATOM
      1  C          5.5020    1.9350    1.2600 C.3     1  UNL1        0.0800
      2  C          5.0620    0.7170    1.9970 C.2     1  UNL1        0.1300
      3  C          5.9500   -0.4670    2.1490 C.3     1  UNL1        0.0870
      4  O          3.9520    0.6560    2.5010 O.2     1  UNL1       -0.3000
      5  C          5.3820    1.7430   -0.2390 C.3     1  UNL1        0.0430
      6  C          6.5520    1.0420   -0.7960 C.2     1  UNL1       -0.0440
      7  C          7.8570    1.4740   -0.5380 C.2     1  UNL1        0.0080
      8  C          6.3680   -0.0690   -1.5880 C.2     1  UNL1        0.0540
      9  C          8.9170    0.7750   -1.0870 C.2     1  UNL1        0.0510
     10  C          7.4420   -0.7730   -2.1410 C.2     1  UNL1        0.1660
     11  C          8.7270   -0.3470   -1.8880 C.2     1  UNL1        0.1650
     12  O          7.5200   -1.8870   -2.9480 O.2     1  UNL1       -0.4540
     13  O          9.5760   -1.2180   -2.5520 O.2     1  UNL1       -0.4540
     14  C          8.8560   -2.2630   -3.1620 C.3     1  UNL1        0.4680
@<TRIPOS>BOND
     1    14    12    1
     2    14    13    1
     3    12    10    1
     4    13    11    1
     5    10    11    2
     6    10     8    1
     7    11     9    1
     8     8     6    2
     9     9     7    2
    10     6     7    1
    11     6     5    1
    12     5     1    1
    13     1     2    1
    14     2     3    1
    15     2     4    2
