MODEL 1
REMARK VINA RESULT:      -7.6      0.000      0.000
REMARK SMILES CC(=O)CCc1ccc2c(c1)OCO2
REMARK SMILES IDX 4 1 2 2 1 3 3 4 5 5 6 6 7 7 11 8 8 9 10 10 9 11 12 12 14 13
REMARK SMILES IDX 13 14
REMARK H PARENT
REMARK Flexibility Score: inf
ROOT
ATOM      1  C   UNL     1       5.502   1.935   1.260  1.00  0.00     0.080 C 
ENDROOT
BRANCH   1   2
ATOM      2  C   UNL     1       5.062   0.717   1.997  1.00  0.00     0.130 C 
ATOM      3  C   UNL     1       5.950  -0.467   2.149  1.00  0.00     0.087 C 
ATOM      4  O   UNL     1       3.952   0.656   2.501  1.00  0.00    -0.300 OA
ENDBRANCH   1   2
BRANCH   1   5
ATOM      5  C   UNL     1       5.382   1.743  -0.239  1.00  0.00     0.043 C 
BRANCH   5   6
ATOM      6  C   UNL     1       6.552   1.042  -0.796  1.00  0.00    -0.044 A 
ATOM      7  C   UNL     1       7.857   1.474  -0.538  1.00  0.00     0.008 A 
ATOM      8  C   UNL     1       6.368  -0.069  -1.588  1.00  0.00     0.054 A 
ATOM      9  C   UNL     1       8.917   0.775  -1.087  1.00  0.00     0.051 A 
ATOM     10  C   UNL     1       7.442  -0.773  -2.141  1.00  0.00     0.166 A 
ATOM     11  C   UNL     1       8.727  -0.347  -1.888  1.00  0.00     0.165 A 
ATOM     12  O   UNL     1       7.520  -1.887  -2.948  1.00  0.00    -0.454 OA
ATOM     13  O   UNL     1       9.576  -1.218  -2.552  1.00  0.00    -0.454 OA
ATOM     14  C   UNL     1       8.856  -2.263  -3.162  1.00  0.00     0.468 C 
ENDBRANCH   5   6
ENDBRANCH   1   5
TORSDOF 3
ENDMDL
MODEL 2
REMARK VINA RESULT:      -7.4      1.934      2.419
REMARK SMILES CC(=O)CCc1ccc2c(c1)OCO2
REMARK SMILES IDX 4 1 2 2 1 3 3 4 5 5 6 6 7 7 11 8 8 9 10 10 9 11 12 12 14 13
REMARK SMILES IDX 13 14
REMARK H PARENT
REMARK Flexibility Score: inf
ROOT
ATOM      1  C   UNL     1       5.752   1.290  -0.314  1.00  0.00     0.080 C 
ENDROOT
BRANCH   1   2
ATOM      2  C   UNL     1       5.171   1.226   1.056  1.00  0.00     0.130 C 
ATOM      3  C   UNL     1       5.370   0.042   1.934  1.00  0.00     0.087 C 
ATOM      4  O   UNL     1       4.509   2.150   1.500  1.00  0.00    -0.300 OA
ENDBRANCH   1   2
BRANCH   1   5
ATOM      5  C   UNL     1       7.251   1.065  -0.286  1.00  0.00     0.043 C 
BRANCH   5   6
ATOM      6  C   UNL     1       7.622  -0.227  -0.891  1.00  0.00    -0.044 A 
ATOM      7  C   UNL     1       7.670  -0.399  -2.280  1.00  0.00     0.008 A 
ATOM      8  C   UNL     1       7.931  -1.295  -0.081  1.00  0.00     0.054 A 
ATOM      9  C   UNL     1       8.025  -1.634  -2.790  1.00  0.00     0.051 A 
ATOM     10  C   UNL     1       8.290  -2.542  -0.603  1.00  0.00     0.166 A 
ATOM     11  C   UNL     1       8.337  -2.713  -1.969  1.00  0.00     0.165 A 
ATOM     12  O   UNL     1       8.636  -3.741  -0.017  1.00  0.00    -0.454 OA
ATOM     13  O   UNL     1       8.716  -4.027  -2.195  1.00  0.00    -0.454 OA
ATOM     14  C   UNL     1       9.004  -4.689  -0.987  1.00  0.00     0.468 C 
ENDBRANCH   5   6
ENDBRANCH   1   5
TORSDOF 3
ENDMDL
MODEL 3
REMARK VINA RESULT:      -7.1      2.098      2.624
REMARK SMILES CC(=O)CCc1ccc2c(c1)OCO2
REMARK SMILES IDX 4 1 2 2 1 3 3 4 5 5 6 6 7 7 11 8 8 9 10 10 9 11 12 12 14 13
REMARK SMILES IDX 13 14
REMARK H PARENT
REMARK Flexibility Score: inf
ROOT
ATOM      1  C   UNL     1       5.580   0.017   1.940  1.00  0.00     0.080 C 
ENDROOT
BRANCH   1   2
ATOM      2  C   UNL     1       4.676   1.161   1.635  1.00  0.00     0.130 C 
ATOM      3  C   UNL     1       4.944   2.088   0.503  1.00  0.00     0.087 C 
ATOM      4  O   UNL     1       3.683   1.373   2.312  1.00  0.00    -0.300 OA
ENDBRANCH   1   2
BRANCH   1   5
ATOM      5  C   UNL     1       6.989   0.282   1.449  1.00  0.00     0.043 C 
BRANCH   5   6
ATOM      6  C   UNL     1       7.400  -0.687   0.418  1.00  0.00    -0.044 A 
ATOM      7  C   UNL     1       7.321  -0.384  -0.947  1.00  0.00     0.008 A 
ATOM      8  C   UNL     1       7.879  -1.921   0.793  1.00  0.00     0.054 A 
ATOM      9  C   UNL     1       7.722  -1.332  -1.869  1.00  0.00     0.051 A 
ATOM     10  C   UNL     1       8.284  -2.877  -0.143  1.00  0.00     0.166 A 
ATOM     11  C   UNL     1       8.204  -2.580  -1.486  1.00  0.00     0.165 A 
ATOM     12  O   UNL     1       8.785  -4.155  -0.025  1.00  0.00    -0.454 OA
ATOM     13  O   UNL     1       8.665  -3.694  -2.170  1.00  0.00    -0.454 OA
ATOM     14  C   UNL     1       9.128  -4.681  -1.281  1.00  0.00     0.468 C 
ENDBRANCH   5   6
ENDBRANCH   1   5
TORSDOF 3
ENDMDL
MODEL 4
REMARK VINA RESULT:      -7.0      1.259      1.484
REMARK SMILES CC(=O)CCc1ccc2c(c1)OCO2
REMARK SMILES IDX 4 1 2 2 1 3 3 4 5 5 6 6 7 7 11 8 8 9 10 10 9 11 12 12 14 13
REMARK SMILES IDX 13 14
REMARK H PARENT
REMARK Flexibility Score: inf
ROOT
ATOM      1  C   UNL     1       6.337   1.228   0.876  1.00  0.00     0.080 C 
ENDROOT
BRANCH   1   2
ATOM      2  C   UNL     1       5.671   0.389   1.912  1.00  0.00     0.130 C 
ATOM      3  C   UNL     1       6.325  -0.821   2.476  1.00  0.00     0.087 C 
ATOM      4  O   UNL     1       4.560   0.675   2.329  1.00  0.00    -0.300 OA
ENDBRANCH   1   2
BRANCH   1   5
ATOM      5  C   UNL     1       5.830   0.893  -0.513  1.00  0.00     0.043 C 
BRANCH   5   6
ATOM      6  C   UNL     1       6.799   0.076  -1.266  1.00  0.00    -0.044 A 
ATOM      7  C   UNL     1       7.508   0.597  -2.353  1.00  0.00     0.008 A 
ATOM      8  C   UNL     1       7.020  -1.232  -0.897  1.00  0.00     0.054 A 
ATOM      9  C   UNL     1       8.405  -0.218  -3.022  1.00  0.00     0.051 A 
ATOM     10  C   UNL     1       7.928  -2.051  -1.575  1.00  0.00     0.166 A 
ATOM     11  C   UNL     1       8.626  -1.539  -2.647  1.00  0.00     0.165 A 
ATOM     12  O   UNL     1       8.318  -3.362  -1.406  1.00  0.00    -0.454 OA
ATOM     13  O   UNL     1       9.439  -2.558  -3.118  1.00  0.00    -0.454 OA
ATOM     14  C   UNL     1       9.343  -3.703  -2.304  1.00  0.00     0.468 C 
ENDBRANCH   5   6
ENDBRANCH   1   5
TORSDOF 3
ENDMDL
MODEL 5
REMARK VINA RESULT:      -7.0      1.960      2.506
REMARK SMILES CC(=O)CCc1ccc2c(c1)OCO2
REMARK SMILES IDX 4 1 2 2 1 3 3 4 5 5 6 6 7 7 11 8 8 9 10 10 9 11 12 12 14 13
REMARK SMILES IDX 13 14
REMARK H PARENT
REMARK Flexibility Score: inf
ROOT
ATOM      1  C   UNL     1       6.844   0.886   1.325  1.00  0.00     0.080 C 
ENDROOT
BRANCH   1   2
ATOM      2  C   UNL     1       5.386   1.147   1.485  1.00  0.00     0.130 C 
ATOM      3  C   UNL     1       4.675   2.150   0.648  1.00  0.00     0.087 C 
ATOM      4  O   UNL     1       4.729   0.541   2.316  1.00  0.00    -0.300 OA
ENDBRANCH   1   2
BRANCH   1   5
ATOM      5  C   UNL     1       7.281   1.075  -0.114  1.00  0.00     0.043 C 
BRANCH   5   6
ATOM      6  C   UNL     1       7.626  -0.207  -0.754  1.00  0.00    -0.044 A 
ATOM      7  C   UNL     1       7.661  -0.345  -2.147  1.00  0.00     0.008 A 
ATOM      8  C   UNL     1       7.924  -1.301   0.026  1.00  0.00     0.054 A 
ATOM      9  C   UNL     1       7.992  -1.573  -2.691  1.00  0.00     0.051 A 
ATOM     10  C   UNL     1       8.258  -2.540  -0.529  1.00  0.00     0.166 A 
ATOM     11  C   UNL     1       8.292  -2.677  -1.899  1.00  0.00     0.165 A 
ATOM     12  O   UNL     1       8.589  -3.758   0.024  1.00  0.00    -0.454 OA
ATOM     13  O   UNL     1       8.648  -3.990  -2.161  1.00  0.00    -0.454 OA
ATOM     14  C   UNL     1       8.934  -4.687  -0.972  1.00  0.00     0.468 C 
ENDBRANCH   5   6
ENDBRANCH   1   5
TORSDOF 3
ENDMDL
