@<TRIPOS>MOLECULE
/home/cewinharhar/GITHUB/reincatalyze/data/processed/docking_pred/2023-May-25-1902_sub9_nm5_bs15_s42_ex16_mel10_mts10000_k50_ec01_g099_lra3e-4_lrc3e-3/e3e0f9713a2c6d1770d60d03407d62bfa70f046f_ligand_9.pdbqt
 14 15 0 0 0
SMALL
GASTEIGER

@<TRIPOS>ATOM
      1  C          5.4420   -0.0350    2.0060 C.3     1  UNL1        0.0800
      2  C          4.5800    1.1530    1.7540 C.2     1  UNL1        0.1300
      3  C          4.8970    2.1340    0.6820 C.3     1  UNL1        0.0870
      4  O          3.5830    1.3580    2.4270 O.2     1  UNL1       -0.3000
      5  C          6.8710    0.2190    1.5710 C.3     1  UNL1        0.0430
      6  C          7.2930   -0.7130    0.5090 C.2     1  UNL1       -0.0440
      7  C          7.1660   -0.3850   -0.8460 C.2     1  UNL1        0.0080
      8  C          7.8280   -1.9350    0.8460 C.2     1  UNL1        0.0540
      9  C          7.5790   -1.2990   -1.7990 C.2     1  UNL1        0.0510
     10  C          8.2450   -2.8550   -0.1210 C.2     1  UNL1        0.1660
     11  C          8.1190   -2.5340   -1.4540 C.2     1  UNL1        0.1650
     12  O          8.7990   -4.1150   -0.0420 O.2     1  UNL1       -0.4540
     13  O          8.6050   -3.6150   -2.1730 O.2     1  UNL1       -0.4540
     14  C          9.1290   -4.6010   -1.3170 C.3     1  UNL1        0.4680
@<TRIPOS>BOND
     1    13    11    1
     2    13    14    1
     3     9    11    2
     4     9     7    1
     5    11    10    1
     6    14    12    1
     7     7     6    2
     8    10    12    1
     9    10     8    2
    10     6     8    1
    11     6     5    1
    12     3     2    1
    13     5     1    1
    14     2     1    1
    15     2     4    2
