MODEL 1
REMARK VINA RESULT:      -7.7      0.000      0.000
REMARK SMILES CC(=O)CCc1ccc2c(c1)OCO2
REMARK SMILES IDX 4 1 2 2 1 3 3 4 5 5 6 6 7 7 11 8 8 9 10 10 9 11 12 12 14 13
REMARK SMILES IDX 13 14
REMARK H PARENT
REMARK Flexibility Score: inf
ROOT
ATOM      1  C   UNL     1       5.514   1.901   1.278  1.00  0.00     0.080 C 
ENDROOT
BRANCH   1   2
ATOM      2  C   UNL     1       5.065   0.682   2.007  1.00  0.00     0.130 C 
ATOM      3  C   UNL     1       5.946  -0.506   2.158  1.00  0.00     0.087 C 
ATOM      4  O   UNL     1       3.952   0.624   2.505  1.00  0.00    -0.300 OA
ENDBRANCH   1   2
BRANCH   1   5
ATOM      5  C   UNL     1       5.389   1.723  -0.222  1.00  0.00     0.043 C 
BRANCH   5   6
ATOM      6  C   UNL     1       6.558   1.026  -0.788  1.00  0.00    -0.044 A 
ATOM      7  C   UNL     1       7.863   1.468  -0.545  1.00  0.00     0.008 A 
ATOM      8  C   UNL     1       6.373  -0.088  -1.575  1.00  0.00     0.054 A 
ATOM      9  C   UNL     1       8.922   0.774  -1.103  1.00  0.00     0.051 A 
ATOM     10  C   UNL     1       7.446  -0.786  -2.136  1.00  0.00     0.166 A 
ATOM     11  C   UNL     1       8.731  -0.351  -1.898  1.00  0.00     0.165 A 
ATOM     12  O   UNL     1       7.523  -1.903  -2.941  1.00  0.00    -0.454 OA
ATOM     13  O   UNL     1       9.579  -1.220  -2.568  1.00  0.00    -0.454 OA
ATOM     14  C   UNL     1       8.859  -2.271  -3.167  1.00  0.00     0.468 C 
ENDBRANCH   5   6
ENDBRANCH   1   5
TORSDOF 3
ENDMDL
MODEL 2
REMARK VINA RESULT:      -7.5      1.900      2.403
REMARK SMILES CC(=O)CCc1ccc2c(c1)OCO2
REMARK SMILES IDX 4 1 2 2 1 3 3 4 5 5 6 6 7 7 11 8 8 9 10 10 9 11 12 12 14 13
REMARK SMILES IDX 13 14
REMARK H PARENT
REMARK Flexibility Score: inf
ROOT
ATOM      1  C   UNL     1       5.736   1.346  -0.351  1.00  0.00     0.080 C 
ENDROOT
BRANCH   1   2
ATOM      2  C   UNL     1       5.144   1.293   1.015  1.00  0.00     0.130 C 
ATOM      3  C   UNL     1       5.479   0.204   1.970  1.00  0.00     0.087 C 
ATOM      4  O   UNL     1       4.360   2.150   1.392  1.00  0.00    -0.300 OA
ENDBRANCH   1   2
BRANCH   1   5
ATOM      5  C   UNL     1       7.230   1.094  -0.313  1.00  0.00     0.043 C 
BRANCH   5   6
ATOM      6  C   UNL     1       7.581  -0.202  -0.922  1.00  0.00    -0.044 A 
ATOM      7  C   UNL     1       7.601  -0.378  -2.310  1.00  0.00     0.008 A 
ATOM      8  C   UNL     1       7.900  -1.271  -0.115  1.00  0.00     0.054 A 
ATOM      9  C   UNL     1       7.939  -1.616  -2.825  1.00  0.00     0.051 A 
ATOM     10  C   UNL     1       8.241  -2.520  -0.641  1.00  0.00     0.166 A 
ATOM     11  C   UNL     1       8.261  -2.695  -2.006  1.00  0.00     0.165 A 
ATOM     12  O   UNL     1       8.592  -3.720  -0.059  1.00  0.00    -0.454 OA
ATOM     13  O   UNL     1       8.628  -4.011  -2.237  1.00  0.00    -0.454 OA
ATOM     14  C   UNL     1       8.935  -4.672  -1.033  1.00  0.00     0.468 C 
ENDBRANCH   5   6
ENDBRANCH   1   5
TORSDOF 3
ENDMDL
MODEL 3
REMARK VINA RESULT:      -7.2      2.050      2.614
REMARK SMILES CC(=O)CCc1ccc2c(c1)OCO2
REMARK SMILES IDX 4 1 2 2 1 3 3 4 5 5 6 6 7 7 11 8 8 9 10 10 9 11 12 12 14 13
REMARK SMILES IDX 13 14
REMARK H PARENT
REMARK Flexibility Score: inf
ROOT
ATOM      1  C   UNL     1       5.442  -0.035   2.006  1.00  0.00     0.080 C 
ENDROOT
BRANCH   1   2
ATOM      2  C   UNL     1       4.580   1.153   1.754  1.00  0.00     0.130 C 
ATOM      3  C   UNL     1       4.897   2.134   0.682  1.00  0.00     0.087 C 
ATOM      4  O   UNL     1       3.583   1.358   2.427  1.00  0.00    -0.300 OA
ENDBRANCH   1   2
BRANCH   1   5
ATOM      5  C   UNL     1       6.871   0.219   1.571  1.00  0.00     0.043 C 
BRANCH   5   6
ATOM      6  C   UNL     1       7.293  -0.713   0.509  1.00  0.00    -0.044 A 
ATOM      7  C   UNL     1       7.166  -0.385  -0.846  1.00  0.00     0.008 A 
ATOM      8  C   UNL     1       7.828  -1.935   0.846  1.00  0.00     0.054 A 
ATOM      9  C   UNL     1       7.579  -1.299  -1.799  1.00  0.00     0.051 A 
ATOM     10  C   UNL     1       8.245  -2.855  -0.121  1.00  0.00     0.166 A 
ATOM     11  C   UNL     1       8.119  -2.534  -1.454  1.00  0.00     0.165 A 
ATOM     12  O   UNL     1       8.799  -4.115  -0.042  1.00  0.00    -0.454 OA
ATOM     13  O   UNL     1       8.605  -3.615  -2.173  1.00  0.00    -0.454 OA
ATOM     14  C   UNL     1       9.129  -4.601  -1.317  1.00  0.00     0.468 C 
ENDBRANCH   5   6
ENDBRANCH   1   5
TORSDOF 3
ENDMDL
MODEL 4
REMARK VINA RESULT:      -7.1      1.258      1.472
REMARK SMILES CC(=O)CCc1ccc2c(c1)OCO2
REMARK SMILES IDX 4 1 2 2 1 3 3 4 5 5 6 6 7 7 11 8 8 9 10 10 9 11 12 12 14 13
REMARK SMILES IDX 13 14
REMARK H PARENT
REMARK Flexibility Score: inf
ROOT
ATOM      1  C   UNL     1       6.379   1.179   0.955  1.00  0.00     0.080 C 
ENDROOT
BRANCH   1   2
ATOM      2  C   UNL     1       5.649   0.362   1.963  1.00  0.00     0.130 C 
ATOM      3  C   UNL     1       6.247  -0.865   2.555  1.00  0.00     0.087 C 
ATOM      4  O   UNL     1       4.530   0.677   2.335  1.00  0.00    -0.300 OA
ENDBRANCH   1   2
BRANCH   1   5
ATOM      5  C   UNL     1       5.866   0.912  -0.446  1.00  0.00     0.043 C 
BRANCH   5   6
ATOM      6  C   UNL     1       6.810   0.091  -1.226  1.00  0.00    -0.044 A 
ATOM      7  C   UNL     1       7.480   0.605  -2.342  1.00  0.00     0.008 A 
ATOM      8  C   UNL     1       7.048  -1.213  -0.855  1.00  0.00     0.054 A 
ATOM      9  C   UNL     1       8.355  -0.211  -3.035  1.00  0.00     0.051 A 
ATOM     10  C   UNL     1       7.934  -2.034  -1.559  1.00  0.00     0.166 A 
ATOM     11  C   UNL     1       8.593  -1.529  -2.658  1.00  0.00     0.165 A 
ATOM     12  O   UNL     1       8.334  -3.343  -1.394  1.00  0.00    -0.454 OA
ATOM     13  O   UNL     1       9.393  -2.549  -3.149  1.00  0.00    -0.454 OA
ATOM     14  C   UNL     1       9.328  -3.688  -2.324  1.00  0.00     0.468 C 
ENDBRANCH   5   6
ENDBRANCH   1   5
TORSDOF 3
ENDMDL
MODEL 5
REMARK VINA RESULT:      -7.1      1.993      2.547
REMARK SMILES CC(=O)CCc1ccc2c(c1)OCO2
REMARK SMILES IDX 4 1 2 2 1 3 3 4 5 5 6 6 7 7 11 8 8 9 10 10 9 11 12 12 14 13
REMARK SMILES IDX 13 14
REMARK H PARENT
REMARK Flexibility Score: inf
ROOT
ATOM      1  C   UNL     1       6.792   0.651   1.401  1.00  0.00     0.080 C 
ENDROOT
BRANCH   1   2
ATOM      2  C   UNL     1       5.378   1.106   1.506  1.00  0.00     0.130 C 
ATOM      3  C   UNL     1       4.824   2.149   0.601  1.00  0.00     0.087 C 
ATOM      4  O   UNL     1       4.627   0.632   2.344  1.00  0.00    -0.300 OA
ENDBRANCH   1   2
BRANCH   1   5
ATOM      5  C   UNL     1       7.354   0.914   0.018  1.00  0.00     0.043 C 
BRANCH   5   6
ATOM      6  C   UNL     1       7.724  -0.336  -0.669  1.00  0.00    -0.044 A 
ATOM      7  C   UNL     1       7.812  -0.408  -2.064  1.00  0.00     0.008 A 
ATOM      8  C   UNL     1       7.996  -1.465   0.070  1.00  0.00     0.054 A 
ATOM      9  C   UNL     1       8.165  -1.609  -2.653  1.00  0.00     0.051 A 
ATOM     10  C   UNL     1       8.353  -2.677  -0.530  1.00  0.00     0.166 A 
ATOM     11  C   UNL     1       8.437  -2.749  -1.903  1.00  0.00     0.165 A 
ATOM     12  O   UNL     1       8.665  -3.920  -0.024  1.00  0.00    -0.454 OA
ATOM     13  O   UNL     1       8.805  -4.049  -2.214  1.00  0.00    -0.454 OA
ATOM     14  C   UNL     1       9.048  -4.801  -1.049  1.00  0.00     0.468 C 
ENDBRANCH   5   6
ENDBRANCH   1   5
TORSDOF 3
ENDMDL
