@<TRIPOS>MOLECULE
/home/cewinharhar/GITHUB/reincatalyze/data/processed/docking_pred/2023-May-25-1902_sub9_nm5_bs15_s42_ex16_mel10_mts10000_k50_ec01_g099_lra3e-4_lrc3e-3/e3e0f9713a2c6d1770d60d03407d62bfa70f046f_ligand_9.pdbqt
 14 15 0 0 0
SMALL
GASTEIGER

@<TRIPOS>ATOM
      1  C          6.7920    0.6510    1.4010 C.3     1  UNL1        0.0800
      2  C          5.3780    1.1060    1.5060 C.2     1  UNL1        0.1300
      3  C          4.8240    2.1490    0.6010 C.3     1  UNL1        0.0870
      4  O          4.6270    0.6320    2.3440 O.2     1  UNL1       -0.3000
      5  C          7.3540    0.9140    0.0180 C.3     1  UNL1        0.0430
      6  C          7.7240   -0.3360   -0.6690 C.2     1  UNL1       -0.0440
      7  C          7.8120   -0.4080   -2.0640 C.2     1  UNL1        0.0080
      8  C          7.9960   -1.4650    0.0700 C.2     1  UNL1        0.0540
      9  C          8.1650   -1.6090   -2.6530 C.2     1  UNL1        0.0510
     10  C          8.3530   -2.6770   -0.5300 C.2     1  UNL1        0.1660
     11  C          8.4370   -2.7490   -1.9030 C.2     1  UNL1        0.1650
     12  O          8.6650   -3.9200   -0.0240 O.2     1  UNL1       -0.4540
     13  O          8.8050   -4.0490   -2.2140 O.2     1  UNL1       -0.4540
     14  C          9.0480   -4.8010   -1.0490 C.3     1  UNL1        0.4680
@<TRIPOS>BOND
     1     9     7    1
     2     9    11    2
     3    13    11    1
     4    13    14    1
     5     7     6    2
     6    11    10    1
     7    14    12    1
     8     6     5    1
     9     6     8    1
    10    10    12    1
    11    10     8    2
    12     5     1    1
    13     3     2    1
    14     1     2    1
    15     2     4    2
