@<TRIPOS>MOLECULE
/home/cewinharhar/GITHUB/reincatalyze/data/processed/docking_pred/2023-May-25-1902_sub9_nm5_bs15_s42_ex16_mel10_mts10000_k50_ec01_g099_lra3e-4_lrc3e-3/e3e22a08cc3fa656d2264310e8071e645bf38a06_ligand_9.pdbqt
 14 15 0 0 0
SMALL
GASTEIGER

@<TRIPOS>ATOM
      1  C          6.4210    1.1990    0.9320 C.3     1  UNL1        0.0800
      2  C          5.6820    0.3630    1.9190 C.2     1  UNL1        0.1300
      3  C          6.2750   -0.8730    2.4950 C.3     1  UNL1        0.0870
      4  O          4.5590    0.6710    2.2840 O.2     1  UNL1       -0.3000
      5  C          5.9220    0.9570   -0.4780 C.3     1  UNL1        0.0430
      6  C          6.8520    0.1140   -1.2500 C.2     1  UNL1       -0.0440
      7  C          7.5360    0.6090   -2.3670 C.2     1  UNL1        0.0080
      8  C          7.0620   -1.1930   -0.8720 C.2     1  UNL1        0.0540
      9  C          8.3970   -0.2280   -3.0520 C.2     1  UNL1        0.0510
     10  C          7.9340   -2.0350   -1.5680 C.2     1  UNL1        0.1660
     11  C          8.6070   -1.5490   -2.6670 C.2     1  UNL1        0.1650
     12  O          8.3080   -3.3510   -1.3950 O.2     1  UNL1       -0.4540
     13  O          9.3880   -2.5870   -3.1500 O.2     1  UNL1       -0.4540
     14  C          9.2980   -3.7200   -2.3200 C.3     1  UNL1        0.4680
@<TRIPOS>BOND
     1    13    11    1
     2    13    14    1
     3     9    11    2
     4     9     7    1
     5    11    10    1
     6     7     6    2
     7    14    12    1
     8    10    12    1
     9    10     8    2
    10     6     8    1
    11     6     5    1
    12     5     1    1
    13     1     2    1
    14     2     4    2
    15     2     3    1
