@<TRIPOS>MOLECULE
/home/cewinharhar/GITHUB/reincatalyze/data/processed/docking_pred/2023-May-25-1902_sub9_nm5_bs15_s42_ex16_mel10_mts10000_k50_ec01_g099_lra3e-4_lrc3e-3/e4036567ae6c7c824a0e93db279f74886267d276_ligand_9.pdbqt
 14 15 0 0 0
SMALL
GASTEIGER

@<TRIPOS>ATOM
      1  C          5.5430    0.0140    1.9280 C.3     1  UNL1        0.0800
      2  C          4.6560    1.1750    1.6370 C.2     1  UNL1        0.1300
      3  C          4.9510    2.1240    0.5310 C.3     1  UNL1        0.0870
      4  O          3.6550    1.3810    2.3040 O.2     1  UNL1       -0.3000
      5  C          6.9590    0.2700    1.4540 C.3     1  UNL1        0.0430
      6  C          7.3720   -0.6960    0.4200 C.2     1  UNL1       -0.0440
      7  C          7.2800   -0.3950   -0.9440 C.2     1  UNL1        0.0080
      8  C          7.8640   -1.9260    0.7930 C.2     1  UNL1        0.0540
      9  C          7.6840   -1.3400   -1.8690 C.2     1  UNL1        0.0510
     10  C          8.2720   -2.8780   -0.1460 C.2     1  UNL1        0.1660
     11  C          8.1800   -2.5830   -1.4880 C.2     1  UNL1        0.1650
     12  O          8.7860   -4.1520   -0.0290 O.2     1  UNL1       -0.4540
     13  O          8.6460   -3.6930   -2.1750 O.2     1  UNL1       -0.4540
     14  C          9.1250   -4.6760   -1.2880 C.3     1  UNL1        0.4680
@<TRIPOS>BOND
     1    13    11    1
     2    13    14    1
     3     9    11    2
     4     9     7    1
     5    11    10    1
     6    14    12    1
     7     7     6    2
     8    10    12    1
     9    10     8    2
    10     6     8    1
    11     6     5    1
    12     3     2    1
    13     5     1    1
    14     2     1    1
    15     2     4    2
