MODEL 1
REMARK VINA RESULT:      -7.7      0.000      0.000
REMARK SMILES CC(=O)CCc1ccc2c(c1)OCO2
REMARK SMILES IDX 4 1 2 2 1 3 3 4 5 5 6 6 7 7 11 8 8 9 10 10 9 11 12 12 14 13
REMARK SMILES IDX 13 14
REMARK H PARENT
REMARK Flexibility Score: inf
ROOT
ATOM      1  C   UNL     1       5.544   1.908   1.265  1.00  0.00     0.080 C 
ENDROOT
BRANCH   1   2
ATOM      2  C   UNL     1       5.100   0.698   2.012  1.00  0.00     0.130 C 
ATOM      3  C   UNL     1       5.991  -0.480   2.191  1.00  0.00     0.087 C 
ATOM      4  O   UNL     1       3.984   0.639   2.502  1.00  0.00    -0.300 OA
ENDBRANCH   1   2
BRANCH   1   5
ATOM      5  C   UNL     1       5.409   1.711  -0.231  1.00  0.00     0.043 C 
BRANCH   5   6
ATOM      6  C   UNL     1       6.576   1.012  -0.798  1.00  0.00    -0.044 A 
ATOM      7  C   UNL     1       7.883   1.450  -0.553  1.00  0.00     0.008 A 
ATOM      8  C   UNL     1       6.388  -0.100  -1.587  1.00  0.00     0.054 A 
ATOM      9  C   UNL     1       8.939   0.753  -1.111  1.00  0.00     0.051 A 
ATOM     10  C   UNL     1       7.460  -0.801  -2.149  1.00  0.00     0.166 A 
ATOM     11  C   UNL     1       8.746  -0.371  -1.909  1.00  0.00     0.165 A 
ATOM     12  O   UNL     1       7.533  -1.917  -2.955  1.00  0.00    -0.454 OA
ATOM     13  O   UNL     1       9.591  -1.241  -2.579  1.00  0.00    -0.454 OA
ATOM     14  C   UNL     1       8.869  -2.289  -3.181  1.00  0.00     0.468 C 
ENDBRANCH   5   6
ENDBRANCH   1   5
TORSDOF 3
ENDMDL
MODEL 2
REMARK VINA RESULT:      -7.4      1.902      2.375
REMARK SMILES CC(=O)CCc1ccc2c(c1)OCO2
REMARK SMILES IDX 4 1 2 2 1 3 3 4 5 5 6 6 7 7 11 8 8 9 10 10 9 11 12 12 14 13
REMARK SMILES IDX 13 14
REMARK H PARENT
REMARK Flexibility Score: inf
ROOT
ATOM      1  C   UNL     1       5.747   1.266  -0.283  1.00  0.00     0.080 C 
ENDROOT
BRANCH   1   2
ATOM      2  C   UNL     1       5.210   1.199   1.104  1.00  0.00     0.130 C 
ATOM      3  C   UNL     1       5.364  -0.019   1.943  1.00  0.00     0.087 C 
ATOM      4  O   UNL     1       4.624   2.150   1.596  1.00  0.00    -0.300 OA
ENDBRANCH   1   2
BRANCH   1   5
ATOM      5  C   UNL     1       7.251   1.077  -0.302  1.00  0.00     0.043 C 
BRANCH   5   6
ATOM      6  C   UNL     1       7.633  -0.205  -0.919  1.00  0.00    -0.044 A 
ATOM      7  C   UNL     1       7.671  -0.368  -2.308  1.00  0.00     0.008 A 
ATOM      8  C   UNL     1       7.964  -1.275  -0.119  1.00  0.00     0.054 A 
ATOM      9  C   UNL     1       8.039  -1.594  -2.831  1.00  0.00     0.051 A 
ATOM     10  C   UNL     1       8.336  -2.513  -0.652  1.00  0.00     0.166 A 
ATOM     11  C   UNL     1       8.373  -2.674  -2.019  1.00  0.00     0.165 A 
ATOM     12  O   UNL     1       8.703  -3.712  -0.078  1.00  0.00    -0.454 OA
ATOM     13  O   UNL     1       8.767  -3.981  -2.259  1.00  0.00    -0.454 OA
ATOM     14  C   UNL     1       9.075  -4.647  -1.057  1.00  0.00     0.468 C 
ENDBRANCH   5   6
ENDBRANCH   1   5
TORSDOF 3
ENDMDL
MODEL 3
REMARK VINA RESULT:      -7.2      2.087      2.616
REMARK SMILES CC(=O)CCc1ccc2c(c1)OCO2
REMARK SMILES IDX 4 1 2 2 1 3 3 4 5 5 6 6 7 7 11 8 8 9 10 10 9 11 12 12 14 13
REMARK SMILES IDX 13 14
REMARK H PARENT
REMARK Flexibility Score: inf
ROOT
ATOM      1  C   UNL     1       5.543   0.014   1.928  1.00  0.00     0.080 C 
ENDROOT
BRANCH   1   2
ATOM      2  C   UNL     1       4.656   1.175   1.637  1.00  0.00     0.130 C 
ATOM      3  C   UNL     1       4.951   2.124   0.531  1.00  0.00     0.087 C 
ATOM      4  O   UNL     1       3.655   1.381   2.304  1.00  0.00    -0.300 OA
ENDBRANCH   1   2
BRANCH   1   5
ATOM      5  C   UNL     1       6.959   0.270   1.454  1.00  0.00     0.043 C 
BRANCH   5   6
ATOM      6  C   UNL     1       7.372  -0.696   0.420  1.00  0.00    -0.044 A 
ATOM      7  C   UNL     1       7.280  -0.395  -0.944  1.00  0.00     0.008 A 
ATOM      8  C   UNL     1       7.864  -1.926   0.793  1.00  0.00     0.054 A 
ATOM      9  C   UNL     1       7.684  -1.340  -1.869  1.00  0.00     0.051 A 
ATOM     10  C   UNL     1       8.272  -2.878  -0.146  1.00  0.00     0.166 A 
ATOM     11  C   UNL     1       8.180  -2.583  -1.488  1.00  0.00     0.165 A 
ATOM     12  O   UNL     1       8.786  -4.152  -0.029  1.00  0.00    -0.454 OA
ATOM     13  O   UNL     1       8.646  -3.693  -2.175  1.00  0.00    -0.454 OA
ATOM     14  C   UNL     1       9.125  -4.676  -1.288  1.00  0.00     0.468 C 
ENDBRANCH   5   6
ENDBRANCH   1   5
TORSDOF 3
ENDMDL
MODEL 4
REMARK VINA RESULT:      -7.1      1.256      1.467
REMARK SMILES CC(=O)CCc1ccc2c(c1)OCO2
REMARK SMILES IDX 4 1 2 2 1 3 3 4 5 5 6 6 7 7 11 8 8 9 10 10 9 11 12 12 14 13
REMARK SMILES IDX 13 14
REMARK H PARENT
REMARK Flexibility Score: inf
ROOT
ATOM      1  C   UNL     1       6.421   1.199   0.932  1.00  0.00     0.080 C 
ENDROOT
BRANCH   1   2
ATOM      2  C   UNL     1       5.682   0.363   1.919  1.00  0.00     0.130 C 
ATOM      3  C   UNL     1       6.275  -0.873   2.495  1.00  0.00     0.087 C 
ATOM      4  O   UNL     1       4.559   0.671   2.284  1.00  0.00    -0.300 OA
ENDBRANCH   1   2
BRANCH   1   5
ATOM      5  C   UNL     1       5.922   0.957  -0.478  1.00  0.00     0.043 C 
BRANCH   5   6
ATOM      6  C   UNL     1       6.852   0.114  -1.250  1.00  0.00    -0.044 A 
ATOM      7  C   UNL     1       7.536   0.609  -2.367  1.00  0.00     0.008 A 
ATOM      8  C   UNL     1       7.062  -1.193  -0.872  1.00  0.00     0.054 A 
ATOM      9  C   UNL     1       8.397  -0.228  -3.052  1.00  0.00     0.051 A 
ATOM     10  C   UNL     1       7.934  -2.035  -1.568  1.00  0.00     0.166 A 
ATOM     11  C   UNL     1       8.607  -1.549  -2.667  1.00  0.00     0.165 A 
ATOM     12  O   UNL     1       8.308  -3.351  -1.395  1.00  0.00    -0.454 OA
ATOM     13  O   UNL     1       9.388  -2.587  -3.150  1.00  0.00    -0.454 OA
ATOM     14  C   UNL     1       9.298  -3.720  -2.320  1.00  0.00     0.468 C 
ENDBRANCH   5   6
ENDBRANCH   1   5
TORSDOF 3
ENDMDL
MODEL 5
REMARK VINA RESULT:      -6.8      1.266      1.752
REMARK SMILES CC(=O)CCc1ccc2c(c1)OCO2
REMARK SMILES IDX 4 1 2 2 1 3 3 4 5 5 6 6 7 7 11 8 8 9 10 10 9 11 12 12 14 13
REMARK SMILES IDX 13 14
REMARK H PARENT
REMARK Flexibility Score: inf
ROOT
ATOM      1  C   UNL     1       5.323  -0.066   1.977  1.00  0.00     0.080 C 
ENDROOT
BRANCH   1   2
ATOM      2  C   UNL     1       4.441   1.120   1.789  1.00  0.00     0.130 C 
ATOM      3  C   UNL     1       4.726   2.150   0.754  1.00  0.00     0.087 C 
ATOM      4  O   UNL     1       3.452   1.282   2.486  1.00  0.00    -0.300 OA
ENDBRANCH   1   2
BRANCH   1   5
ATOM      5  C   UNL     1       6.787   0.321   1.909  1.00  0.00     0.043 C 
BRANCH   5   6
ATOM      6  C   UNL     1       7.388  -0.038   0.612  1.00  0.00    -0.044 A 
ATOM      7  C   UNL     1       7.875   0.937  -0.266  1.00  0.00     0.008 A 
ATOM      8  C   UNL     1       7.479  -1.362   0.246  1.00  0.00     0.054 A 
ATOM      9  C   UNL     1       8.429   0.540  -1.469  1.00  0.00     0.051 A 
ATOM     10  C   UNL     1       8.041  -1.758  -0.972  1.00  0.00     0.166 A 
ATOM     11  C   UNL     1       8.519  -0.799  -1.836  1.00  0.00     0.165 A 
ATOM     12  O   UNL     1       8.243  -2.990  -1.557  1.00  0.00    -0.454 OA
ATOM     13  O   UNL     1       9.011  -1.469  -2.945  1.00  0.00    -0.454 OA
ATOM     14  C   UNL     1       8.938  -2.864  -2.770  1.00  0.00     0.468 C 
ENDBRANCH   5   6
ENDBRANCH   1   5
TORSDOF 3
ENDMDL
