@<TRIPOS>MOLECULE
/home/cewinharhar/GITHUB/reincatalyze/data/processed/docking_pred/2023-May-25-1902_sub9_nm5_bs15_s42_ex16_mel10_mts10000_k50_ec01_g099_lra3e-4_lrc3e-3/e4036567ae6c7c824a0e93db279f74886267d276_ligand_9.pdbqt
 14 15 0 0 0
SMALL
GASTEIGER

@<TRIPOS>ATOM
      1  C          5.7470    1.2660   -0.2830 C.3     1  UNL1        0.0800
      2  C          5.2100    1.1990    1.1040 C.2     1  UNL1        0.1300
      3  C          5.3640   -0.0190    1.9430 C.3     1  UNL1        0.0870
      4  O          4.6240    2.1500    1.5960 O.2     1  UNL1       -0.3000
      5  C          7.2510    1.0770   -0.3020 C.3     1  UNL1        0.0430
      6  C          7.6330   -0.2050   -0.9190 C.2     1  UNL1       -0.0440
      7  C          7.6710   -0.3680   -2.3080 C.2     1  UNL1        0.0080
      8  C          7.9640   -1.2750   -0.1190 C.2     1  UNL1        0.0540
      9  C          8.0390   -1.5940   -2.8310 C.2     1  UNL1        0.0510
     10  C          8.3360   -2.5130   -0.6520 C.2     1  UNL1        0.1660
     11  C          8.3730   -2.6740   -2.0190 C.2     1  UNL1        0.1650
     12  O          8.7030   -3.7120   -0.0780 O.2     1  UNL1       -0.4540
     13  O          8.7670   -3.9810   -2.2590 O.2     1  UNL1       -0.4540
     14  C          9.0750   -4.6470   -1.0570 C.3     1  UNL1        0.4680
@<TRIPOS>BOND
     1     9     7    1
     2     9    11    2
     3     7     6    2
     4    13    11    1
     5    13    14    1
     6    11    10    1
     7    14    12    1
     8     6     5    1
     9     6     8    1
    10    10     8    2
    11    10    12    1
    12     5     1    1
    13     1     2    1
    14     2     4    2
    15     2     3    1
