@<TRIPOS>MOLECULE
/home/cewinharhar/GITHUB/reincatalyze/data/processed/docking_pred/2023-May-25-1902_sub9_nm5_bs15_s42_ex16_mel10_mts10000_k50_ec01_g099_lra3e-4_lrc3e-3/e405af2e1f0c2610b1c3358f53e5900dd32e88c5_ligand_9.pdbqt
 14 15 0 0 0
SMALL
GASTEIGER

@<TRIPOS>ATOM
      1  C          5.5610    1.0380    0.2990 C.3     1  UNL1        0.0800
      2  C          5.3190    0.2530    1.5410 C.2     1  UNL1        0.1300
      3  C          5.9120   -1.0960    1.7400 C.3     1  UNL1        0.0870
      4  O          4.6210    0.6990    2.4380 O.2     1  UNL1       -0.3000
      5  C          6.5640    2.1500    0.5370 C.3     1  UNL1        0.0430
      6  C          7.9450    1.6390    0.5820 C.2     1  UNL1       -0.0440
      7  C          8.5950    1.1790   -0.5690 C.2     1  UNL1        0.0080
      8  C          8.6230    1.6110    1.7800 C.2     1  UNL1        0.0540
      9  C          9.8930    0.7110   -0.4650 C.2     1  UNL1        0.0510
     10  C          9.9350    1.1380    1.8790 C.2     1  UNL1        0.1660
     11  C         10.5750    0.6840    0.7470 C.2     1  UNL1        0.1650
     12  O         10.8100    1.0090    2.9370 O.2     1  UNL1       -0.4540
     13  O         11.8430    0.2830    1.1370 O.2     1  UNL1       -0.4540
     14  C         12.0660    0.5550    2.5000 C.3     1  UNL1        0.4680
@<TRIPOS>BOND
     1     7     9    1
     2     7     6    2
     3     9    11    2
     4     1     5    1
     5     1     2    1
     6     5     6    1
     7     6     8    1
     8    11    13    1
     9    11    10    1
    10    13    14    1
    11     2     3    1
    12     2     4    2
    13     8    10    2
    14    10    12    1
    15    14    12    1
