MODEL 1
REMARK VINA RESULT:      -7.1      0.000      0.000
REMARK SMILES CC(=O)CCc1ccc2c(c1)OCO2
REMARK SMILES IDX 4 1 2 2 1 3 3 4 5 5 6 6 7 7 11 8 8 9 10 10 9 11 12 12 14 13
REMARK SMILES IDX 13 14
REMARK H PARENT
REMARK Flexibility Score: inf
ROOT
ATOM      1  C   UNL     1       5.481   1.914   1.272  1.00  0.00     0.080 C 
ENDROOT
BRANCH   1   2
ATOM      2  C   UNL     1       4.990   0.705   1.991  1.00  0.00     0.130 C 
ATOM      3  C   UNL     1       5.803  -0.539   2.072  1.00  0.00     0.087 C 
ATOM      4  O   UNL     1       3.899   0.700   2.537  1.00  0.00    -0.300 OA
ENDBRANCH   1   2
BRANCH   1   5
ATOM      5  C   UNL     1       5.378   1.740  -0.230  1.00  0.00     0.043 C 
BRANCH   5   6
ATOM      6  C   UNL     1       6.553   1.042  -0.781  1.00  0.00    -0.044 A 
ATOM      7  C   UNL     1       7.857   1.462  -0.494  1.00  0.00     0.008 A 
ATOM      8  C   UNL     1       6.376  -0.053  -1.597  1.00  0.00     0.054 A 
ATOM      9  C   UNL     1       8.922   0.766  -1.039  1.00  0.00     0.051 A 
ATOM     10  C   UNL     1       7.455  -0.752  -2.145  1.00  0.00     0.166 A 
ATOM     11  C   UNL     1       8.739  -0.339  -1.864  1.00  0.00     0.165 A 
ATOM     12  O   UNL     1       7.540  -1.852  -2.972  1.00  0.00    -0.454 OA
ATOM     13  O   UNL     1       9.593  -1.204  -2.530  1.00  0.00    -0.454 OA
ATOM     14  C   UNL     1       8.877  -2.232  -3.171  1.00  0.00     0.468 C 
ENDBRANCH   5   6
ENDBRANCH   1   5
TORSDOF 3
ENDMDL
MODEL 2
REMARK VINA RESULT:      -7.1      2.728      3.984
REMARK SMILES CC(=O)CCc1ccc2c(c1)OCO2
REMARK SMILES IDX 4 1 2 2 1 3 3 4 5 5 6 6 7 7 11 8 8 9 10 10 9 11 12 12 14 13
REMARK SMILES IDX 13 14
REMARK H PARENT
REMARK Flexibility Score: inf
ROOT
ATOM      1  C   UNL     1       9.672   1.318   2.661  1.00  0.00     0.080 C 
ENDROOT
BRANCH   1   2
ATOM      2  C   UNL     1      11.123   0.979   2.682  1.00  0.00     0.130 C 
ATOM      3  C   UNL     1      12.087   1.728   3.531  1.00  0.00     0.087 C 
ATOM      4  O   UNL     1      11.564   0.070   1.998  1.00  0.00    -0.300 OA
ENDBRANCH   1   2
BRANCH   1   5
ATOM      5  C   UNL     1       9.293   2.035   1.381  1.00  0.00     0.043 C 
BRANCH   5   6
ATOM      6  C   UNL     1       8.540   1.159   0.466  1.00  0.00    -0.044 A 
ATOM      7  C   UNL     1       7.147   1.042   0.543  1.00  0.00     0.008 A 
ATOM      8  C   UNL     1       9.212   0.435  -0.493  1.00  0.00     0.054 A 
ATOM      9  C   UNL     1       6.494   0.205  -0.343  1.00  0.00     0.051 A 
ATOM     10  C   UNL     1       8.546  -0.410  -1.386  1.00  0.00     0.166 A 
ATOM     11  C   UNL     1       7.176  -0.526  -1.310  1.00  0.00     0.165 A 
ATOM     12  O   UNL     1       8.981  -1.223  -2.412  1.00  0.00    -0.454 OA
ATOM     13  O   UNL     1       6.794  -1.416  -2.302  1.00  0.00    -0.454 OA
ATOM     14  C   UNL     1       7.896  -1.812  -3.082  1.00  0.00     0.468 C 
ENDBRANCH   5   6
ENDBRANCH   1   5
TORSDOF 3
ENDMDL
MODEL 3
REMARK VINA RESULT:      -7.1      3.414      4.401
REMARK SMILES CC(=O)CCc1ccc2c(c1)OCO2
REMARK SMILES IDX 4 1 2 2 1 3 3 4 5 5 6 6 7 7 11 8 8 9 10 10 9 11 12 12 14 13
REMARK SMILES IDX 13 14
REMARK H PARENT
REMARK Flexibility Score: inf
ROOT
ATOM      1  C   UNL     1       5.727   0.217   1.498  1.00  0.00     0.080 C 
ENDROOT
BRANCH   1   2
ATOM      2  C   UNL     1       5.028   1.421   0.968  1.00  0.00     0.130 C 
ATOM      3  C   UNL     1       5.323   1.963  -0.385  1.00  0.00     0.087 C 
ATOM      4  O   UNL     1       4.187   2.001   1.635  1.00  0.00    -0.300 OA
ENDBRANCH   1   2
BRANCH   1   5
ATOM      5  C   UNL     1       6.982  -0.085   0.703  1.00  0.00     0.043 C 
BRANCH   5   6
ATOM      6  C   UNL     1       8.191   0.422   1.377  1.00  0.00    -0.044 A 
ATOM      7  C   UNL     1       8.149   1.544   2.213  1.00  0.00     0.008 A 
ATOM      8  C   UNL     1       9.396  -0.217   1.189  1.00  0.00     0.054 A 
ATOM      9  C   UNL     1       9.315   1.973   2.819  1.00  0.00     0.051 A 
ATOM     10  C   UNL     1      10.572   0.221   1.804  1.00  0.00     0.166 A 
ATOM     11  C   UNL     1      10.531   1.325   2.626  1.00  0.00     0.165 A 
ATOM     12  O   UNL     1      11.873  -0.235   1.777  1.00  0.00    -0.454 OA
ATOM     13  O   UNL     1      11.821   1.527   3.091  1.00  0.00    -0.454 OA
ATOM     14  C   UNL     1      12.686   0.507   2.650  1.00  0.00     0.468 C 
ENDBRANCH   5   6
ENDBRANCH   1   5
TORSDOF 3
ENDMDL
MODEL 4
REMARK VINA RESULT:      -7.0      2.776      3.707
REMARK SMILES CC(=O)CCc1ccc2c(c1)OCO2
REMARK SMILES IDX 4 1 2 2 1 3 3 4 5 5 6 6 7 7 11 8 8 9 10 10 9 11 12 12 14 13
REMARK SMILES IDX 13 14
REMARK H PARENT
REMARK Flexibility Score: inf
ROOT
ATOM      1  C   UNL     1       5.561   1.038   0.299  1.00  0.00     0.080 C 
ENDROOT
BRANCH   1   2
ATOM      2  C   UNL     1       5.319   0.253   1.541  1.00  0.00     0.130 C 
ATOM      3  C   UNL     1       5.912  -1.096   1.740  1.00  0.00     0.087 C 
ATOM      4  O   UNL     1       4.621   0.699   2.438  1.00  0.00    -0.300 OA
ENDBRANCH   1   2
BRANCH   1   5
ATOM      5  C   UNL     1       6.564   2.150   0.537  1.00  0.00     0.043 C 
BRANCH   5   6
ATOM      6  C   UNL     1       7.945   1.639   0.582  1.00  0.00    -0.044 A 
ATOM      7  C   UNL     1       8.595   1.179  -0.569  1.00  0.00     0.008 A 
ATOM      8  C   UNL     1       8.623   1.611   1.780  1.00  0.00     0.054 A 
ATOM      9  C   UNL     1       9.893   0.711  -0.465  1.00  0.00     0.051 A 
ATOM     10  C   UNL     1       9.935   1.138   1.879  1.00  0.00     0.166 A 
ATOM     11  C   UNL     1      10.575   0.684   0.747  1.00  0.00     0.165 A 
ATOM     12  O   UNL     1      10.810   1.009   2.937  1.00  0.00    -0.454 OA
ATOM     13  O   UNL     1      11.843   0.283   1.137  1.00  0.00    -0.454 OA
ATOM     14  C   UNL     1      12.066   0.555   2.500  1.00  0.00     0.468 C 
ENDBRANCH   5   6
ENDBRANCH   1   5
TORSDOF 3
ENDMDL
MODEL 5
REMARK VINA RESULT:      -6.9      3.162      4.231
REMARK SMILES CC(=O)CCc1ccc2c(c1)OCO2
REMARK SMILES IDX 4 1 2 2 1 3 3 4 5 5 6 6 7 7 11 8 8 9 10 10 9 11 12 12 14 13
REMARK SMILES IDX 13 14
REMARK H PARENT
REMARK Flexibility Score: inf
ROOT
ATOM      1  C   UNL     1       5.756   0.170   1.482  1.00  0.00     0.080 C 
ENDROOT
BRANCH   1   2
ATOM      2  C   UNL     1       4.964   1.377   1.117  1.00  0.00     0.130 C 
ATOM      3  C   UNL     1       5.237   2.143  -0.129  1.00  0.00     0.087 C 
ATOM      4  O   UNL     1       4.061   1.774   1.835  1.00  0.00    -0.300 OA
ENDBRANCH   1   2
BRANCH   1   5
ATOM      5  C   UNL     1       6.716  -0.214   0.373  1.00  0.00     0.043 C 
BRANCH   5   6
ATOM      6  C   UNL     1       8.081   0.275   0.638  1.00  0.00    -0.044 A 
ATOM      7  C   UNL     1       8.997   0.489  -0.399  1.00  0.00     0.008 A 
ATOM      8  C   UNL     1       8.474   0.534   1.931  1.00  0.00     0.054 A 
ATOM      9  C   UNL     1      10.264   0.951  -0.090  1.00  0.00     0.051 A 
ATOM     10  C   UNL     1       9.755   1.001   2.238  1.00  0.00     0.166 A 
ATOM     11  C   UNL     1      10.658   1.211   1.219  1.00  0.00     0.165 A 
ATOM     12  O   UNL     1      10.378   1.327   3.424  1.00  0.00    -0.454 OA
ATOM     13  O   UNL     1      11.827   1.667   1.807  1.00  0.00    -0.454 OA
ATOM     14  C   UNL     1      11.664   1.842   3.194  1.00  0.00     0.468 C 
ENDBRANCH   5   6
ENDBRANCH   1   5
TORSDOF 3
ENDMDL
