@<TRIPOS>MOLECULE
/home/cewinharhar/GITHUB/reincatalyze/data/processed/docking_pred/2023-May-25-1902_sub9_nm5_bs15_s42_ex16_mel10_mts10000_k50_ec01_g099_lra3e-4_lrc3e-3/e405af2e1f0c2610b1c3358f53e5900dd32e88c5_ligand_9.pdbqt
 14 15 0 0 0
SMALL
GASTEIGER

@<TRIPOS>ATOM
      1  C          5.7560    0.1700    1.4820 C.3     1  UNL1        0.0800
      2  C          4.9640    1.3770    1.1170 C.2     1  UNL1        0.1300
      3  C          5.2370    2.1430   -0.1290 C.3     1  UNL1        0.0870
      4  O          4.0610    1.7740    1.8350 O.2     1  UNL1       -0.3000
      5  C          6.7160   -0.2140    0.3730 C.3     1  UNL1        0.0430
      6  C          8.0810    0.2750    0.6380 C.2     1  UNL1       -0.0440
      7  C          8.9970    0.4890   -0.3990 C.2     1  UNL1        0.0080
      8  C          8.4740    0.5340    1.9310 C.2     1  UNL1        0.0540
      9  C         10.2640    0.9510   -0.0900 C.2     1  UNL1        0.0510
     10  C          9.7550    1.0010    2.2380 C.2     1  UNL1        0.1660
     11  C         10.6580    1.2110    1.2190 C.2     1  UNL1        0.1650
     12  O         10.3780    1.3270    3.4240 O.2     1  UNL1       -0.4540
     13  O         11.8270    1.6670    1.8070 O.2     1  UNL1       -0.4540
     14  C         11.6640    1.8420    3.1940 C.3     1  UNL1        0.4680
@<TRIPOS>BOND
     1     7     9    1
     2     7     6    2
     3     3     2    1
     4     9    11    2
     5     5     6    1
     6     5     1    1
     7     6     8    1
     8     2     1    1
     9     2     4    2
    10    11    13    1
    11    11    10    1
    12    13    14    1
    13     8    10    2
    14    10    12    1
    15    14    12    1
