@<TRIPOS>MOLECULE
/home/cewinharhar/GITHUB/reincatalyze/data/processed/docking_pred/2023-May-25-1902_sub9_nm5_bs15_s42_ex16_mel10_mts10000_k50_ec01_g099_lra3e-4_lrc3e-3/e405af2e1f0c2610b1c3358f53e5900dd32e88c5_ligand_9.pdbqt
 14 15 0 0 0
SMALL
GASTEIGER

@<TRIPOS>ATOM
      1  C          5.7270    0.2170    1.4980 C.3     1  UNL1        0.0800
      2  C          5.0280    1.4210    0.9680 C.2     1  UNL1        0.1300
      3  C          5.3230    1.9630   -0.3850 C.3     1  UNL1        0.0870
      4  O          4.1870    2.0010    1.6350 O.2     1  UNL1       -0.3000
      5  C          6.9820   -0.0850    0.7030 C.3     1  UNL1        0.0430
      6  C          8.1910    0.4220    1.3770 C.2     1  UNL1       -0.0440
      7  C          8.1490    1.5440    2.2130 C.2     1  UNL1        0.0080
      8  C          9.3960   -0.2170    1.1890 C.2     1  UNL1        0.0540
      9  C          9.3150    1.9730    2.8190 C.2     1  UNL1        0.0510
     10  C         10.5720    0.2210    1.8040 C.2     1  UNL1        0.1660
     11  C         10.5310    1.3250    2.6260 C.2     1  UNL1        0.1650
     12  O         11.8730   -0.2350    1.7770 O.2     1  UNL1       -0.4540
     13  O         11.8210    1.5270    3.0910 O.2     1  UNL1       -0.4540
     14  C         12.6860    0.5070    2.6500 C.3     1  UNL1        0.4680
@<TRIPOS>BOND
     1     3     2    1
     2     5     6    1
     3     5     1    1
     4     2     1    1
     5     2     4    2
     6     8     6    2
     7     8    10    1
     8     6     7    1
     9    12    10    1
    10    12    14    1
    11    10    11    2
    12     7     9    2
    13    11     9    1
    14    11    13    1
    15    14    13    1
