@<TRIPOS>MOLECULE
/home/cewinharhar/GITHUB/reincatalyze/data/processed/docking_pred/2023-May-25-1902_sub9_nm5_bs15_s42_ex16_mel10_mts10000_k50_ec01_g099_lra3e-4_lrc3e-3/e405af2e1f0c2610b1c3358f53e5900dd32e88c5_ligand_9.pdbqt
 14 15 0 0 0
SMALL
GASTEIGER

@<TRIPOS>ATOM
      1  C          5.4810    1.9140    1.2720 C.3     1  UNL1        0.0800
      2  C          4.9900    0.7050    1.9910 C.2     1  UNL1        0.1300
      3  C          5.8030   -0.5390    2.0720 C.3     1  UNL1        0.0870
      4  O          3.8990    0.7000    2.5370 O.2     1  UNL1       -0.3000
      5  C          5.3780    1.7400   -0.2300 C.3     1  UNL1        0.0430
      6  C          6.5530    1.0420   -0.7810 C.2     1  UNL1       -0.0440
      7  C          7.8570    1.4620   -0.4940 C.2     1  UNL1        0.0080
      8  C          6.3760   -0.0530   -1.5970 C.2     1  UNL1        0.0540
      9  C          8.9220    0.7660   -1.0390 C.2     1  UNL1        0.0510
     10  C          7.4550   -0.7520   -2.1450 C.2     1  UNL1        0.1660
     11  C          8.7390   -0.3390   -1.8640 C.2     1  UNL1        0.1650
     12  O          7.5400   -1.8520   -2.9720 O.2     1  UNL1       -0.4540
     13  O          9.5930   -1.2040   -2.5300 O.2     1  UNL1       -0.4540
     14  C          8.8770   -2.2320   -3.1710 C.3     1  UNL1        0.4680
@<TRIPOS>BOND
     1    14    12    1
     2    14    13    1
     3    12    10    1
     4    13    11    1
     5    10    11    2
     6    10     8    1
     7    11     9    1
     8     8     6    2
     9     9     7    2
    10     6     7    1
    11     6     5    1
    12     5     1    1
    13     1     2    1
    14     2     3    1
    15     2     4    2
