@<TRIPOS>MOLECULE
/home/cewinharhar/GITHUB/reincatalyze/data/processed/docking_pred/2023-May-25-1902_sub9_nm5_bs15_s42_ex16_mel10_mts10000_k50_ec01_g099_lra3e-4_lrc3e-3/e69dee760b6a4f483691253cffcee702e9155e2b_ligand_9.pdbqt
 14 15 0 0 0
SMALL
GASTEIGER

@<TRIPOS>ATOM
      1  C          5.5040    1.9070    1.2670 C.3     1  UNL1        0.0800
      2  C          5.0310    0.6980    1.9970 C.2     1  UNL1        0.1300
      3  C          5.8700   -0.5240    2.1090 C.3     1  UNL1        0.0870
      4  O          3.9320    0.6770    2.5280 O.2     1  UNL1       -0.3000
      5  C          5.3840    1.7260   -0.2330 C.3     1  UNL1        0.0430
      6  C          6.5550    1.0280   -0.7940 C.2     1  UNL1       -0.0440
      7  C          7.8600    1.4670   -0.5420 C.2     1  UNL1        0.0080
      8  C          6.3730   -0.0840   -1.5840 C.2     1  UNL1        0.0540
      9  C          8.9200    0.7710   -1.0940 C.2     1  UNL1        0.0510
     10  C          7.4480   -0.7840   -2.1400 C.2     1  UNL1        0.1660
     11  C          8.7320   -0.3520   -1.8930 C.2     1  UNL1        0.1650
     12  O          7.5270   -1.8990   -2.9460 O.2     1  UNL1       -0.4540
     13  O          9.5820   -1.2220   -2.5590 O.2     1  UNL1       -0.4540
     14  C          8.8640   -2.2700   -3.1650 C.3     1  UNL1        0.4680
@<TRIPOS>BOND
     1    14    12    1
     2    14    13    1
     3    12    10    1
     4    13    11    1
     5    10    11    2
     6    10     8    1
     7    11     9    1
     8     8     6    2
     9     9     7    2
    10     6     7    1
    11     6     5    1
    12     5     1    1
    13     1     2    1
    14     2     3    1
    15     2     4    2
