@<TRIPOS>MOLECULE
/home/cewinharhar/GITHUB/reincatalyze/data/processed/docking_pred/2023-May-25-1902_sub9_nm5_bs15_s42_ex16_mel10_mts10000_k50_ec01_g099_lra3e-4_lrc3e-3/e69dee760b6a4f483691253cffcee702e9155e2b_ligand_9.pdbqt
 14 15 0 0 0
SMALL
GASTEIGER

@<TRIPOS>ATOM
      1  C          6.5810    0.8970    1.5960 C.3     1  UNL1        0.0800
      2  C          5.1370    1.2590    1.5250 C.2     1  UNL1        0.1300
      3  C          4.6070    2.1500    0.4590 C.3     1  UNL1        0.0870
      4  O          4.3430    0.8320    2.3480 O.2     1  UNL1       -0.3000
      5  C          7.3110    1.2980    0.3290 C.3     1  UNL1        0.0430
      6  C          7.5940    0.1340   -0.5300 C.2     1  UNL1       -0.0440
      7  C          7.5430    0.2230   -1.9260 C.2     1  UNL1        0.0080
      8  C          7.9180   -1.0750    0.0440 C.2     1  UNL1        0.0540
      9  C          7.8190   -0.9030   -2.6800 C.2     1  UNL1        0.0510
     10  C          8.1970   -2.2090   -0.7230 C.2     1  UNL1        0.1660
     11  C          8.1470   -2.1230   -2.0970 C.2     1  UNL1        0.1650
     12  O          8.5390   -3.5050   -0.3960 O.2     1  UNL1       -0.4540
     13  O          8.4630   -3.3790   -2.5890 O.2     1  UNL1       -0.4540
     14  C          8.8070   -4.2620   -1.5480 C.3     1  UNL1        0.4680
@<TRIPOS>BOND
     1     9    11    2
     2     9     7    1
     3    13    11    1
     4    13    14    1
     5    11    10    1
     6     7     6    2
     7    14    12    1
     8    10    12    1
     9    10     8    2
    10     6     8    1
    11     6     5    1
    12     5     1    1
    13     3     2    1
    14     2     1    1
    15     2     4    2
