@<TRIPOS>MOLECULE
/home/cewinharhar/GITHUB/reincatalyze/data/processed/docking_pred/2023-May-25-1902_sub9_nm5_bs15_s42_ex16_mel10_mts10000_k50_ec01_g099_lra3e-4_lrc3e-3/e72dfb9ce69b60d9dd63e32278a4acfac8a78322_ligand_9.pdbqt
 14 15 0 0 0
SMALL
GASTEIGER

@<TRIPOS>ATOM
      1  C          5.5630    1.8850    1.3020 C.3     1  UNL1        0.0800
      2  C          5.1160    0.6610    2.0240 C.2     1  UNL1        0.1300
      3  C          6.0110   -0.5140    2.1960 C.3     1  UNL1        0.0870
      4  O          3.9940    0.5880    2.4970 O.2     1  UNL1       -0.3000
      5  C          5.4280    1.7200   -0.1990 C.3     1  UNL1        0.0430
      6  C          6.5860    1.0150   -0.7770 C.2     1  UNL1       -0.0440
      7  C          7.8980    1.4450   -0.5440 C.2     1  UNL1        0.0080
      8  C          6.3850   -0.0960   -1.5650 C.2     1  UNL1        0.0540
      9  C          8.9450    0.7430   -1.1120 C.2     1  UNL1        0.0510
     10  C          7.4470   -0.8020   -2.1370 C.2     1  UNL1        0.1660
     11  C          8.7370   -0.3790   -1.9090 C.2     1  UNL1        0.1650
     12  O          7.5070   -1.9180   -2.9450 O.2     1  UNL1       -0.4540
     13  O          9.5720   -1.2540   -2.5880 O.2     1  UNL1       -0.4540
     14  C          8.8380   -2.2970   -3.1830 C.3     1  UNL1        0.4680
@<TRIPOS>BOND
     1    14    12    1
     2    14    13    1
     3    12    10    1
     4    13    11    1
     5    10    11    2
     6    10     8    1
     7    11     9    1
     8     8     6    2
     9     9     7    2
    10     6     7    1
    11     6     5    1
    12     5     1    1
    13     1     2    1
    14     2     3    1
    15     2     4    2
