MODEL 1
REMARK VINA RESULT:      -7.6      0.000      0.000
REMARK SMILES CC(=O)CCc1ccc2c(c1)OCO2
REMARK SMILES IDX 4 1 2 2 1 3 3 4 5 5 6 6 7 7 11 8 8 9 10 10 9 11 12 12 14 13
REMARK SMILES IDX 13 14
REMARK H PARENT
REMARK Flexibility Score: inf
ROOT
ATOM      1  C   UNL     1       5.563   1.885   1.302  1.00  0.00     0.080 C 
ENDROOT
BRANCH   1   2
ATOM      2  C   UNL     1       5.116   0.661   2.024  1.00  0.00     0.130 C 
ATOM      3  C   UNL     1       6.011  -0.514   2.196  1.00  0.00     0.087 C 
ATOM      4  O   UNL     1       3.994   0.588   2.497  1.00  0.00    -0.300 OA
ENDBRANCH   1   2
BRANCH   1   5
ATOM      5  C   UNL     1       5.428   1.720  -0.199  1.00  0.00     0.043 C 
BRANCH   5   6
ATOM      6  C   UNL     1       6.586   1.015  -0.777  1.00  0.00    -0.044 A 
ATOM      7  C   UNL     1       7.898   1.445  -0.544  1.00  0.00     0.008 A 
ATOM      8  C   UNL     1       6.385  -0.096  -1.565  1.00  0.00     0.054 A 
ATOM      9  C   UNL     1       8.945   0.743  -1.112  1.00  0.00     0.051 A 
ATOM     10  C   UNL     1       7.447  -0.802  -2.137  1.00  0.00     0.166 A 
ATOM     11  C   UNL     1       8.737  -0.379  -1.909  1.00  0.00     0.165 A 
ATOM     12  O   UNL     1       7.507  -1.918  -2.945  1.00  0.00    -0.454 OA
ATOM     13  O   UNL     1       9.572  -1.254  -2.588  1.00  0.00    -0.454 OA
ATOM     14  C   UNL     1       8.838  -2.297  -3.183  1.00  0.00     0.468 C 
ENDBRANCH   5   6
ENDBRANCH   1   5
TORSDOF 3
ENDMDL
MODEL 2
REMARK VINA RESULT:      -7.5      1.922      2.376
REMARK SMILES CC(=O)CCc1ccc2c(c1)OCO2
REMARK SMILES IDX 4 1 2 2 1 3 3 4 5 5 6 6 7 7 11 8 8 9 10 10 9 11 12 12 14 13
REMARK SMILES IDX 13 14
REMARK H PARENT
REMARK Flexibility Score: inf
ROOT
ATOM      1  C   UNL     1       5.727   1.338  -0.295  1.00  0.00     0.080 C 
ENDROOT
BRANCH   1   2
ATOM      2  C   UNL     1       5.108   1.256   1.057  1.00  0.00     0.130 C 
ATOM      3  C   UNL     1       5.338   0.091   1.952  1.00  0.00     0.087 C 
ATOM      4  O   UNL     1       4.387   2.150   1.472  1.00  0.00    -0.300 OA
ENDBRANCH   1   2
BRANCH   1   5
ATOM      5  C   UNL     1       7.222   1.098  -0.231  1.00  0.00     0.043 C 
BRANCH   5   6
ATOM      6  C   UNL     1       7.596  -0.189  -0.846  1.00  0.00    -0.044 A 
ATOM      7  C   UNL     1       7.667  -0.344  -2.235  1.00  0.00     0.008 A 
ATOM      8  C   UNL     1       7.886  -1.269  -0.044  1.00  0.00     0.054 A 
ATOM      9  C   UNL     1       8.024  -1.575  -2.755  1.00  0.00     0.051 A 
ATOM     10  C   UNL     1       8.247  -2.511  -0.574  1.00  0.00     0.166 A 
ATOM     11  C   UNL     1       8.316  -2.665  -1.941  1.00  0.00     0.165 A 
ATOM     12  O   UNL     1       8.576  -3.719   0.003  1.00  0.00    -0.454 OA
ATOM     13  O   UNL     1       8.692  -3.979  -2.177  1.00  0.00    -0.454 OA
ATOM     14  C   UNL     1       8.955  -4.657  -0.972  1.00  0.00     0.468 C 
ENDBRANCH   5   6
ENDBRANCH   1   5
TORSDOF 3
ENDMDL
MODEL 3
REMARK VINA RESULT:      -7.2      2.056      2.622
REMARK SMILES CC(=O)CCc1ccc2c(c1)OCO2
REMARK SMILES IDX 4 1 2 2 1 3 3 4 5 5 6 6 7 7 11 8 8 9 10 10 9 11 12 12 14 13
REMARK SMILES IDX 13 14
REMARK H PARENT
REMARK Flexibility Score: inf
ROOT
ATOM      1  C   UNL     1       5.420  -0.057   2.008  1.00  0.00     0.080 C 
ENDROOT
BRANCH   1   2
ATOM      2  C   UNL     1       4.580   1.148   1.765  1.00  0.00     0.130 C 
ATOM      3  C   UNL     1       4.915   2.133   0.702  1.00  0.00     0.087 C 
ATOM      4  O   UNL     1       3.584   1.364   2.437  1.00  0.00    -0.300 OA
ENDBRANCH   1   2
BRANCH   1   5
ATOM      5  C   UNL     1       6.860   0.185   1.599  1.00  0.00     0.043 C 
BRANCH   5   6
ATOM      6  C   UNL     1       7.288  -0.739   0.534  1.00  0.00    -0.044 A 
ATOM      7  C   UNL     1       7.166  -0.405  -0.819  1.00  0.00     0.008 A 
ATOM      8  C   UNL     1       7.825  -1.962   0.867  1.00  0.00     0.054 A 
ATOM      9  C   UNL     1       7.586  -1.313  -1.775  1.00  0.00     0.051 A 
ATOM     10  C   UNL     1       8.249  -2.876  -0.103  1.00  0.00     0.166 A 
ATOM     11  C   UNL     1       8.128  -2.548  -1.435  1.00  0.00     0.165 A 
ATOM     12  O   UNL     1       8.806  -4.135  -0.028  1.00  0.00    -0.454 OA
ATOM     13  O   UNL     1       8.619  -3.624  -2.158  1.00  0.00    -0.454 OA
ATOM     14  C   UNL     1       9.142  -4.614  -1.305  1.00  0.00     0.468 C 
ENDBRANCH   5   6
ENDBRANCH   1   5
TORSDOF 3
ENDMDL
MODEL 4
REMARK VINA RESULT:      -7.1      1.957      2.486
REMARK SMILES CC(=O)CCc1ccc2c(c1)OCO2
REMARK SMILES IDX 4 1 2 2 1 3 3 4 5 5 6 6 7 7 11 8 8 9 10 10 9 11 12 12 14 13
REMARK SMILES IDX 13 14
REMARK H PARENT
REMARK Flexibility Score: inf
ROOT
ATOM      1  C   UNL     1       6.790   0.889   1.380  1.00  0.00     0.080 C 
ENDROOT
BRANCH   1   2
ATOM      2  C   UNL     1       5.336   1.194   1.480  1.00  0.00     0.130 C 
ATOM      3  C   UNL     1       4.673   2.148   0.551  1.00  0.00     0.087 C 
ATOM      4  O   UNL     1       4.641   0.665   2.333  1.00  0.00    -0.300 OA
ENDBRANCH   1   2
BRANCH   1   5
ATOM      5  C   UNL     1       7.300   1.095  -0.033  1.00  0.00     0.043 C 
BRANCH   5   6
ATOM      6  C   UNL     1       7.638  -0.184  -0.683  1.00  0.00    -0.044 A 
ATOM      7  C   UNL     1       7.647  -0.317  -2.077  1.00  0.00     0.008 A 
ATOM      8  C   UNL     1       7.957  -1.279   0.088  1.00  0.00     0.054 A 
ATOM      9  C   UNL     1       7.972  -1.542  -2.631  1.00  0.00     0.051 A 
ATOM     10  C   UNL     1       8.286  -2.514  -0.478  1.00  0.00     0.166 A 
ATOM     11  C   UNL     1       8.293  -2.647  -1.849  1.00  0.00     0.165 A 
ATOM     12  O   UNL     1       8.633  -3.733   0.064  1.00  0.00    -0.454 OA
ATOM     13  O   UNL     1       8.650  -3.958  -2.123  1.00  0.00    -0.454 OA
ATOM     14  C   UNL     1       8.963  -4.657  -0.942  1.00  0.00     0.468 C 
ENDBRANCH   5   6
ENDBRANCH   1   5
TORSDOF 3
ENDMDL
MODEL 5
REMARK VINA RESULT:      -7.1      1.249      1.459
REMARK SMILES CC(=O)CCc1ccc2c(c1)OCO2
REMARK SMILES IDX 4 1 2 2 1 3 3 4 5 5 6 6 7 7 11 8 8 9 10 10 9 11 12 12 14 13
REMARK SMILES IDX 13 14
REMARK H PARENT
REMARK Flexibility Score: inf
ROOT
ATOM      1  C   UNL     1       6.388   1.189   0.949  1.00  0.00     0.080 C 
ENDROOT
BRANCH   1   2
ATOM      2  C   UNL     1       5.651   0.374   1.954  1.00  0.00     0.130 C 
ATOM      3  C   UNL     1       6.243  -0.855   2.548  1.00  0.00     0.087 C 
ATOM      4  O   UNL     1       4.533   0.694   2.322  1.00  0.00    -0.300 OA
ENDBRANCH   1   2
BRANCH   1   5
ATOM      5  C   UNL     1       5.876   0.927  -0.454  1.00  0.00     0.043 C 
BRANCH   5   6
ATOM      6  C   UNL     1       6.814   0.099  -1.233  1.00  0.00    -0.044 A 
ATOM      7  C   UNL     1       7.477   0.604  -2.358  1.00  0.00     0.008 A 
ATOM      8  C   UNL     1       7.054  -1.202  -0.852  1.00  0.00     0.054 A 
ATOM      9  C   UNL     1       8.347  -0.219  -3.049  1.00  0.00     0.051 A 
ATOM     10  C   UNL     1       7.935  -2.029  -1.555  1.00  0.00     0.166 A 
ATOM     11  C   UNL     1       8.586  -1.534  -2.662  1.00  0.00     0.165 A 
ATOM     12  O   UNL     1       8.336  -3.337  -1.381  1.00  0.00    -0.454 OA
ATOM     13  O   UNL     1       9.383  -2.558  -3.150  1.00  0.00    -0.454 OA
ATOM     14  C   UNL     1       9.324  -3.690  -2.315  1.00  0.00     0.468 C 
ENDBRANCH   5   6
ENDBRANCH   1   5
TORSDOF 3
ENDMDL
