@<TRIPOS>MOLECULE
/home/cewinharhar/GITHUB/reincatalyze/data/processed/docking_pred/2023-May-25-1902_sub9_nm5_bs15_s42_ex16_mel10_mts10000_k50_ec01_g099_lra3e-4_lrc3e-3/e72dfb9ce69b60d9dd63e32278a4acfac8a78322_ligand_9.pdbqt
 14 15 0 0 0
SMALL
GASTEIGER

@<TRIPOS>ATOM
      1  C          5.4200   -0.0570    2.0080 C.3     1  UNL1        0.0800
      2  C          4.5800    1.1480    1.7650 C.2     1  UNL1        0.1300
      3  C          4.9150    2.1330    0.7020 C.3     1  UNL1        0.0870
      4  O          3.5840    1.3640    2.4370 O.2     1  UNL1       -0.3000
      5  C          6.8600    0.1850    1.5990 C.3     1  UNL1        0.0430
      6  C          7.2880   -0.7390    0.5340 C.2     1  UNL1       -0.0440
      7  C          7.1660   -0.4050   -0.8190 C.2     1  UNL1        0.0080
      8  C          7.8250   -1.9620    0.8670 C.2     1  UNL1        0.0540
      9  C          7.5860   -1.3130   -1.7750 C.2     1  UNL1        0.0510
     10  C          8.2490   -2.8760   -0.1030 C.2     1  UNL1        0.1660
     11  C          8.1280   -2.5480   -1.4350 C.2     1  UNL1        0.1650
     12  O          8.8060   -4.1350   -0.0280 O.2     1  UNL1       -0.4540
     13  O          8.6190   -3.6240   -2.1580 O.2     1  UNL1       -0.4540
     14  C          9.1420   -4.6140   -1.3050 C.3     1  UNL1        0.4680
@<TRIPOS>BOND
     1    13    11    1
     2    13    14    1
     3     9    11    2
     4     9     7    1
     5    11    10    1
     6    14    12    1
     7     7     6    2
     8    10    12    1
     9    10     8    2
    10     6     8    1
    11     6     5    1
    12     3     2    1
    13     5     1    1
    14     2     1    1
    15     2     4    2
