@<TRIPOS>MOLECULE
/home/cewinharhar/GITHUB/reincatalyze/data/processed/docking_pred/2023-May-25-1902_sub9_nm5_bs15_s42_ex16_mel10_mts10000_k50_ec01_g099_lra3e-4_lrc3e-3/e8fc6854485d68a8d0bf78bf523603f1a9cbeca9_ligand_9.pdbqt
 14 15 0 0 0
SMALL
GASTEIGER

@<TRIPOS>ATOM
      1  C          6.3770    1.2690    0.9270 C.3     1  UNL1        0.0800
      2  C          5.7140    0.4080    1.9460 C.2     1  UNL1        0.1300
      3  C          6.4020   -0.7700    2.5400 C.3     1  UNL1        0.0870
      4  O          4.5780    0.6450    2.3240 O.2     1  UNL1       -0.3000
      5  C          5.8650    0.9670   -0.4670 C.3     1  UNL1        0.0430
      6  C          6.8180    0.1440   -1.2330 C.2     1  UNL1       -0.0440
      7  C          7.4880    0.6500   -2.3530 C.2     1  UNL1        0.0080
      8  C          7.0660   -1.1530   -0.8440 C.2     1  UNL1        0.0540
      9  C          8.3720   -0.1680   -3.0320 C.2     1  UNL1        0.0510
     10  C          7.9610   -1.9760   -1.5340 C.2     1  UNL1        0.1660
     11  C          8.6190   -1.4800   -2.6370 C.2     1  UNL1        0.1650
     12  O          8.3720   -3.2790   -1.3500 O.2     1  UNL1       -0.4540
     13  O          9.4300   -2.4990   -3.1120 O.2     1  UNL1       -0.4540
     14  C          9.3720   -3.6270   -2.2730 C.3     1  UNL1        0.4680
@<TRIPOS>BOND
     1    13    11    1
     2    13    14    1
     3     9    11    2
     4     9     7    1
     5    11    10    1
     6     7     6    2
     7    14    12    1
     8    10    12    1
     9    10     8    2
    10     6     8    1
    11     6     5    1
    12     5     1    1
    13     1     2    1
    14     2     4    2
    15     2     3    1
