@<TRIPOS>MOLECULE
/home/cewinharhar/GITHUB/reincatalyze/data/processed/docking_pred/2023-May-25-1902_sub9_nm5_bs15_s42_ex16_mel10_mts10000_k50_ec01_g099_lra3e-4_lrc3e-3/e8fc6854485d68a8d0bf78bf523603f1a9cbeca9_ligand_9.pdbqt
 14 15 0 0 0
SMALL
GASTEIGER

@<TRIPOS>ATOM
      1  C          5.5510    1.8900    1.2920 C.3     1  UNL1        0.0800
      2  C          5.1120    0.6690    2.0230 C.2     1  UNL1        0.1300
      3  C          6.0100   -0.5040    2.1940 C.3     1  UNL1        0.0870
      4  O          3.9930    0.5960    2.5060 O.2     1  UNL1       -0.3000
      5  C          5.4120    1.7150   -0.2070 C.3     1  UNL1        0.0430
      6  C          6.5740    1.0170   -0.7860 C.2     1  UNL1       -0.0440
      7  C          7.8820    1.4650   -0.5660 C.2     1  UNL1        0.0080
      8  C          6.3810   -0.1040   -1.5600 C.2     1  UNL1        0.0540
      9  C          8.9340    0.7700   -1.1340 C.2     1  UNL1        0.0510
     10  C          7.4480   -0.8040   -2.1320 C.2     1  UNL1        0.1660
     11  C          8.7350   -0.3630   -1.9170 C.2     1  UNL1        0.1650
     12  O          7.5150   -1.9270   -2.9280 O.2     1  UNL1       -0.4540
     13  O          9.5750   -1.2350   -2.5920 O.2     1  UNL1       -0.4540
     14  C          8.8490   -2.2930   -3.1720 C.3     1  UNL1        0.4680
@<TRIPOS>BOND
     1    14    12    1
     2    14    13    1
     3    12    10    1
     4    13    11    1
     5    10    11    2
     6    10     8    1
     7    11     9    1
     8     8     6    2
     9     9     7    2
    10     6     7    1
    11     6     5    1
    12     5     1    1
    13     1     2    1
    14     2     3    1
    15     2     4    2
