@<TRIPOS>MOLECULE
/home/cewinharhar/GITHUB/reincatalyze/data/processed/docking_pred/2023-May-25-1902_sub9_nm5_bs15_s42_ex16_mel10_mts10000_k50_ec01_g099_lra3e-4_lrc3e-3/e8fc6854485d68a8d0bf78bf523603f1a9cbeca9_ligand_9.pdbqt
 14 15 0 0 0
SMALL
GASTEIGER

@<TRIPOS>ATOM
      1  C          5.4070   -0.0590    2.0110 C.3     1  UNL1        0.0800
      2  C          4.5680    1.1470    1.7660 C.2     1  UNL1        0.1300
      3  C          4.9110    2.1350    0.7080 C.3     1  UNL1        0.0870
      4  O          3.5680    1.3610    2.4310 O.2     1  UNL1       -0.3000
      5  C          6.8490    0.1820    1.6080 C.3     1  UNL1        0.0430
      6  C          7.2800   -0.7410    0.5430 C.2     1  UNL1       -0.0440
      7  C          7.1590   -0.4070   -0.8100 C.2     1  UNL1        0.0080
      8  C          7.8190   -1.9630    0.8770 C.2     1  UNL1        0.0540
      9  C          7.5810   -1.3130   -1.7660 C.2     1  UNL1        0.0510
     10  C          8.2450   -2.8750   -0.0930 C.2     1  UNL1        0.1660
     11  C          8.1250   -2.5480   -1.4250 C.2     1  UNL1        0.1650
     12  O          8.8040   -4.1330   -0.0180 O.2     1  UNL1       -0.4540
     13  O          8.6190   -3.6220   -2.1480 O.2     1  UNL1       -0.4540
     14  C          9.1440   -4.6110   -1.2940 C.3     1  UNL1        0.4680
@<TRIPOS>BOND
     1    13    11    1
     2    13    14    1
     3     9    11    2
     4     9     7    1
     5    11    10    1
     6    14    12    1
     7     7     6    2
     8    10    12    1
     9    10     8    2
    10     6     8    1
    11     6     5    1
    12     3     2    1
    13     5     1    1
    14     2     1    1
    15     2     4    2
