@<TRIPOS>MOLECULE
/home/cewinharhar/GITHUB/reincatalyze/data/processed/docking_pred/2023-May-25-1902_sub9_nm5_bs15_s42_ex16_mel10_mts10000_k50_ec01_g099_lra3e-4_lrc3e-3/e8fc6854485d68a8d0bf78bf523603f1a9cbeca9_ligand_9.pdbqt
 14 15 0 0 0
SMALL
GASTEIGER

@<TRIPOS>ATOM
      1  C          5.7350    1.2740   -0.3030 C.3     1  UNL1        0.0800
      2  C          5.1480    1.2260    1.0660 C.2     1  UNL1        0.1300
      3  C          5.3590    0.0600    1.9650 C.3     1  UNL1        0.0870
      4  O          4.4730    2.1490    1.4910 O.2     1  UNL1       -0.3000
      5  C          7.2370    1.0780   -0.2650 C.3     1  UNL1        0.0430
      6  C          7.6360   -0.2050   -0.8710 C.2     1  UNL1       -0.0440
      7  C          7.7490   -0.3570   -2.2580 C.2     1  UNL1        0.0080
      8  C          7.9100   -1.2850   -0.0640 C.2     1  UNL1        0.0540
      9  C          8.1280   -1.5840   -2.7700 C.2     1  UNL1        0.0510
     10  C          8.2940   -2.5240   -0.5870 C.2     1  UNL1        0.1660
     11  C          8.4030   -2.6740   -1.9510 C.2     1  UNL1        0.1650
     12  O          8.6140   -3.7310   -0.0030 O.2     1  UNL1       -0.4540
     13  O          8.7940   -3.9840   -2.1800 O.2     1  UNL1       -0.4540
     14  C          9.0270   -4.6640   -0.9690 C.3     1  UNL1        0.4680
@<TRIPOS>BOND
     1     9     7    1
     2     9    11    2
     3     7     6    2
     4    13    11    1
     5    13    14    1
     6    11    10    1
     7    14    12    1
     8     6     5    1
     9     6     8    1
    10    10     8    2
    11    10    12    1
    12     1     5    1
    13     1     2    1
    14     2     4    2
    15     2     3    1
