MODEL 1
REMARK VINA RESULT:      -7.7      0.000      0.000
REMARK SMILES CC(=O)CCc1ccc2c(c1)OCO2
REMARK SMILES IDX 4 1 2 2 1 3 3 4 5 5 6 6 7 7 11 8 8 9 10 10 9 11 12 12 14 13
REMARK SMILES IDX 13 14
REMARK H PARENT
REMARK Flexibility Score: inf
ROOT
ATOM      1  C   UNL     1       5.551   1.890   1.292  1.00  0.00     0.080 C 
ENDROOT
BRANCH   1   2
ATOM      2  C   UNL     1       5.112   0.669   2.023  1.00  0.00     0.130 C 
ATOM      3  C   UNL     1       6.010  -0.504   2.194  1.00  0.00     0.087 C 
ATOM      4  O   UNL     1       3.993   0.596   2.506  1.00  0.00    -0.300 OA
ENDBRANCH   1   2
BRANCH   1   5
ATOM      5  C   UNL     1       5.412   1.715  -0.207  1.00  0.00     0.043 C 
BRANCH   5   6
ATOM      6  C   UNL     1       6.574   1.017  -0.786  1.00  0.00    -0.044 A 
ATOM      7  C   UNL     1       7.882   1.465  -0.566  1.00  0.00     0.008 A 
ATOM      8  C   UNL     1       6.381  -0.104  -1.560  1.00  0.00     0.054 A 
ATOM      9  C   UNL     1       8.934   0.770  -1.134  1.00  0.00     0.051 A 
ATOM     10  C   UNL     1       7.448  -0.804  -2.132  1.00  0.00     0.166 A 
ATOM     11  C   UNL     1       8.735  -0.363  -1.917  1.00  0.00     0.165 A 
ATOM     12  O   UNL     1       7.515  -1.927  -2.928  1.00  0.00    -0.454 OA
ATOM     13  O   UNL     1       9.575  -1.235  -2.592  1.00  0.00    -0.454 OA
ATOM     14  C   UNL     1       8.849  -2.293  -3.172  1.00  0.00     0.468 C 
ENDBRANCH   5   6
ENDBRANCH   1   5
TORSDOF 3
ENDMDL
MODEL 2
REMARK VINA RESULT:      -7.5      1.923      2.382
REMARK SMILES CC(=O)CCc1ccc2c(c1)OCO2
REMARK SMILES IDX 4 1 2 2 1 3 3 4 5 5 6 6 7 7 11 8 8 9 10 10 9 11 12 12 14 13
REMARK SMILES IDX 13 14
REMARK H PARENT
REMARK Flexibility Score: inf
ROOT
ATOM      1  C   UNL     1       5.735   1.274  -0.303  1.00  0.00     0.080 C 
ENDROOT
BRANCH   1   2
ATOM      2  C   UNL     1       5.148   1.226   1.066  1.00  0.00     0.130 C 
ATOM      3  C   UNL     1       5.359   0.060   1.965  1.00  0.00     0.087 C 
ATOM      4  O   UNL     1       4.473   2.149   1.491  1.00  0.00    -0.300 OA
ENDBRANCH   1   2
BRANCH   1   5
ATOM      5  C   UNL     1       7.237   1.078  -0.265  1.00  0.00     0.043 C 
BRANCH   5   6
ATOM      6  C   UNL     1       7.636  -0.205  -0.871  1.00  0.00    -0.044 A 
ATOM      7  C   UNL     1       7.749  -0.357  -2.258  1.00  0.00     0.008 A 
ATOM      8  C   UNL     1       7.910  -1.285  -0.064  1.00  0.00     0.054 A 
ATOM      9  C   UNL     1       8.128  -1.584  -2.770  1.00  0.00     0.051 A 
ATOM     10  C   UNL     1       8.294  -2.524  -0.587  1.00  0.00     0.166 A 
ATOM     11  C   UNL     1       8.403  -2.674  -1.951  1.00  0.00     0.165 A 
ATOM     12  O   UNL     1       8.614  -3.731  -0.003  1.00  0.00    -0.454 OA
ATOM     13  O   UNL     1       8.794  -3.984  -2.180  1.00  0.00    -0.454 OA
ATOM     14  C   UNL     1       9.027  -4.664  -0.969  1.00  0.00     0.468 C 
ENDBRANCH   5   6
ENDBRANCH   1   5
TORSDOF 3
ENDMDL
MODEL 3
REMARK VINA RESULT:      -7.2      2.051      2.626
REMARK SMILES CC(=O)CCc1ccc2c(c1)OCO2
REMARK SMILES IDX 4 1 2 2 1 3 3 4 5 5 6 6 7 7 11 8 8 9 10 10 9 11 12 12 14 13
REMARK SMILES IDX 13 14
REMARK H PARENT
REMARK Flexibility Score: inf
ROOT
ATOM      1  C   UNL     1       5.407  -0.059   2.011  1.00  0.00     0.080 C 
ENDROOT
BRANCH   1   2
ATOM      2  C   UNL     1       4.568   1.147   1.766  1.00  0.00     0.130 C 
ATOM      3  C   UNL     1       4.911   2.135   0.708  1.00  0.00     0.087 C 
ATOM      4  O   UNL     1       3.568   1.361   2.431  1.00  0.00    -0.300 OA
ENDBRANCH   1   2
BRANCH   1   5
ATOM      5  C   UNL     1       6.849   0.182   1.608  1.00  0.00     0.043 C 
BRANCH   5   6
ATOM      6  C   UNL     1       7.280  -0.741   0.543  1.00  0.00    -0.044 A 
ATOM      7  C   UNL     1       7.159  -0.407  -0.810  1.00  0.00     0.008 A 
ATOM      8  C   UNL     1       7.819  -1.963   0.877  1.00  0.00     0.054 A 
ATOM      9  C   UNL     1       7.581  -1.313  -1.766  1.00  0.00     0.051 A 
ATOM     10  C   UNL     1       8.245  -2.875  -0.093  1.00  0.00     0.166 A 
ATOM     11  C   UNL     1       8.125  -2.548  -1.425  1.00  0.00     0.165 A 
ATOM     12  O   UNL     1       8.804  -4.133  -0.018  1.00  0.00    -0.454 OA
ATOM     13  O   UNL     1       8.619  -3.622  -2.148  1.00  0.00    -0.454 OA
ATOM     14  C   UNL     1       9.144  -4.611  -1.294  1.00  0.00     0.468 C 
ENDBRANCH   5   6
ENDBRANCH   1   5
TORSDOF 3
ENDMDL
MODEL 4
REMARK VINA RESULT:      -7.0      1.243      1.431
REMARK SMILES CC(=O)CCc1ccc2c(c1)OCO2
REMARK SMILES IDX 4 1 2 2 1 3 3 4 5 5 6 6 7 7 11 8 8 9 10 10 9 11 12 12 14 13
REMARK SMILES IDX 13 14
REMARK H PARENT
REMARK Flexibility Score: inf
ROOT
ATOM      1  C   UNL     1       6.377   1.269   0.927  1.00  0.00     0.080 C 
ENDROOT
BRANCH   1   2
ATOM      2  C   UNL     1       5.714   0.408   1.946  1.00  0.00     0.130 C 
ATOM      3  C   UNL     1       6.402  -0.770   2.540  1.00  0.00     0.087 C 
ATOM      4  O   UNL     1       4.578   0.645   2.324  1.00  0.00    -0.300 OA
ENDBRANCH   1   2
BRANCH   1   5
ATOM      5  C   UNL     1       5.865   0.967  -0.467  1.00  0.00     0.043 C 
BRANCH   5   6
ATOM      6  C   UNL     1       6.818   0.144  -1.233  1.00  0.00    -0.044 A 
ATOM      7  C   UNL     1       7.488   0.650  -2.353  1.00  0.00     0.008 A 
ATOM      8  C   UNL     1       7.066  -1.153  -0.844  1.00  0.00     0.054 A 
ATOM      9  C   UNL     1       8.372  -0.168  -3.032  1.00  0.00     0.051 A 
ATOM     10  C   UNL     1       7.961  -1.976  -1.534  1.00  0.00     0.166 A 
ATOM     11  C   UNL     1       8.619  -1.480  -2.637  1.00  0.00     0.165 A 
ATOM     12  O   UNL     1       8.372  -3.279  -1.350  1.00  0.00    -0.454 OA
ATOM     13  O   UNL     1       9.430  -2.499  -3.112  1.00  0.00    -0.454 OA
ATOM     14  C   UNL     1       9.372  -3.627  -2.273  1.00  0.00     0.468 C 
ENDBRANCH   5   6
ENDBRANCH   1   5
TORSDOF 3
ENDMDL
MODEL 5
REMARK VINA RESULT:      -6.8      1.831      2.461
REMARK SMILES CC(=O)CCc1ccc2c(c1)OCO2
REMARK SMILES IDX 4 1 2 2 1 3 3 4 5 5 6 6 7 7 11 8 8 9 10 10 9 11 12 12 14 13
REMARK SMILES IDX 13 14
REMARK H PARENT
REMARK Flexibility Score: inf
ROOT
ATOM      1  C   UNL     1       6.658   0.472   1.033  1.00  0.00     0.080 C 
ENDROOT
BRANCH   1   2
ATOM      2  C   UNL     1       5.322   0.984   1.444  1.00  0.00     0.130 C 
ATOM      3  C   UNL     1       4.691   2.150   0.769  1.00  0.00     0.087 C 
ATOM      4  O   UNL     1       4.702   0.459   2.355  1.00  0.00    -0.300 OA
ENDBRANCH   1   2
BRANCH   1   5
ATOM      5  C   UNL     1       6.906   0.704  -0.445  1.00  0.00     0.043 C 
BRANCH   5   6
ATOM      6  C   UNL     1       7.517  -0.472  -1.088  1.00  0.00    -0.044 A 
ATOM      7  C   UNL     1       7.897  -0.456  -2.435  1.00  0.00     0.008 A 
ATOM      8  C   UNL     1       7.725  -1.619  -0.356  1.00  0.00     0.054 A 
ATOM      9  C   UNL     1       8.467  -1.590  -2.985  1.00  0.00     0.051 A 
ATOM     10  C   UNL     1       8.302  -2.763  -0.917  1.00  0.00     0.166 A 
ATOM     11  C   UNL     1       8.675  -2.748  -2.242  1.00  0.00     0.165 A 
ATOM     12  O   UNL     1       8.609  -4.006  -0.407  1.00  0.00    -0.454 OA
ATOM     13  O   UNL     1       9.210  -3.996  -2.522  1.00  0.00    -0.454 OA
ATOM     14  C   UNL     1       9.270  -4.794  -1.364  1.00  0.00     0.468 C 
ENDBRANCH   5   6
ENDBRANCH   1   5
TORSDOF 3
ENDMDL
