@<TRIPOS>MOLECULE
/home/cewinharhar/GITHUB/reincatalyze/data/processed/docking_pred/2023-May-25-1902_sub9_nm5_bs15_s42_ex16_mel10_mts10000_k50_ec01_g099_lra3e-4_lrc3e-3/e8fc6854485d68a8d0bf78bf523603f1a9cbeca9_ligand_9.pdbqt
 14 15 0 0 0
SMALL
GASTEIGER

@<TRIPOS>ATOM
      1  C          6.6580    0.4720    1.0330 C.3     1  UNL1        0.0800
      2  C          5.3220    0.9840    1.4440 C.2     1  UNL1        0.1300
      3  C          4.6910    2.1500    0.7690 C.3     1  UNL1        0.0870
      4  O          4.7020    0.4590    2.3550 O.2     1  UNL1       -0.3000
      5  C          6.9060    0.7040   -0.4450 C.3     1  UNL1        0.0430
      6  C          7.5170   -0.4720   -1.0880 C.2     1  UNL1       -0.0440
      7  C          7.8970   -0.4560   -2.4350 C.2     1  UNL1        0.0080
      8  C          7.7250   -1.6190   -0.3560 C.2     1  UNL1        0.0540
      9  C          8.4670   -1.5900   -2.9850 C.2     1  UNL1        0.0510
     10  C          8.3020   -2.7630   -0.9170 C.2     1  UNL1        0.1660
     11  C          8.6750   -2.7480   -2.2420 C.2     1  UNL1        0.1650
     12  O          8.6090   -4.0060   -0.4070 O.2     1  UNL1       -0.4540
     13  O          9.2100   -3.9960   -2.5220 O.2     1  UNL1       -0.4540
     14  C          9.2700   -4.7940   -1.3640 C.3     1  UNL1        0.4680
@<TRIPOS>BOND
     1     9     7    1
     2     9    11    2
     3    13    11    1
     4    13    14    1
     5     7     6    2
     6    11    10    1
     7    14    12    1
     8     6     5    1
     9     6     8    1
    10    10    12    1
    11    10     8    2
    12     5     1    1
    13     3     2    1
    14     1     2    1
    15     2     4    2
