@<TRIPOS>MOLECULE
/home/cewinharhar/GITHUB/reincatalyze/data/processed/docking_pred/2023-May-25-1902_sub9_nm5_bs15_s42_ex16_mel10_mts10000_k50_ec01_g099_lra3e-4_lrc3e-3/e9ca5ba4bc0452251e134010a3e53239cf47eed8_ligand_9.pdbqt
 14 15 0 0 0
SMALL
GASTEIGER

@<TRIPOS>ATOM
      1  C          5.5380    1.8780    1.2880 C.3     1  UNL1        0.0800
      2  C          5.0890    0.6570    2.0140 C.2     1  UNL1        0.1300
      3  C          5.9750   -0.5270    2.1720 C.3     1  UNL1        0.0870
      4  O          3.9730    0.5930    2.5030 O.2     1  UNL1       -0.3000
      5  C          5.4060    1.7060   -0.2120 C.3     1  UNL1        0.0430
      6  C          6.5710    1.0090   -0.7870 C.2     1  UNL1       -0.0440
      7  C          7.8780    1.4540   -0.5560 C.2     1  UNL1        0.0080
      8  C          6.3810   -0.1080   -1.5680 C.2     1  UNL1        0.0540
      9  C          8.9320    0.7600   -1.1210 C.2     1  UNL1        0.0510
     10  C          7.4500   -0.8060   -2.1360 C.2     1  UNL1        0.1660
     11  C          8.7360   -0.3690   -1.9110 C.2     1  UNL1        0.1650
     12  O          7.5210   -1.9260   -2.9380 O.2     1  UNL1       -0.4540
     13  O          9.5790   -1.2380   -2.5850 O.2     1  UNL1       -0.4540
     14  C          8.8560   -2.2930   -3.1740 C.3     1  UNL1        0.4680
@<TRIPOS>BOND
     1    14    12    1
     2    14    13    1
     3    12    10    1
     4    13    11    1
     5    10    11    2
     6    10     8    1
     7    11     9    1
     8     8     6    2
     9     9     7    2
    10     6     7    1
    11     6     5    1
    12     5     1    1
    13     1     2    1
    14     2     3    1
    15     2     4    2
