MODEL 1
REMARK VINA RESULT:      -7.7      0.000      0.000
REMARK SMILES CC(=O)CCc1ccc2c(c1)OCO2
REMARK SMILES IDX 4 1 2 2 1 3 3 4 5 5 6 6 7 7 11 8 8 9 10 10 9 11 12 12 14 13
REMARK SMILES IDX 13 14
REMARK H PARENT
REMARK Flexibility Score: inf
ROOT
ATOM      1  C   UNL     1       5.538   1.878   1.288  1.00  0.00     0.080 C 
ENDROOT
BRANCH   1   2
ATOM      2  C   UNL     1       5.089   0.657   2.014  1.00  0.00     0.130 C 
ATOM      3  C   UNL     1       5.975  -0.527   2.172  1.00  0.00     0.087 C 
ATOM      4  O   UNL     1       3.973   0.593   2.503  1.00  0.00    -0.300 OA
ENDBRANCH   1   2
BRANCH   1   5
ATOM      5  C   UNL     1       5.406   1.706  -0.212  1.00  0.00     0.043 C 
BRANCH   5   6
ATOM      6  C   UNL     1       6.571   1.009  -0.787  1.00  0.00    -0.044 A 
ATOM      7  C   UNL     1       7.878   1.454  -0.556  1.00  0.00     0.008 A 
ATOM      8  C   UNL     1       6.381  -0.108  -1.568  1.00  0.00     0.054 A 
ATOM      9  C   UNL     1       8.932   0.760  -1.121  1.00  0.00     0.051 A 
ATOM     10  C   UNL     1       7.450  -0.806  -2.136  1.00  0.00     0.166 A 
ATOM     11  C   UNL     1       8.736  -0.369  -1.911  1.00  0.00     0.165 A 
ATOM     12  O   UNL     1       7.521  -1.926  -2.938  1.00  0.00    -0.454 OA
ATOM     13  O   UNL     1       9.579  -1.238  -2.585  1.00  0.00    -0.454 OA
ATOM     14  C   UNL     1       8.856  -2.293  -3.174  1.00  0.00     0.468 C 
ENDBRANCH   5   6
ENDBRANCH   1   5
TORSDOF 3
ENDMDL
MODEL 2
REMARK VINA RESULT:      -7.2      1.238      1.432
REMARK SMILES CC(=O)CCc1ccc2c(c1)OCO2
REMARK SMILES IDX 4 1 2 2 1 3 3 4 5 5 6 6 7 7 11 8 8 9 10 10 9 11 12 12 14 13
REMARK SMILES IDX 13 14
REMARK H PARENT
REMARK Flexibility Score: inf
ROOT
ATOM      1  C   UNL     1       6.354   1.208   0.952  1.00  0.00     0.080 C 
ENDROOT
BRANCH   1   2
ATOM      2  C   UNL     1       5.660   0.355   1.957  1.00  0.00     0.130 C 
ATOM      3  C   UNL     1       6.295  -0.869   2.515  1.00  0.00     0.087 C 
ATOM      4  O   UNL     1       4.541   0.639   2.353  1.00  0.00    -0.300 OA
ENDBRANCH   1   2
BRANCH   1   5
ATOM      5  C   UNL     1       5.840   0.938  -0.448  1.00  0.00     0.043 C 
BRANCH   5   6
ATOM      6  C   UNL     1       6.784   0.118  -1.229  1.00  0.00    -0.044 A 
ATOM      7  C   UNL     1       7.460   0.636  -2.339  1.00  0.00     0.008 A 
ATOM      8  C   UNL     1       7.015  -1.189  -0.864  1.00  0.00     0.054 A 
ATOM      9  C   UNL     1       8.335  -0.180  -3.033  1.00  0.00     0.051 A 
ATOM     10  C   UNL     1       7.901  -2.010  -1.569  1.00  0.00     0.166 A 
ATOM     11  C   UNL     1       8.566  -1.501  -2.662  1.00  0.00     0.165 A 
ATOM     12  O   UNL     1       8.295  -3.321  -1.409  1.00  0.00    -0.454 OA
ATOM     13  O   UNL     1       9.364  -2.521  -3.156  1.00  0.00    -0.454 OA
ATOM     14  C   UNL     1       9.292  -3.664  -2.338  1.00  0.00     0.468 C 
ENDBRANCH   5   6
ENDBRANCH   1   5
TORSDOF 3
ENDMDL
MODEL 3
REMARK VINA RESULT:      -7.0      1.735      2.304
REMARK SMILES CC(=O)CCc1ccc2c(c1)OCO2
REMARK SMILES IDX 4 1 2 2 1 3 3 4 5 5 6 6 7 7 11 8 8 9 10 10 9 11 12 12 14 13
REMARK SMILES IDX 13 14
REMARK H PARENT
REMARK Flexibility Score: inf
ROOT
ATOM      1  C   UNL     1       5.507   0.027   2.095  1.00  0.00     0.080 C 
ENDROOT
BRANCH   1   2
ATOM      2  C   UNL     1       4.543   1.128   1.818  1.00  0.00     0.130 C 
ATOM      3  C   UNL     1       4.805   2.150   0.769  1.00  0.00     0.087 C 
ATOM      4  O   UNL     1       3.503   1.224   2.450  1.00  0.00    -0.300 OA
ENDBRANCH   1   2
BRANCH   1   5
ATOM      5  C   UNL     1       6.889   0.360   1.568  1.00  0.00     0.043 C 
BRANCH   5   6
ATOM      6  C   UNL     1       7.238  -0.458   0.393  1.00  0.00    -0.044 A 
ATOM      7  C   UNL     1       7.032   0.007  -0.911  1.00  0.00     0.008 A 
ATOM      8  C   UNL     1       7.783  -1.710   0.571  1.00  0.00     0.054 A 
ATOM      9  C   UNL     1       7.380  -0.805  -1.975  1.00  0.00     0.051 A 
ATOM     10  C   UNL     1       8.133  -2.526  -0.508  1.00  0.00     0.166 A 
ATOM     11  C   UNL     1       7.930  -2.070  -1.792  1.00  0.00     0.165 A 
ATOM     12  O   UNL     1       8.680  -3.789  -0.593  1.00  0.00    -0.454 OA
ATOM     13  O   UNL     1       8.362  -3.073  -2.646  1.00  0.00    -0.454 OA
ATOM     14  C   UNL     1       8.929  -4.143  -1.929  1.00  0.00     0.468 C 
ENDBRANCH   5   6
ENDBRANCH   1   5
TORSDOF 3
ENDMDL
MODEL 4
REMARK VINA RESULT:      -7.0      1.600      1.970
REMARK SMILES CC(=O)CCc1ccc2c(c1)OCO2
REMARK SMILES IDX 4 1 2 2 1 3 3 4 5 5 6 6 7 7 11 8 8 9 10 10 9 11 12 12 14 13
REMARK SMILES IDX 13 14
REMARK H PARENT
REMARK Flexibility Score: inf
ROOT
ATOM      1  C   UNL     1       5.525   1.744   0.093  1.00  0.00     0.080 C 
ENDROOT
BRANCH   1   2
ATOM      2  C   UNL     1       4.901   1.271   1.360  1.00  0.00     0.130 C 
ATOM      3  C   UNL     1       5.421   0.086   2.092  1.00  0.00     0.087 C 
ATOM      4  O   UNL     1       3.936   1.848   1.836  1.00  0.00    -0.300 OA
ENDBRANCH   1   2
BRANCH   1   5
ATOM      5  C   UNL     1       7.016   1.470   0.078  1.00  0.00     0.043 C 
BRANCH   5   6
ATOM      6  C   UNL     1       7.342   0.266  -0.708  1.00  0.00    -0.044 A 
ATOM      7  C   UNL     1       7.218   0.245  -2.102  1.00  0.00     0.008 A 
ATOM      8  C   UNL     1       7.783  -0.869  -0.066  1.00  0.00     0.054 A 
ATOM      9  C   UNL     1       7.539  -0.913  -2.786  1.00  0.00     0.051 A 
ATOM     10  C   UNL     1       8.107  -2.037  -0.763  1.00  0.00     0.166 A 
ATOM     11  C   UNL     1       7.984  -2.059  -2.134  1.00  0.00     0.165 A 
ATOM     12  O   UNL     1       8.559  -3.276  -0.361  1.00  0.00    -0.454 OA
ATOM     13  O   UNL     1       8.368  -3.324  -2.550  1.00  0.00    -0.454 OA
ATOM     14  C   UNL     1       8.826  -4.098  -1.468  1.00  0.00     0.468 C 
ENDBRANCH   5   6
ENDBRANCH   1   5
TORSDOF 3
ENDMDL
MODEL 5
REMARK VINA RESULT:      -6.8      1.265      1.748
REMARK SMILES CC(=O)CCc1ccc2c(c1)OCO2
REMARK SMILES IDX 4 1 2 2 1 3 3 4 5 5 6 6 7 7 11 8 8 9 10 10 9 11 12 12 14 13
REMARK SMILES IDX 13 14
REMARK H PARENT
REMARK Flexibility Score: inf
ROOT
ATOM      1  C   UNL     1       5.321  -0.072   1.953  1.00  0.00     0.080 C 
ENDROOT
BRANCH   1   2
ATOM      2  C   UNL     1       4.437   1.115   1.782  1.00  0.00     0.130 C 
ATOM      3  C   UNL     1       4.710   2.150   0.748  1.00  0.00     0.087 C 
ATOM      4  O   UNL     1       3.456   1.274   2.491  1.00  0.00    -0.300 OA
ENDBRANCH   1   2
BRANCH   1   5
ATOM      5  C   UNL     1       6.784   0.318   1.888  1.00  0.00     0.043 C 
BRANCH   5   6
ATOM      6  C   UNL     1       7.390  -0.048   0.595  1.00  0.00    -0.044 A 
ATOM      7  C   UNL     1       7.887   0.923  -0.282  1.00  0.00     0.008 A 
ATOM      8  C   UNL     1       7.478  -1.373   0.233  1.00  0.00     0.054 A 
ATOM      9  C   UNL     1       8.446   0.521  -1.481  1.00  0.00     0.051 A 
ATOM     10  C   UNL     1       8.044  -1.774  -0.980  1.00  0.00     0.166 A 
ATOM     11  C   UNL     1       8.532  -0.820  -1.844  1.00  0.00     0.165 A 
ATOM     12  O   UNL     1       8.244  -3.009  -1.561  1.00  0.00    -0.454 OA
ATOM     13  O   UNL     1       9.027  -1.495  -2.949  1.00  0.00    -0.454 OA
ATOM     14  C   UNL     1       8.947  -2.889  -2.771  1.00  0.00     0.468 C 
ENDBRANCH   5   6
ENDBRANCH   1   5
TORSDOF 3
ENDMDL
