@<TRIPOS>MOLECULE
/home/cewinharhar/GITHUB/reincatalyze/data/processed/docking_pred/2023-May-25-1902_sub9_nm5_bs15_s42_ex16_mel10_mts10000_k50_ec01_g099_lra3e-4_lrc3e-3/e9ca5ba4bc0452251e134010a3e53239cf47eed8_ligand_9.pdbqt
 14 15 0 0 0
SMALL
GASTEIGER

@<TRIPOS>ATOM
      1  C          5.5250    1.7440    0.0930 C.3     1  UNL1        0.0800
      2  C          4.9010    1.2710    1.3600 C.2     1  UNL1        0.1300
      3  C          5.4210    0.0860    2.0920 C.3     1  UNL1        0.0870
      4  O          3.9360    1.8480    1.8360 O.2     1  UNL1       -0.3000
      5  C          7.0160    1.4700    0.0780 C.3     1  UNL1        0.0430
      6  C          7.3420    0.2660   -0.7080 C.2     1  UNL1       -0.0440
      7  C          7.2180    0.2450   -2.1020 C.2     1  UNL1        0.0080
      8  C          7.7830   -0.8690   -0.0660 C.2     1  UNL1        0.0540
      9  C          7.5390   -0.9130   -2.7860 C.2     1  UNL1        0.0510
     10  C          8.1070   -2.0370   -0.7630 C.2     1  UNL1        0.1660
     11  C          7.9840   -2.0590   -2.1340 C.2     1  UNL1        0.1650
     12  O          8.5590   -3.2760   -0.3610 O.2     1  UNL1       -0.4540
     13  O          8.3680   -3.3240   -2.5500 O.2     1  UNL1       -0.4540
     14  C          8.8260   -4.0980   -1.4680 C.3     1  UNL1        0.4680
@<TRIPOS>BOND
     1     9    11    2
     2     9     7    1
     3    13    11    1
     4    13    14    1
     5    11    10    1
     6     7     6    2
     7    14    12    1
     8    10    12    1
     9    10     8    2
    10     6     8    1
    11     6     5    1
    12     5     1    1
    13     1     2    1
    14     2     4    2
    15     2     3    1
