@<TRIPOS>MOLECULE
/home/cewinharhar/GITHUB/reincatalyze/data/processed/docking_pred/2023-May-25-1902_sub9_nm5_bs15_s42_ex16_mel10_mts10000_k50_ec01_g099_lra3e-4_lrc3e-3/ea9f39b4277e7ba3f00603e8654b95ed05d2571c_ligand_9.pdbqt
 14 15 0 0 0
SMALL
GASTEIGER

@<TRIPOS>ATOM
      1  C          5.7840    1.4870   -0.3100 C.3     1  UNL1        0.0800
      2  C          5.1150    1.3340    1.0120 C.2     1  UNL1        0.1300
      3  C          5.4690    0.2280    1.9420 C.3     1  UNL1        0.0870
      4  O          4.2520    2.1170    1.3730 O.2     1  UNL1       -0.3000
      5  C          7.2660    1.1870   -0.2150 C.3     1  UNL1        0.0430
      6  C          7.6070   -0.0930   -0.8630 C.2     1  UNL1       -0.0440
      7  C          7.6090   -0.2320   -2.2550 C.2     1  UNL1        0.0080
      8  C          7.9350   -1.1830   -0.0890 C.2     1  UNL1        0.0540
      9  C          7.9380   -1.4570   -2.8060 C.2     1  UNL1        0.0510
     10  C          8.2680   -2.4190   -0.6510 C.2     1  UNL1        0.1660
     11  C          8.2690   -2.5570   -2.0210 C.2     1  UNL1        0.1650
     12  O          8.6240   -3.6340   -0.1050 O.2     1  UNL1       -0.4540
     13  O          8.6300   -3.8680   -2.2910 O.2     1  UNL1       -0.4540
     14  C          8.9530   -4.5600   -1.1090 C.3     1  UNL1        0.4680
@<TRIPOS>BOND
     1     9     7    1
     2     9    11    2
     3    13    11    1
     4    13    14    1
     5     7     6    2
     6    11    10    1
     7    14    12    1
     8     6     5    1
     9     6     8    1
    10    10    12    1
    11    10     8    2
    12     1     5    1
    13     1     2    1
    14     2     4    2
    15     2     3    1
