@<TRIPOS>MOLECULE
/home/cewinharhar/GITHUB/reincatalyze/data/processed/docking_pred/2023-May-25-1902_sub9_nm5_bs15_s42_ex16_mel10_mts10000_k50_ec01_g099_lra3e-4_lrc3e-3/eb53456adf8787420c4e8f25112cf644d6bf88f9_ligand_9.pdbqt
 14 15 0 0 0
SMALL
GASTEIGER

@<TRIPOS>ATOM
      1  C          5.6310    0.0600    1.9500 C.3     1  UNL1        0.0800
      2  C          4.6970    1.1720    1.6180 C.2     1  UNL1        0.1300
      3  C          4.9500    2.0910    0.4760 C.3     1  UNL1        0.0870
      4  O          3.6890    1.3620    2.2790 O.2     1  UNL1       -0.3000
      5  C          7.0210    0.3290    1.4070 C.3     1  UNL1        0.0430
      6  C          7.4090   -0.6580    0.3840 C.2     1  UNL1       -0.0440
      7  C          7.2940   -0.3800   -0.9830 C.2     1  UNL1        0.0080
      8  C          7.9000   -1.8840    0.7710 C.2     1  UNL1        0.0540
      9  C          7.6740   -1.3450   -1.8980 C.2     1  UNL1        0.0510
     10  C          8.2840   -2.8560   -0.1580 C.2     1  UNL1        0.1660
     11  C          8.1700   -2.5840   -1.5030 C.2     1  UNL1        0.1650
     12  O          8.7920   -4.1310   -0.0280 O.2     1  UNL1       -0.4540
     13  O          8.6160   -3.7090   -2.1790 O.2     1  UNL1       -0.4540
     14  C          9.1050   -4.6790   -1.2830 C.3     1  UNL1        0.4680
@<TRIPOS>BOND
     1    13    11    1
     2    13    14    1
     3     9    11    2
     4     9     7    1
     5    11    10    1
     6    14    12    1
     7     7     6    2
     8    10    12    1
     9    10     8    2
    10     6     8    1
    11     6     5    1
    12     3     2    1
    13     5     1    1
    14     2     1    1
    15     2     4    2
