@<TRIPOS>MOLECULE
/home/cewinharhar/GITHUB/reincatalyze/data/processed/docking_pred/2023-May-25-1902_sub9_nm5_bs15_s42_ex16_mel10_mts10000_k50_ec01_g099_lra3e-4_lrc3e-3/eb53456adf8787420c4e8f25112cf644d6bf88f9_ligand_9.pdbqt
 14 15 0 0 0
SMALL
GASTEIGER

@<TRIPOS>ATOM
      1  C          5.5100    1.9160    1.2660 C.3     1  UNL1        0.0800
      2  C          5.0710    0.7000    2.0050 C.2     1  UNL1        0.1300
      3  C          5.9630   -0.4790    2.1680 C.3     1  UNL1        0.0870
      4  O          3.9580    0.6370    2.5020 O.2     1  UNL1       -0.3000
      5  C          5.3840    1.7250   -0.2330 C.3     1  UNL1        0.0430
      6  C          6.5540    1.0250   -0.7940 C.2     1  UNL1       -0.0440
      7  C          7.8590    1.4610   -0.5410 C.2     1  UNL1        0.0080
      8  C          6.3690   -0.0860   -1.5860 C.2     1  UNL1        0.0540
      9  C          8.9180    0.7640   -1.0940 C.2     1  UNL1        0.0510
     10  C          7.4430   -0.7870   -2.1420 C.2     1  UNL1        0.1660
     11  C          8.7280   -0.3590   -1.8940 C.2     1  UNL1        0.1650
     12  O          7.5200   -1.9020   -2.9500 O.2     1  UNL1       -0.4540
     13  O          9.5760   -1.2290   -2.5610 O.2     1  UNL1       -0.4540
     14  C          8.8560   -2.2750   -3.1680 C.3     1  UNL1        0.4680
@<TRIPOS>BOND
     1    14    12    1
     2    14    13    1
     3    12    10    1
     4    13    11    1
     5    10    11    2
     6    10     8    1
     7    11     9    1
     8     8     6    2
     9     9     7    2
    10     6     7    1
    11     6     5    1
    12     5     1    1
    13     1     2    1
    14     2     3    1
    15     2     4    2
