@<TRIPOS>MOLECULE
/home/cewinharhar/GITHUB/reincatalyze/data/processed/docking_pred/2023-May-25-1902_sub9_nm5_bs15_s42_ex16_mel10_mts10000_k50_ec01_g099_lra3e-4_lrc3e-3/eb53456adf8787420c4e8f25112cf644d6bf88f9_ligand_9.pdbqt
 14 15 0 0 0
SMALL
GASTEIGER

@<TRIPOS>ATOM
      1  C          6.3560    1.2400    0.8710 C.3     1  UNL1        0.0800
      2  C          5.6650    0.4290    1.9120 C.2     1  UNL1        0.1300
      3  C          6.2810   -0.7980    2.4830 C.3     1  UNL1        0.0870
      4  O          4.5640    0.7520    2.3290 O.2     1  UNL1       -0.3000
      5  C          5.8420    0.9070   -0.5160 C.3     1  UNL1        0.0430
      6  C          6.8070    0.0930   -1.2760 C.2     1  UNL1       -0.0440
      7  C          7.5190    0.6200   -2.3600 C.2     1  UNL1        0.0080
      8  C          7.0240   -1.2180   -0.9180 C.2     1  UNL1        0.0540
      9  C          8.4120   -0.1910   -3.0350 C.2     1  UNL1        0.0510
     10  C          7.9280   -2.0350   -1.6040 C.2     1  UNL1        0.1660
     11  C          8.6280   -1.5170   -2.6710 C.2     1  UNL1        0.1650
     12  O          8.3140   -3.3490   -1.4460 O.2     1  UNL1       -0.4540
     13  O          9.4380   -2.5340   -3.1510 O.2     1  UNL1       -0.4540
     14  C          9.3380   -3.6850   -2.3470 C.3     1  UNL1        0.4680
@<TRIPOS>BOND
     1    13    11    1
     2    13    14    1
     3     9    11    2
     4     9     7    1
     5    11    10    1
     6     7     6    2
     7    14    12    1
     8    10    12    1
     9    10     8    2
    10     6     8    1
    11     6     5    1
    12     5     1    1
    13     1     2    1
    14     2     4    2
    15     2     3    1
