MODEL 1
REMARK VINA RESULT:      -7.7      0.000      0.000
REMARK SMILES CC(=O)CCc1ccc2c(c1)OCO2
REMARK SMILES IDX 4 1 2 2 1 3 3 4 5 5 6 6 7 7 11 8 8 9 10 10 9 11 12 12 14 13
REMARK SMILES IDX 13 14
REMARK H PARENT
REMARK Flexibility Score: inf
ROOT
ATOM      1  C   UNL     1       5.510   1.916   1.266  1.00  0.00     0.080 C 
ENDROOT
BRANCH   1   2
ATOM      2  C   UNL     1       5.071   0.700   2.005  1.00  0.00     0.130 C 
ATOM      3  C   UNL     1       5.963  -0.479   2.168  1.00  0.00     0.087 C 
ATOM      4  O   UNL     1       3.958   0.637   2.502  1.00  0.00    -0.300 OA
ENDBRANCH   1   2
BRANCH   1   5
ATOM      5  C   UNL     1       5.384   1.725  -0.233  1.00  0.00     0.043 C 
BRANCH   5   6
ATOM      6  C   UNL     1       6.554   1.025  -0.794  1.00  0.00    -0.044 A 
ATOM      7  C   UNL     1       7.859   1.461  -0.541  1.00  0.00     0.008 A 
ATOM      8  C   UNL     1       6.369  -0.086  -1.586  1.00  0.00     0.054 A 
ATOM      9  C   UNL     1       8.918   0.764  -1.094  1.00  0.00     0.051 A 
ATOM     10  C   UNL     1       7.443  -0.787  -2.142  1.00  0.00     0.166 A 
ATOM     11  C   UNL     1       8.728  -0.359  -1.894  1.00  0.00     0.165 A 
ATOM     12  O   UNL     1       7.520  -1.902  -2.950  1.00  0.00    -0.454 OA
ATOM     13  O   UNL     1       9.576  -1.229  -2.561  1.00  0.00    -0.454 OA
ATOM     14  C   UNL     1       8.856  -2.275  -3.168  1.00  0.00     0.468 C 
ENDBRANCH   5   6
ENDBRANCH   1   5
TORSDOF 3
ENDMDL
MODEL 2
REMARK VINA RESULT:      -7.4      1.925      2.381
REMARK SMILES CC(=O)CCc1ccc2c(c1)OCO2
REMARK SMILES IDX 4 1 2 2 1 3 3 4 5 5 6 6 7 7 11 8 8 9 10 10 9 11 12 12 14 13
REMARK SMILES IDX 13 14
REMARK H PARENT
REMARK Flexibility Score: inf
ROOT
ATOM      1  C   UNL     1       5.719   1.284  -0.286  1.00  0.00     0.080 C 
ENDROOT
BRANCH   1   2
ATOM      2  C   UNL     1       5.141   1.219   1.086  1.00  0.00     0.130 C 
ATOM      3  C   UNL     1       5.327   0.027   1.956  1.00  0.00     0.087 C 
ATOM      4  O   UNL     1       4.493   2.149   1.537  1.00  0.00    -0.300 OA
ENDBRANCH   1   2
BRANCH   1   5
ATOM      5  C   UNL     1       7.222   1.086  -0.260  1.00  0.00     0.043 C 
BRANCH   5   6
ATOM      6  C   UNL     1       7.615  -0.197  -0.869  1.00  0.00    -0.044 A 
ATOM      7  C   UNL     1       7.722  -0.347  -2.256  1.00  0.00     0.008 A 
ATOM      8  C   UNL     1       7.888  -1.279  -0.063  1.00  0.00     0.054 A 
ATOM      9  C   UNL     1       8.096  -1.575  -2.771  1.00  0.00     0.051 A 
ATOM     10  C   UNL     1       8.266  -2.518  -0.589  1.00  0.00     0.166 A 
ATOM     11  C   UNL     1       8.370  -2.668  -1.954  1.00  0.00     0.165 A 
ATOM     12  O   UNL     1       8.584  -3.728  -0.008  1.00  0.00    -0.454 OA
ATOM     13  O   UNL     1       8.756  -3.979  -2.185  1.00  0.00    -0.454 OA
ATOM     14  C   UNL     1       8.991  -4.660  -0.976  1.00  0.00     0.468 C 
ENDBRANCH   5   6
ENDBRANCH   1   5
TORSDOF 3
ENDMDL
MODEL 3
REMARK VINA RESULT:      -7.2      2.087      2.613
REMARK SMILES CC(=O)CCc1ccc2c(c1)OCO2
REMARK SMILES IDX 4 1 2 2 1 3 3 4 5 5 6 6 7 7 11 8 8 9 10 10 9 11 12 12 14 13
REMARK SMILES IDX 13 14
REMARK H PARENT
REMARK Flexibility Score: inf
ROOT
ATOM      1  C   UNL     1       5.631   0.060   1.950  1.00  0.00     0.080 C 
ENDROOT
BRANCH   1   2
ATOM      2  C   UNL     1       4.697   1.172   1.618  1.00  0.00     0.130 C 
ATOM      3  C   UNL     1       4.950   2.091   0.476  1.00  0.00     0.087 C 
ATOM      4  O   UNL     1       3.689   1.362   2.279  1.00  0.00    -0.300 OA
ENDBRANCH   1   2
BRANCH   1   5
ATOM      5  C   UNL     1       7.021   0.329   1.407  1.00  0.00     0.043 C 
BRANCH   5   6
ATOM      6  C   UNL     1       7.409  -0.658   0.384  1.00  0.00    -0.044 A 
ATOM      7  C   UNL     1       7.294  -0.380  -0.983  1.00  0.00     0.008 A 
ATOM      8  C   UNL     1       7.900  -1.884   0.771  1.00  0.00     0.054 A 
ATOM      9  C   UNL     1       7.674  -1.345  -1.898  1.00  0.00     0.051 A 
ATOM     10  C   UNL     1       8.284  -2.856  -0.158  1.00  0.00     0.166 A 
ATOM     11  C   UNL     1       8.170  -2.584  -1.503  1.00  0.00     0.165 A 
ATOM     12  O   UNL     1       8.792  -4.131  -0.028  1.00  0.00    -0.454 OA
ATOM     13  O   UNL     1       8.616  -3.709  -2.179  1.00  0.00    -0.454 OA
ATOM     14  C   UNL     1       9.105  -4.679  -1.283  1.00  0.00     0.468 C 
ENDBRANCH   5   6
ENDBRANCH   1   5
TORSDOF 3
ENDMDL
MODEL 4
REMARK VINA RESULT:      -7.1      1.248      1.459
REMARK SMILES CC(=O)CCc1ccc2c(c1)OCO2
REMARK SMILES IDX 4 1 2 2 1 3 3 4 5 5 6 6 7 7 11 8 8 9 10 10 9 11 12 12 14 13
REMARK SMILES IDX 13 14
REMARK H PARENT
REMARK Flexibility Score: inf
ROOT
ATOM      1  C   UNL     1       6.356   1.240   0.871  1.00  0.00     0.080 C 
ENDROOT
BRANCH   1   2
ATOM      2  C   UNL     1       5.665   0.429   1.912  1.00  0.00     0.130 C 
ATOM      3  C   UNL     1       6.281  -0.798   2.483  1.00  0.00     0.087 C 
ATOM      4  O   UNL     1       4.564   0.752   2.329  1.00  0.00    -0.300 OA
ENDBRANCH   1   2
BRANCH   1   5
ATOM      5  C   UNL     1       5.842   0.907  -0.516  1.00  0.00     0.043 C 
BRANCH   5   6
ATOM      6  C   UNL     1       6.807   0.093  -1.276  1.00  0.00    -0.044 A 
ATOM      7  C   UNL     1       7.519   0.620  -2.360  1.00  0.00     0.008 A 
ATOM      8  C   UNL     1       7.024  -1.218  -0.918  1.00  0.00     0.054 A 
ATOM      9  C   UNL     1       8.412  -0.191  -3.035  1.00  0.00     0.051 A 
ATOM     10  C   UNL     1       7.928  -2.035  -1.604  1.00  0.00     0.166 A 
ATOM     11  C   UNL     1       8.628  -1.517  -2.671  1.00  0.00     0.165 A 
ATOM     12  O   UNL     1       8.314  -3.349  -1.446  1.00  0.00    -0.454 OA
ATOM     13  O   UNL     1       9.438  -2.534  -3.151  1.00  0.00    -0.454 OA
ATOM     14  C   UNL     1       9.338  -3.685  -2.347  1.00  0.00     0.468 C 
ENDBRANCH   5   6
ENDBRANCH   1   5
TORSDOF 3
ENDMDL
MODEL 5
REMARK VINA RESULT:      -6.8      1.198      5.191
REMARK SMILES CC(=O)CCc1ccc2c(c1)OCO2
REMARK SMILES IDX 4 1 2 2 1 3 3 4 5 5 6 6 7 7 11 8 8 9 10 10 9 11 12 12 14 13
REMARK SMILES IDX 13 14
REMARK H PARENT
REMARK Flexibility Score: inf
ROOT
ATOM      1  C   UNL     1       8.247   0.249  -2.604  1.00  0.00     0.080 C 
ENDROOT
BRANCH   1   2
ATOM      2  C   UNL     1       7.957  -1.207  -2.715  1.00  0.00     0.130 C 
ATOM      3  C   UNL     1       9.028  -2.197  -3.005  1.00  0.00     0.087 C 
ATOM      4  O   UNL     1       6.822  -1.633  -2.572  1.00  0.00    -0.300 OA
ENDBRANCH   1   2
BRANCH   1   5
ATOM      5  C   UNL     1       8.755   0.605  -1.221  1.00  0.00     0.043 C 
BRANCH   5   6
ATOM      6  C   UNL     1       7.708   0.445  -0.196  1.00  0.00    -0.044 A 
ATOM      7  C   UNL     1       7.774  -0.570   0.766  1.00  0.00     0.008 A 
ATOM      8  C   UNL     1       6.637   1.308  -0.174  1.00  0.00     0.054 A 
ATOM      9  C   UNL     1       6.763  -0.671   1.704  1.00  0.00     0.051 A 
ATOM     10  C   UNL     1       5.617   1.202   0.777  1.00  0.00     0.166 A 
ATOM     11  C   UNL     1       5.681   0.203   1.723  1.00  0.00     0.165 A 
ATOM     12  O   UNL     1       4.466   1.925   1.005  1.00  0.00    -0.454 OA
ATOM     13  O   UNL     1       4.556   0.336   2.522  1.00  0.00    -0.454 OA
ATOM     14  C   UNL     1       3.805   1.470   2.158  1.00  0.00     0.468 C 
ENDBRANCH   5   6
ENDBRANCH   1   5
TORSDOF 3
ENDMDL
