@<TRIPOS>MOLECULE
/home/cewinharhar/GITHUB/reincatalyze/data/processed/docking_pred/2023-May-25-1902_sub9_nm5_bs15_s42_ex16_mel10_mts10000_k50_ec01_g099_lra3e-4_lrc3e-3/eb53456adf8787420c4e8f25112cf644d6bf88f9_ligand_9.pdbqt
 14 15 0 0 0
SMALL
GASTEIGER

@<TRIPOS>ATOM
      1  C          8.2470    0.2490   -2.6040 C.3     1  UNL1        0.0800
      2  C          7.9570   -1.2070   -2.7150 C.2     1  UNL1        0.1300
      3  C          9.0280   -2.1970   -3.0050 C.3     1  UNL1        0.0870
      4  O          6.8220   -1.6330   -2.5720 O.2     1  UNL1       -0.3000
      5  C          8.7550    0.6050   -1.2210 C.3     1  UNL1        0.0430
      6  C          7.7080    0.4450   -0.1960 C.2     1  UNL1       -0.0440
      7  C          7.7740   -0.5700    0.7660 C.2     1  UNL1        0.0080
      8  C          6.6370    1.3080   -0.1740 C.2     1  UNL1        0.0540
      9  C          6.7630   -0.6710    1.7040 C.2     1  UNL1        0.0510
     10  C          5.6170    1.2020    0.7770 C.2     1  UNL1        0.1660
     11  C          5.6810    0.2030    1.7230 C.2     1  UNL1        0.1650
     12  O          4.4660    1.9250    1.0050 O.2     1  UNL1       -0.4540
     13  O          4.5560    0.3360    2.5220 O.2     1  UNL1       -0.4540
     14  C          3.8050    1.4700    2.1580 C.3     1  UNL1        0.4680
@<TRIPOS>BOND
     1     3     2    1
     2     2     1    1
     3     2     4    2
     4     1     5    1
     5     5     6    1
     6     6     8    2
     7     6     7    1
     8     8    10    1
     9     7     9    2
    10    10    12    1
    11    10    11    2
    12    12    14    1
    13     9    11    1
    14    11    13    1
    15    14    13    1
