MODEL 1
REMARK VINA RESULT:      -7.6      0.000      0.000
REMARK SMILES CC(=O)CCc1ccc2c(c1)OCO2
REMARK SMILES IDX 4 1 2 2 1 3 3 4 5 5 6 6 7 7 11 8 8 9 10 10 9 11 12 12 14 13
REMARK SMILES IDX 13 14
REMARK H PARENT
REMARK Flexibility Score: inf
ROOT
ATOM      1  C   UNL     1       5.513   1.945   1.250  1.00  0.00     0.080 C 
ENDROOT
BRANCH   1   2
ATOM      2  C   UNL     1       5.098   0.730   2.005  1.00  0.00     0.130 C 
ATOM      3  C   UNL     1       6.014  -0.428   2.185  1.00  0.00     0.087 C 
ATOM      4  O   UNL     1       3.985   0.649   2.500  1.00  0.00    -0.300 OA
ENDBRANCH   1   2
BRANCH   1   5
ATOM      5  C   UNL     1       5.386   1.735  -0.246  1.00  0.00     0.043 C 
BRANCH   5   6
ATOM      6  C   UNL     1       6.559   1.035  -0.800  1.00  0.00    -0.044 A 
ATOM      7  C   UNL     1       7.864   1.468  -0.534  1.00  0.00     0.008 A 
ATOM      8  C   UNL     1       6.380  -0.072  -1.597  1.00  0.00     0.054 A 
ATOM      9  C   UNL     1       8.926   0.772  -1.081  1.00  0.00     0.051 A 
ATOM     10  C   UNL     1       7.457  -0.773  -2.147  1.00  0.00     0.166 A 
ATOM     11  C   UNL     1       8.741  -0.347  -1.887  1.00  0.00     0.165 A 
ATOM     12  O   UNL     1       7.539  -1.885  -2.958  1.00  0.00    -0.454 OA
ATOM     13  O   UNL     1       9.593  -1.216  -2.550  1.00  0.00    -0.454 OA
ATOM     14  C   UNL     1       8.877  -2.259  -3.167  1.00  0.00     0.468 C 
ENDBRANCH   5   6
ENDBRANCH   1   5
TORSDOF 3
ENDMDL
MODEL 2
REMARK VINA RESULT:      -7.4      1.928      2.387
REMARK SMILES CC(=O)CCc1ccc2c(c1)OCO2
REMARK SMILES IDX 4 1 2 2 1 3 3 4 5 5 6 6 7 7 11 8 8 9 10 10 9 11 12 12 14 13
REMARK SMILES IDX 13 14
REMARK H PARENT
REMARK Flexibility Score: inf
ROOT
ATOM      1  C   UNL     1       5.808   1.402  -0.253  1.00  0.00     0.080 C 
ENDROOT
BRANCH   1   2
ATOM      2  C   UNL     1       5.154   1.271   1.079  1.00  0.00     0.130 C 
ATOM      3  C   UNL     1       5.361   0.072   1.935  1.00  0.00     0.087 C 
ATOM      4  O   UNL     1       4.425   2.150   1.509  1.00  0.00    -0.300 OA
ENDBRANCH   1   2
BRANCH   1   5
ATOM      5  C   UNL     1       7.294   1.114  -0.168  1.00  0.00     0.043 C 
BRANCH   5   6
ATOM      6  C   UNL     1       7.638  -0.171  -0.802  1.00  0.00    -0.044 A 
ATOM      7  C   UNL     1       7.664  -0.319  -2.193  1.00  0.00     0.008 A 
ATOM      8  C   UNL     1       7.945  -1.258  -0.015  1.00  0.00     0.054 A 
ATOM      9  C   UNL     1       7.995  -1.549  -2.731  1.00  0.00     0.051 A 
ATOM     10  C   UNL     1       8.280  -2.500  -0.564  1.00  0.00     0.166 A 
ATOM     11  C   UNL     1       8.305  -2.646  -1.934  1.00  0.00     0.165 A 
ATOM     12  O   UNL     1       8.619  -3.714  -0.006  1.00  0.00    -0.454 OA
ATOM     13  O   UNL     1       8.663  -3.961  -2.190  1.00  0.00    -0.454 OA
ATOM     14  C   UNL     1       8.960  -4.648  -0.997  1.00  0.00     0.468 C 
ENDBRANCH   5   6
ENDBRANCH   1   5
TORSDOF 3
ENDMDL
MODEL 3
REMARK VINA RESULT:      -7.2      2.061      2.628
REMARK SMILES CC(=O)CCc1ccc2c(c1)OCO2
REMARK SMILES IDX 4 1 2 2 1 3 3 4 5 5 6 6 7 7 11 8 8 9 10 10 9 11 12 12 14 13
REMARK SMILES IDX 13 14
REMARK H PARENT
REMARK Flexibility Score: inf
ROOT
ATOM      1  C   UNL     1       5.457  -0.023   2.013  1.00  0.00     0.080 C 
ENDROOT
BRANCH   1   2
ATOM      2  C   UNL     1       4.578   1.154   1.767  1.00  0.00     0.130 C 
ATOM      3  C   UNL     1       4.883   2.147   0.703  1.00  0.00     0.087 C 
ATOM      4  O   UNL     1       3.575   1.338   2.437  1.00  0.00    -0.300 OA
ENDBRANCH   1   2
BRANCH   1   5
ATOM      5  C   UNL     1       6.876   0.244   1.553  1.00  0.00     0.043 C 
BRANCH   5   6
ATOM      6  C   UNL     1       7.297  -0.699   0.502  1.00  0.00    -0.044 A 
ATOM      7  C   UNL     1       7.167  -0.388  -0.856  1.00  0.00     0.008 A 
ATOM      8  C   UNL     1       7.834  -1.917   0.853  1.00  0.00     0.054 A 
ATOM      9  C   UNL     1       7.580  -1.313  -1.799  1.00  0.00     0.051 A 
ATOM     10  C   UNL     1       8.250  -2.848  -0.104  1.00  0.00     0.166 A 
ATOM     11  C   UNL     1       8.122  -2.543  -1.441  1.00  0.00     0.165 A 
ATOM     12  O   UNL     1       8.805  -4.106  -0.011  1.00  0.00    -0.454 OA
ATOM     13  O   UNL     1       8.607  -3.632  -2.148  1.00  0.00    -0.454 OA
ATOM     14  C   UNL     1       9.134  -4.607  -1.281  1.00  0.00     0.468 C 
ENDBRANCH   5   6
ENDBRANCH   1   5
TORSDOF 3
ENDMDL
MODEL 4
REMARK VINA RESULT:      -7.1      1.254      1.467
REMARK SMILES CC(=O)CCc1ccc2c(c1)OCO2
REMARK SMILES IDX 4 1 2 2 1 3 3 4 5 5 6 6 7 7 11 8 8 9 10 10 9 11 12 12 14 13
REMARK SMILES IDX 13 14
REMARK H PARENT
REMARK Flexibility Score: inf
ROOT
ATOM      1  C   UNL     1       6.371   1.239   0.907  1.00  0.00     0.080 C 
ENDROOT
BRANCH   1   2
ATOM      2  C   UNL     1       5.671   0.408   1.925  1.00  0.00     0.130 C 
ATOM      3  C   UNL     1       6.306  -0.799   2.520  1.00  0.00     0.087 C 
ATOM      4  O   UNL     1       4.547   0.695   2.304  1.00  0.00    -0.300 OA
ENDBRANCH   1   2
BRANCH   1   5
ATOM      5  C   UNL     1       5.865   0.940  -0.490  1.00  0.00     0.043 C 
BRANCH   5   6
ATOM      6  C   UNL     1       6.818   0.114  -1.253  1.00  0.00    -0.044 A 
ATOM      7  C   UNL     1       7.517   0.627  -2.352  1.00  0.00     0.008 A 
ATOM      8  C   UNL     1       7.037  -1.193  -0.882  1.00  0.00     0.054 A 
ATOM      9  C   UNL     1       8.400  -0.194  -3.028  1.00  0.00     0.051 A 
ATOM     10  C   UNL     1       7.932  -2.019  -1.569  1.00  0.00     0.166 A 
ATOM     11  C   UNL     1       8.618  -1.516  -2.651  1.00  0.00     0.165 A 
ATOM     12  O   UNL     1       8.317  -3.332  -1.400  1.00  0.00    -0.454 OA
ATOM     13  O   UNL     1       9.420  -2.540  -3.129  1.00  0.00    -0.454 OA
ATOM     14  C   UNL     1       9.329  -3.682  -2.310  1.00  0.00     0.468 C 
ENDBRANCH   5   6
ENDBRANCH   1   5
TORSDOF 3
ENDMDL
MODEL 5
REMARK VINA RESULT:      -6.8      1.254      1.754
REMARK SMILES CC(=O)CCc1ccc2c(c1)OCO2
REMARK SMILES IDX 4 1 2 2 1 3 3 4 5 5 6 6 7 7 11 8 8 9 10 10 9 11 12 12 14 13
REMARK SMILES IDX 13 14
REMARK H PARENT
REMARK Flexibility Score: inf
ROOT
ATOM      1  C   UNL     1       5.312  -0.084   1.937  1.00  0.00     0.080 C 
ENDROOT
BRANCH   1   2
ATOM      2  C   UNL     1       4.438   1.112   1.774  1.00  0.00     0.130 C 
ATOM      3  C   UNL     1       4.720   2.150   0.746  1.00  0.00     0.087 C 
ATOM      4  O   UNL     1       3.460   1.275   2.484  1.00  0.00    -0.300 OA
ENDBRANCH   1   2
BRANCH   1   5
ATOM      5  C   UNL     1       6.779   0.296   1.892  1.00  0.00     0.043 C 
BRANCH   5   6
ATOM      6  C   UNL     1       7.393  -0.051   0.598  1.00  0.00    -0.044 A 
ATOM      7  C   UNL     1       7.903   0.931  -0.258  1.00  0.00     0.008 A 
ATOM      8  C   UNL     1       7.475  -1.370   0.214  1.00  0.00     0.054 A 
ATOM      9  C   UNL     1       8.470   0.546  -1.460  1.00  0.00     0.051 A 
ATOM     10  C   UNL     1       8.049  -1.755  -1.001  1.00  0.00     0.166 A 
ATOM     11  C   UNL     1       8.550  -0.789  -1.845  1.00  0.00     0.165 A 
ATOM     12  O   UNL     1       8.246  -2.981  -1.601  1.00  0.00    -0.454 OA
ATOM     13  O   UNL     1       9.050  -1.448  -2.957  1.00  0.00    -0.454 OA
ATOM     14  C   UNL     1       8.960  -2.845  -2.803  1.00  0.00     0.468 C 
ENDBRANCH   5   6
ENDBRANCH   1   5
TORSDOF 3
ENDMDL
