@<TRIPOS>MOLECULE
/home/cewinharhar/GITHUB/reincatalyze/data/processed/docking_pred/2023-May-25-1902_sub9_nm5_bs15_s42_ex16_mel10_mts10000_k50_ec01_g099_lra3e-4_lrc3e-3/eb9358f7bad4db9539b7d0967c6d7dee777b6146_ligand_9.pdbqt
 14 15 0 0 0
SMALL
GASTEIGER

@<TRIPOS>ATOM
      1  C          5.4570   -0.0230    2.0130 C.3     1  UNL1        0.0800
      2  C          4.5780    1.1540    1.7670 C.2     1  UNL1        0.1300
      3  C          4.8830    2.1470    0.7030 C.3     1  UNL1        0.0870
      4  O          3.5750    1.3380    2.4370 O.2     1  UNL1       -0.3000
      5  C          6.8760    0.2440    1.5530 C.3     1  UNL1        0.0430
      6  C          7.2970   -0.6990    0.5020 C.2     1  UNL1       -0.0440
      7  C          7.1670   -0.3880   -0.8560 C.2     1  UNL1        0.0080
      8  C          7.8340   -1.9170    0.8530 C.2     1  UNL1        0.0540
      9  C          7.5800   -1.3130   -1.7990 C.2     1  UNL1        0.0510
     10  C          8.2500   -2.8480   -0.1040 C.2     1  UNL1        0.1660
     11  C          8.1220   -2.5430   -1.4410 C.2     1  UNL1        0.1650
     12  O          8.8050   -4.1060   -0.0110 O.2     1  UNL1       -0.4540
     13  O          8.6070   -3.6320   -2.1480 O.2     1  UNL1       -0.4540
     14  C          9.1340   -4.6070   -1.2810 C.3     1  UNL1        0.4680
@<TRIPOS>BOND
     1    13    11    1
     2    13    14    1
     3     9    11    2
     4     9     7    1
     5    11    10    1
     6    14    12    1
     7     7     6    2
     8    10    12    1
     9    10     8    2
    10     6     8    1
    11     6     5    1
    12     3     2    1
    13     5     1    1
    14     2     1    1
    15     2     4    2
