@<TRIPOS>MOLECULE
/home/cewinharhar/GITHUB/reincatalyze/data/processed/docking_pred/2023-May-25-1902_sub9_nm5_bs15_s42_ex16_mel10_mts10000_k50_ec01_g099_lra3e-4_lrc3e-3/eb9358f7bad4db9539b7d0967c6d7dee777b6146_ligand_9.pdbqt
 14 15 0 0 0
SMALL
GASTEIGER

@<TRIPOS>ATOM
      1  C          5.5130    1.9450    1.2500 C.3     1  UNL1        0.0800
      2  C          5.0980    0.7300    2.0050 C.2     1  UNL1        0.1300
      3  C          6.0140   -0.4280    2.1850 C.3     1  UNL1        0.0870
      4  O          3.9850    0.6490    2.5000 O.2     1  UNL1       -0.3000
      5  C          5.3860    1.7350   -0.2460 C.3     1  UNL1        0.0430
      6  C          6.5590    1.0350   -0.8000 C.2     1  UNL1       -0.0440
      7  C          7.8640    1.4680   -0.5340 C.2     1  UNL1        0.0080
      8  C          6.3800   -0.0720   -1.5970 C.2     1  UNL1        0.0540
      9  C          8.9260    0.7720   -1.0810 C.2     1  UNL1        0.0510
     10  C          7.4570   -0.7730   -2.1470 C.2     1  UNL1        0.1660
     11  C          8.7410   -0.3470   -1.8870 C.2     1  UNL1        0.1650
     12  O          7.5390   -1.8850   -2.9580 O.2     1  UNL1       -0.4540
     13  O          9.5930   -1.2160   -2.5500 O.2     1  UNL1       -0.4540
     14  C          8.8770   -2.2590   -3.1670 C.3     1  UNL1        0.4680
@<TRIPOS>BOND
     1    14    12    1
     2    14    13    1
     3    12    10    1
     4    13    11    1
     5    10    11    2
     6    10     8    1
     7    11     9    1
     8     8     6    2
     9     9     7    2
    10     6     7    1
    11     6     5    1
    12     5     1    1
    13     1     2    1
    14     2     3    1
    15     2     4    2
