@<TRIPOS>MOLECULE
/home/cewinharhar/GITHUB/reincatalyze/data/processed/docking_pred/2023-May-25-1902_sub9_nm5_bs15_s42_ex16_mel10_mts10000_k50_ec01_g099_lra3e-4_lrc3e-3/f1acaff2cf7a86b9bbc999bfeecc6491fc2a0881_ligand_9.pdbqt
 14 15 0 0 0
SMALL
GASTEIGER

@<TRIPOS>ATOM
      1  C          5.5460    1.9210    1.2660 C.3     1  UNL1        0.0800
      2  C          5.1140    0.7080    2.0150 C.2     1  UNL1        0.1300
      3  C          6.0180   -0.4590    2.2000 C.3     1  UNL1        0.0870
      4  O          3.9970    0.6370    2.5010 O.2     1  UNL1       -0.3000
      5  C          5.4110    1.7220   -0.2300 C.3     1  UNL1        0.0430
      6  C          6.5780    1.0210   -0.7950 C.2     1  UNL1       -0.0440
      7  C          7.8850    1.4540   -0.5440 C.2     1  UNL1        0.0080
      8  C          6.3900   -0.0880   -1.5890 C.2     1  UNL1        0.0540
      9  C          8.9420    0.7570   -1.1010 C.2     1  UNL1        0.0510
     10  C          7.4620   -0.7900   -2.1490 C.2     1  UNL1        0.1660
     11  C          8.7480   -0.3640   -1.9030 C.2     1  UNL1        0.1650
     12  O          7.5350   -1.9030   -2.9590 O.2     1  UNL1       -0.4540
     13  O          9.5930   -1.2340   -2.5740 O.2     1  UNL1       -0.4540
     14  C          8.8700   -2.2780   -3.1810 C.3     1  UNL1        0.4680
@<TRIPOS>BOND
     1    14    12    1
     2    14    13    1
     3    12    10    1
     4    13    11    1
     5    10    11    2
     6    10     8    1
     7    11     9    1
     8     8     6    2
     9     9     7    2
    10     6     7    1
    11     6     5    1
    12     5     1    1
    13     1     2    1
    14     2     3    1
    15     2     4    2
