@<TRIPOS>MOLECULE
/home/cewinharhar/GITHUB/reincatalyze/data/processed/docking_pred/2023-May-25-1902_sub9_nm5_bs15_s42_ex16_mel10_mts10000_k50_ec01_g099_lra3e-4_lrc3e-3/f1acaff2cf7a86b9bbc999bfeecc6491fc2a0881_ligand_9.pdbqt
 14 15 0 0 0
SMALL
GASTEIGER

@<TRIPOS>ATOM
      1  C          5.9290    1.5280   -0.3490 C.3     1  UNL1        0.0800
      2  C          5.2200    1.3840    0.9530 C.2     1  UNL1        0.1300
      3  C          5.5720    0.3100    1.9190 C.3     1  UNL1        0.0870
      4  O          4.3230    2.1500    1.2660 O.2     1  UNL1       -0.3000
      5  C          7.4000    1.1850   -0.2160 C.3     1  UNL1        0.0430
      6  C          7.7170   -0.1130   -0.8380 C.2     1  UNL1       -0.0440
      7  C          7.7410   -0.2730   -2.2290 C.2     1  UNL1        0.0080
      8  C          8.0000   -1.1990   -0.0430 C.2     1  UNL1        0.0540
      9  C          8.0460   -1.5140   -2.7560 C.2     1  UNL1        0.0510
     10  C          8.3080   -2.4520   -0.5810 C.2     1  UNL1        0.1660
     11  C          8.3310   -2.6110   -1.9490 C.2     1  UNL1        0.1650
     12  O          8.6200   -3.6690   -0.0110 O.2     1  UNL1       -0.4540
     13  O          8.6610   -3.9350   -2.1930 O.2     1  UNL1       -0.4540
     14  C          8.9420   -4.6180   -0.9950 C.3     1  UNL1        0.4680
@<TRIPOS>BOND
     1     9     7    1
     2     9    11    2
     3     7     6    2
     4    13    11    1
     5    13    14    1
     6    11    10    1
     7    14    12    1
     8     6     5    1
     9     6     8    1
    10    10     8    2
    11    10    12    1
    12     1     5    1
    13     1     2    1
    14     2     4    2
    15     2     3    1
