@<TRIPOS>MOLECULE
/home/cewinharhar/GITHUB/reincatalyze/data/processed/docking_pred/2023-May-25-1902_sub9_nm5_bs15_s42_ex16_mel10_mts10000_k50_ec01_g099_lra3e-4_lrc3e-3/f338baa35ded8d3cb3d8a5b9e0cebf8a24c11f6d_ligand_9.pdbqt
 14 15 0 0 0
SMALL
GASTEIGER

@<TRIPOS>ATOM
      1  C          5.5410    1.9080    1.2750 C.3     1  UNL1        0.0800
      2  C          5.0910    0.6920    2.0090 C.2     1  UNL1        0.1300
      3  C          5.9770   -0.4900    2.1780 C.3     1  UNL1        0.0870
      4  O          3.9740    0.6310    2.4950 O.2     1  UNL1       -0.3000
      5  C          5.4110    1.7270   -0.2240 C.3     1  UNL1        0.0430
      6  C          6.5760    1.0270   -0.7930 C.2     1  UNL1       -0.0440
      7  C          7.8840    1.4610   -0.5480 C.2     1  UNL1        0.0080
      8  C          6.3850   -0.0840   -1.5840 C.2     1  UNL1        0.0540
      9  C          8.9380    0.7640   -1.1090 C.2     1  UNL1        0.0510
     10  C          7.4550   -0.7860   -2.1470 C.2     1  UNL1        0.1660
     11  C          8.7420   -0.3580   -1.9080 C.2     1  UNL1        0.1650
     12  O          7.5260   -1.9000   -2.9560 O.2     1  UNL1       -0.4540
     13  O          9.5850   -1.2290   -2.5810 O.2     1  UNL1       -0.4540
     14  C          8.8610   -2.2740   -3.1840 C.3     1  UNL1        0.4680
@<TRIPOS>BOND
     1    14    12    1
     2    14    13    1
     3    12    10    1
     4    13    11    1
     5    10    11    2
     6    10     8    1
     7    11     9    1
     8     8     6    2
     9     9     7    2
    10     6     7    1
    11     6     5    1
    12     5     1    1
    13     1     2    1
    14     2     3    1
    15     2     4    2
