@<TRIPOS>MOLECULE
/home/cewinharhar/GITHUB/reincatalyze/data/processed/docking_pred/2023-May-25-1902_sub9_nm5_bs15_s42_ex16_mel10_mts10000_k50_ec01_g099_lra3e-4_lrc3e-3/f338baa35ded8d3cb3d8a5b9e0cebf8a24c11f6d_ligand_9.pdbqt
 14 15 0 0 0
SMALL
GASTEIGER

@<TRIPOS>ATOM
      1  C          5.3530   -0.0920    1.9710 C.3     1  UNL1        0.0800
      2  C          4.4770    1.0980    1.7900 C.2     1  UNL1        0.1300
      3  C          4.7720    2.1360    0.7660 C.3     1  UNL1        0.0870
      4  O          3.4840    1.2570    2.4820 O.2     1  UNL1       -0.3000
      5  C          6.8190    0.2870    1.9010 C.3     1  UNL1        0.0430
      6  C          7.4140   -0.0690    0.6010 C.2     1  UNL1       -0.0440
      7  C          7.9130    0.9070   -0.2690 C.2     1  UNL1        0.0080
      8  C          7.4890   -1.3910    0.2240 C.2     1  UNL1        0.0540
      9  C          8.4610    0.5130   -1.4760 C.2     1  UNL1        0.0510
     10  C          8.0440   -1.7840   -0.9980 C.2     1  UNL1        0.1660
     11  C          8.5340   -0.8240   -1.8550 C.2     1  UNL1        0.1650
     12  O          8.2300   -3.0130   -1.5930 O.2     1  UNL1       -0.4540
     13  O          9.0170   -1.4910   -2.9700 O.2     1  UNL1       -0.4540
     14  C          8.9270   -2.8860   -2.8060 C.3     1  UNL1        0.4680
@<TRIPOS>BOND
     1    13    14    1
     2    13    11    1
     3    14    12    1
     4    11     9    2
     5    11    10    1
     6    12    10    1
     7     9     7    1
     8    10     8    2
     9     7     6    2
    10     8     6    1
    11     6     5    1
    12     3     2    1
    13     2     1    1
    14     2     4    2
    15     5     1    1
