MODEL 1
REMARK VINA RESULT:      -7.6      0.000      0.000
REMARK SMILES CC(=O)CCc1ccc2c(c1)OCO2
REMARK SMILES IDX 4 1 2 2 1 3 3 4 5 5 6 6 7 7 11 8 8 9 10 10 9 11 12 12 14 13
REMARK SMILES IDX 13 14
REMARK H PARENT
REMARK Flexibility Score: inf
ROOT
ATOM      1  C   UNL     1       5.541   1.908   1.275  1.00  0.00     0.080 C 
ENDROOT
BRANCH   1   2
ATOM      2  C   UNL     1       5.091   0.692   2.009  1.00  0.00     0.130 C 
ATOM      3  C   UNL     1       5.977  -0.490   2.178  1.00  0.00     0.087 C 
ATOM      4  O   UNL     1       3.974   0.631   2.495  1.00  0.00    -0.300 OA
ENDBRANCH   1   2
BRANCH   1   5
ATOM      5  C   UNL     1       5.411   1.727  -0.224  1.00  0.00     0.043 C 
BRANCH   5   6
ATOM      6  C   UNL     1       6.576   1.027  -0.793  1.00  0.00    -0.044 A 
ATOM      7  C   UNL     1       7.884   1.461  -0.548  1.00  0.00     0.008 A 
ATOM      8  C   UNL     1       6.385  -0.084  -1.584  1.00  0.00     0.054 A 
ATOM      9  C   UNL     1       8.938   0.764  -1.109  1.00  0.00     0.051 A 
ATOM     10  C   UNL     1       7.455  -0.786  -2.147  1.00  0.00     0.166 A 
ATOM     11  C   UNL     1       8.742  -0.358  -1.908  1.00  0.00     0.165 A 
ATOM     12  O   UNL     1       7.526  -1.900  -2.956  1.00  0.00    -0.454 OA
ATOM     13  O   UNL     1       9.585  -1.229  -2.581  1.00  0.00    -0.454 OA
ATOM     14  C   UNL     1       8.861  -2.274  -3.184  1.00  0.00     0.468 C 
ENDBRANCH   5   6
ENDBRANCH   1   5
TORSDOF 3
ENDMDL
MODEL 2
REMARK VINA RESULT:      -7.5      1.935      2.394
REMARK SMILES CC(=O)CCc1ccc2c(c1)OCO2
REMARK SMILES IDX 4 1 2 2 1 3 3 4 5 5 6 6 7 7 11 8 8 9 10 10 9 11 12 12 14 13
REMARK SMILES IDX 13 14
REMARK H PARENT
REMARK Flexibility Score: inf
ROOT
ATOM      1  C   UNL     1       5.749   1.371  -0.345  1.00  0.00     0.080 C 
ENDROOT
BRANCH   1   2
ATOM      2  C   UNL     1       5.121   1.289   1.003  1.00  0.00     0.130 C 
ATOM      3  C   UNL     1       5.439   0.184   1.947  1.00  0.00     0.087 C 
ATOM      4  O   UNL     1       4.322   2.133   1.375  1.00  0.00    -0.300 OA
ENDBRANCH   1   2
BRANCH   1   5
ATOM      5  C   UNL     1       7.244   1.129  -0.272  1.00  0.00     0.043 C 
BRANCH   5   6
ATOM      6  C   UNL     1       7.617  -0.167  -0.866  1.00  0.00    -0.044 A 
ATOM      7  C   UNL     1       7.696  -0.342  -2.253  1.00  0.00     0.008 A 
ATOM      8  C   UNL     1       7.901  -1.236  -0.047  1.00  0.00     0.054 A 
ATOM      9  C   UNL     1       8.052  -1.581  -2.753  1.00  0.00     0.051 A 
ATOM     10  C   UNL     1       8.262  -2.486  -0.558  1.00  0.00     0.166 A 
ATOM     11  C   UNL     1       8.338  -2.660  -1.922  1.00  0.00     0.165 A 
ATOM     12  O   UNL     1       8.586  -3.687   0.038  1.00  0.00    -0.454 OA
ATOM     13  O   UNL     1       8.712  -3.978  -2.138  1.00  0.00    -0.454 OA
ATOM     14  C   UNL     1       8.968  -4.639  -0.922  1.00  0.00     0.468 C 
ENDBRANCH   5   6
ENDBRANCH   1   5
TORSDOF 3
ENDMDL
MODEL 3
REMARK VINA RESULT:      -7.2      2.058      2.603
REMARK SMILES CC(=O)CCc1ccc2c(c1)OCO2
REMARK SMILES IDX 4 1 2 2 1 3 3 4 5 5 6 6 7 7 11 8 8 9 10 10 9 11 12 12 14 13
REMARK SMILES IDX 13 14
REMARK H PARENT
REMARK Flexibility Score: inf
ROOT
ATOM      1  C   UNL     1       5.504   0.001   1.986  1.00  0.00     0.080 C 
ENDROOT
BRANCH   1   2
ATOM      2  C   UNL     1       4.614   1.168   1.733  1.00  0.00     0.130 C 
ATOM      3  C   UNL     1       4.896   2.145   0.648  1.00  0.00     0.087 C 
ATOM      4  O   UNL     1       3.620   1.357   2.416  1.00  0.00    -0.300 OA
ENDBRANCH   1   2
BRANCH   1   5
ATOM      5  C   UNL     1       6.916   0.271   1.504  1.00  0.00     0.043 C 
BRANCH   5   6
ATOM      6  C   UNL     1       7.326  -0.679   0.455  1.00  0.00    -0.044 A 
ATOM      7  C   UNL     1       7.199  -0.370  -0.904  1.00  0.00     0.008 A 
ATOM      8  C   UNL     1       7.851  -1.901   0.808  1.00  0.00     0.054 A 
ATOM      9  C   UNL     1       7.601  -1.301  -1.845  1.00  0.00     0.051 A 
ATOM     10  C   UNL     1       8.257  -2.839  -0.146  1.00  0.00     0.166 A 
ATOM     11  C   UNL     1       8.131  -2.536  -1.484  1.00  0.00     0.165 A 
ATOM     12  O   UNL     1       8.800  -4.102  -0.050  1.00  0.00    -0.454 OA
ATOM     13  O   UNL     1       8.605  -3.631  -2.189  1.00  0.00    -0.454 OA
ATOM     14  C   UNL     1       9.123  -4.610  -1.320  1.00  0.00     0.468 C 
ENDBRANCH   5   6
ENDBRANCH   1   5
TORSDOF 3
ENDMDL
MODEL 4
REMARK VINA RESULT:      -7.1      1.249      1.451
REMARK SMILES CC(=O)CCc1ccc2c(c1)OCO2
REMARK SMILES IDX 4 1 2 2 1 3 3 4 5 5 6 6 7 7 11 8 8 9 10 10 9 11 12 12 14 13
REMARK SMILES IDX 13 14
REMARK H PARENT
REMARK Flexibility Score: inf
ROOT
ATOM      1  C   UNL     1       6.373   1.255   0.904  1.00  0.00     0.080 C 
ENDROOT
BRANCH   1   2
ATOM      2  C   UNL     1       5.674   0.414   1.916  1.00  0.00     0.130 C 
ATOM      3  C   UNL     1       6.319  -0.783   2.517  1.00  0.00     0.087 C 
ATOM      4  O   UNL     1       4.542   0.686   2.282  1.00  0.00    -0.300 OA
ENDBRANCH   1   2
BRANCH   1   5
ATOM      5  C   UNL     1       5.873   0.961  -0.496  1.00  0.00     0.043 C 
BRANCH   5   6
ATOM      6  C   UNL     1       6.824   0.127  -1.252  1.00  0.00    -0.044 A 
ATOM      7  C   UNL     1       7.531   0.633  -2.350  1.00  0.00     0.008 A 
ATOM      8  C   UNL     1       7.032  -1.181  -0.878  1.00  0.00     0.054 A 
ATOM      9  C   UNL     1       8.411  -0.196  -3.021  1.00  0.00     0.051 A 
ATOM     10  C   UNL     1       7.924  -2.015  -1.559  1.00  0.00     0.166 A 
ATOM     11  C   UNL     1       8.619  -1.518  -2.640  1.00  0.00     0.165 A 
ATOM     12  O   UNL     1       8.299  -3.330  -1.386  1.00  0.00    -0.454 OA
ATOM     13  O   UNL     1       9.416  -2.549  -3.112  1.00  0.00    -0.454 OA
ATOM     14  C   UNL     1       9.312  -3.688  -2.291  1.00  0.00     0.468 C 
ENDBRANCH   5   6
ENDBRANCH   1   5
TORSDOF 3
ENDMDL
MODEL 5
REMARK VINA RESULT:      -6.8      1.263      1.754
REMARK SMILES CC(=O)CCc1ccc2c(c1)OCO2
REMARK SMILES IDX 4 1 2 2 1 3 3 4 5 5 6 6 7 7 11 8 8 9 10 10 9 11 12 12 14 13
REMARK SMILES IDX 13 14
REMARK H PARENT
REMARK Flexibility Score: inf
ROOT
ATOM      1  C   UNL     1       5.353  -0.092   1.971  1.00  0.00     0.080 C 
ENDROOT
BRANCH   1   2
ATOM      2  C   UNL     1       4.477   1.098   1.790  1.00  0.00     0.130 C 
ATOM      3  C   UNL     1       4.772   2.136   0.766  1.00  0.00     0.087 C 
ATOM      4  O   UNL     1       3.484   1.257   2.482  1.00  0.00    -0.300 OA
ENDBRANCH   1   2
BRANCH   1   5
ATOM      5  C   UNL     1       6.819   0.287   1.901  1.00  0.00     0.043 C 
BRANCH   5   6
ATOM      6  C   UNL     1       7.414  -0.069   0.601  1.00  0.00    -0.044 A 
ATOM      7  C   UNL     1       7.913   0.907  -0.269  1.00  0.00     0.008 A 
ATOM      8  C   UNL     1       7.489  -1.391   0.224  1.00  0.00     0.054 A 
ATOM      9  C   UNL     1       8.461   0.513  -1.476  1.00  0.00     0.051 A 
ATOM     10  C   UNL     1       8.044  -1.784  -0.998  1.00  0.00     0.166 A 
ATOM     11  C   UNL     1       8.534  -0.824  -1.855  1.00  0.00     0.165 A 
ATOM     12  O   UNL     1       8.230  -3.013  -1.593  1.00  0.00    -0.454 OA
ATOM     13  O   UNL     1       9.017  -1.491  -2.970  1.00  0.00    -0.454 OA
ATOM     14  C   UNL     1       8.927  -2.886  -2.806  1.00  0.00     0.468 C 
ENDBRANCH   5   6
ENDBRANCH   1   5
TORSDOF 3
ENDMDL
