@<TRIPOS>MOLECULE
/home/cewinharhar/GITHUB/reincatalyze/data/processed/docking_pred/2023-May-25-1902_sub9_nm5_bs15_s42_ex16_mel10_mts10000_k50_ec01_g099_lra3e-4_lrc3e-3/f43d8cd6194682d8f3e5600fbc578d0750565092_ligand_9.pdbqt
 14 15 0 0 0
SMALL
GASTEIGER

@<TRIPOS>ATOM
      1  C          5.6700    1.2270   -0.2880 C.3     1  UNL1        0.0800
      2  C          5.1660    1.1000    1.1080 C.2     1  UNL1        0.1300
      3  C          5.5520   -0.0440    1.9770 C.3     1  UNL1        0.0870
      4  O          4.4160    1.9380    1.5820 O.2     1  UNL1       -0.3000
      5  C          7.1510    1.5490   -0.3120 C.3     1  UNL1        0.0430
      6  C          7.9340    0.4710   -0.9420 C.2     1  UNL1       -0.0440
      7  C          9.3020    0.3150   -0.6890 C.2     1  UNL1        0.0080
      8  C          7.3160   -0.4090   -1.8000 C.2     1  UNL1        0.0540
      9  C          9.9860   -0.7150   -1.3090 C.2     1  UNL1        0.0510
     10  C          8.0110   -1.4500   -2.4240 C.2     1  UNL1        0.1660
     11  C          9.3570   -1.6040   -2.1760 C.2     1  UNL1        0.1650
     12  O          7.6300   -2.4400   -3.3040 O.2     1  UNL1       -0.4540
     13  O          9.7790   -2.6970   -2.9160 O.2     1  UNL1       -0.4540
     14  C          8.6970   -3.3120   -3.5750 C.3     1  UNL1        0.4680
@<TRIPOS>BOND
     1    14    12    1
     2    14    13    1
     3    12    10    1
     4    13    11    1
     5    10    11    2
     6    10     8    1
     7    11     9    1
     8     8     6    2
     9     9     7    2
    10     6     7    1
    11     6     5    1
    12     5     1    1
    13     1     2    1
    14     2     4    2
    15     2     3    1
