@<TRIPOS>MOLECULE
/home/cewinharhar/GITHUB/reincatalyze/data/processed/docking_pred/2023-May-25-1902_sub9_nm5_bs15_s42_ex16_mel10_mts10000_k50_ec01_g099_lra3e-4_lrc3e-3/f43d8cd6194682d8f3e5600fbc578d0750565092_ligand_9.pdbqt
 14 15 0 0 0
SMALL
GASTEIGER

@<TRIPOS>ATOM
      1  C          5.9740    1.5190    0.9110 C.3     1  UNL1        0.0800
      2  C          5.4410    0.5130    1.8720 C.2     1  UNL1        0.1300
      3  C          6.2080   -0.7110    2.2270 C.3     1  UNL1        0.0870
      4  O          4.3500    0.6660    2.3980 O.2     1  UNL1       -0.3000
      5  C          5.8080    1.0540   -0.5220 C.3     1  UNL1        0.0430
      6  C          7.0060    0.3450   -1.0080 C.2     1  UNL1       -0.0440
      7  C          8.2930    0.8560   -0.8040 C.2     1  UNL1        0.0080
      8  C          6.8670   -0.8500   -1.6770 C.2     1  UNL1        0.0540
      9  C          9.3790    0.1460   -1.2820 C.2     1  UNL1        0.0510
     10  C          7.9690   -1.5630   -2.1580 C.2     1  UNL1        0.1660
     11  C          9.2350   -1.0610   -1.9590 C.2     1  UNL1        0.1650
     12  O          8.0910   -2.7530   -2.8430 O.2     1  UNL1       -0.4540
     13  O         10.1190   -1.9630   -2.5310 O.2     1  UNL1       -0.4540
     14  C          9.4410   -3.0950   -3.0230 C.3     1  UNL1        0.4680
@<TRIPOS>BOND
     1    14    12    1
     2    14    13    1
     3    12    10    1
     4    13    11    1
     5    10    11    2
     6    10     8    1
     7    11     9    1
     8     8     6    2
     9     9     7    2
    10     6     7    1
    11     6     5    1
    12     5     1    1
    13     1     2    1
    14     2     3    1
    15     2     4    2
