@<TRIPOS>MOLECULE
/home/cewinharhar/GITHUB/reincatalyze/data/processed/docking_pred/2023-May-25-1902_sub9_nm5_bs15_s42_ex16_mel10_mts10000_k50_ec01_g099_lra3e-4_lrc3e-3/f43d8cd6194682d8f3e5600fbc578d0750565092_ligand_9.pdbqt
 14 15 0 0 0
SMALL
GASTEIGER

@<TRIPOS>ATOM
      1  C          5.8490    1.2110   -0.2860 C.3     1  UNL1        0.0800
      2  C          5.2840    1.0710    1.0850 C.2     1  UNL1        0.1300
      3  C          5.6180   -0.0900    1.9520 C.3     1  UNL1        0.0870
      4  O          4.5240    1.9110    1.5380 O.2     1  UNL1       -0.3000
      5  C          7.3560    1.3750   -0.2460 C.3     1  UNL1        0.0430
      6  C          8.0420    0.3090   -0.9990 C.2     1  UNL1       -0.0440
      7  C          7.6610   -0.0280   -2.3030 C.2     1  UNL1        0.0080
      8  C          9.0840   -0.3750   -0.4160 C.2     1  UNL1        0.0540
      9  C          8.3420   -1.0370   -2.9600 C.2     1  UNL1        0.0510
     10  C          9.7690   -1.3930   -1.0850 C.2     1  UNL1        0.1660
     11  C          9.3950   -1.7270   -2.3680 C.2     1  UNL1        0.1650
     12  O         10.8210   -2.2100   -0.7290 O.2     1  UNL1       -0.4540
     13  O         10.2340   -2.7520   -2.7770 O.2     1  UNL1       -0.4540
     14  C         11.2120   -3.0270   -1.8020 C.3     1  UNL1        0.4680
@<TRIPOS>BOND
     1     9    11    2
     2     9     7    1
     3    13    11    1
     4    13    14    1
     5    11    10    1
     6     7     6    2
     7    14    12    1
     8    10    12    1
     9    10     8    2
    10     6     8    1
    11     6     5    1
    12     1     5    1
    13     1     2    1
    14     2     4    2
    15     2     3    1
