@<TRIPOS>MOLECULE
/home/cewinharhar/GITHUB/reincatalyze/data/processed/docking_pred/2023-May-25-1902_sub9_nm5_bs15_s42_ex16_mel10_mts10000_k50_ec01_g099_lra3e-4_lrc3e-3/f56adf6440abdf94ed5aca5eaefea0329b307251_ligand_9.pdbqt
 14 15 0 0 0
SMALL
GASTEIGER

@<TRIPOS>ATOM
      1  C          6.2480    1.3360    1.1300 C.3     1  UNL1        0.0800
      2  C          5.6340    0.2640    1.9630 C.2     1  UNL1        0.1300
      3  C          6.3370   -1.0200    2.2250 C.3     1  UNL1        0.0870
      4  O          4.5280    0.4110    2.4570 O.2     1  UNL1       -0.3000
      5  C          5.8940    1.1660   -0.3340 C.3     1  UNL1        0.0430
      6  C          6.9650    0.4800   -1.0790 C.2     1  UNL1       -0.0440
      7  C          8.2740    0.9730   -1.1010 C.2     1  UNL1        0.0080
      8  C          6.6820   -0.6760   -1.7710 C.2     1  UNL1        0.0540
      9  C          9.2380    0.2870   -1.8170 C.2     1  UNL1        0.0510
     10  C          7.6600   -1.3670   -2.4930 C.2     1  UNL1        0.1660
     11  C          8.9490   -0.8810   -2.5160 C.2     1  UNL1        0.1650
     12  O          7.6310   -2.5180   -3.2510 O.2     1  UNL1       -0.4540
     13  O          9.6920   -1.7540   -3.2960 O.2     1  UNL1       -0.4540
     14  C          8.9160   -2.8550   -3.7070 C.3     1  UNL1        0.4680
@<TRIPOS>BOND
     1    14    13    1
     2    14    12    1
     3    13    11    1
     4    12    10    1
     5    11    10    2
     6    11     9    1
     7    10     8    1
     8     9     7    2
     9     8     6    2
    10     7     6    1
    11     6     5    1
    12     5     1    1
    13     1     2    1
    14     2     3    1
    15     2     4    2
