@<TRIPOS>MOLECULE
/home/cewinharhar/GITHUB/reincatalyze/data/processed/docking_pred/2023-May-25-1902_sub9_nm5_bs15_s42_ex16_mel10_mts10000_k50_ec01_g099_lra3e-4_lrc3e-3/f56adf6440abdf94ed5aca5eaefea0329b307251_ligand_9.pdbqt
 14 15 0 0 0
SMALL
GASTEIGER

@<TRIPOS>ATOM
      1  C          6.5130   -0.0300    0.5320 C.3     1  UNL1        0.0800
      2  C          5.4930    0.7670    1.2700 C.2     1  UNL1        0.1300
      3  C          4.9400    2.0320    0.7160 C.3     1  UNL1        0.0870
      4  O          5.0790    0.4020    2.3580 O.2     1  UNL1       -0.3000
      5  C          6.9840    0.6960   -0.7120 C.3     1  UNL1        0.0430
      6  C          7.6500   -0.2170   -1.6580 C.2     1  UNL1       -0.0440
      7  C          8.3050    0.2600   -2.8000 C.2     1  UNL1        0.0080
      8  C          7.6370   -1.5730   -1.4210 C.2     1  UNL1        0.0540
      9  C          8.9130   -0.6440   -3.6510 C.2     1  UNL1        0.0510
     10  C          8.2550   -2.4820   -2.2850 C.2     1  UNL1        0.1660
     11  C          8.8970   -2.0140   -3.4090 C.2     1  UNL1        0.1650
     12  O          8.3790   -3.8560   -2.2710 O.2     1  UNL1       -0.4540
     13  O          9.4090   -3.1210   -4.0690 O.2     1  UNL1       -0.4540
     14  C          9.1810   -4.3000   -3.3340 C.3     1  UNL1        0.4680
@<TRIPOS>BOND
     1    13    11    1
     2    13    14    1
     3     9    11    2
     4     9     7    1
     5    11    10    1
     6    14    12    1
     7     7     6    2
     8    10    12    1
     9    10     8    2
    10     6     8    1
    11     6     5    1
    12     5     1    1
    13     1     2    1
    14     3     2    1
    15     2     4    2
