@<TRIPOS>MOLECULE
/home/cewinharhar/GITHUB/reincatalyze/data/processed/docking_pred/2023-May-25-1902_sub9_nm5_bs15_s42_ex16_mel10_mts10000_k50_ec01_g099_lra3e-4_lrc3e-3/f5d21a1fca5b46740ede221944c3c0743e15dd7f_ligand_9.pdbqt
 14 15 0 0 0
SMALL
GASTEIGER

@<TRIPOS>ATOM
      1  C          5.8690    1.6170    1.3510 C.3     1  UNL1        0.0800
      2  C          5.3460    0.4270    2.0780 C.2     1  UNL1        0.1300
      3  C          6.1770   -0.7910    2.2810 C.3     1  UNL1        0.0870
      4  O          4.2130    0.4160    2.5310 O.2     1  UNL1       -0.3000
      5  C          5.6570    1.4860   -0.1440 C.3     1  UNL1        0.0430
      6  C          6.7820    0.7920   -0.7960 C.2     1  UNL1       -0.0440
      7  C          8.0790    1.3200   -0.7780 C.2     1  UNL1        0.0080
      8  C          6.5660   -0.4050   -1.4400 C.2     1  UNL1        0.0540
      9  C          9.0950    0.6250   -1.4060 C.2     1  UNL1        0.0510
     10  C          7.5970   -1.1040   -2.0730 C.2     1  UNL1        0.1660
     11  C          8.8730   -0.5850   -2.0560 C.2     1  UNL1        0.1650
     12  O          7.6370   -2.2930   -2.7700 O.2     1  UNL1       -0.4540
     13  O          9.6770   -1.4760   -2.7490 O.2     1  UNL1       -0.4540
     14  C          8.9520   -2.6170   -3.1410 C.3     1  UNL1        0.4680
@<TRIPOS>BOND
     1    14    12    1
     2    14    13    1
     3    12    10    1
     4    13    11    1
     5    10    11    2
     6    10     8    1
     7    11     9    1
     8     8     6    2
     9     9     7    2
    10     6     7    1
    11     6     5    1
    12     5     1    1
    13     1     2    1
    14     2     3    1
    15     2     4    2
