@<TRIPOS>MOLECULE
/home/cewinharhar/GITHUB/reincatalyze/data/processed/docking_pred/2023-May-25-1902_sub9_nm5_bs15_s42_ex16_mel10_mts10000_k50_ec01_g099_lra3e-4_lrc3e-3/f5d21a1fca5b46740ede221944c3c0743e15dd7f_ligand_9.pdbqt
 14 15 0 0 0
SMALL
GASTEIGER

@<TRIPOS>ATOM
      1  C          5.9170    1.1130   -0.1980 C.3     1  UNL1        0.0800
      2  C          5.8930    1.1080    1.2910 C.2     1  UNL1        0.1300
      3  C          5.3560   -0.0470    2.0590 C.3     1  UNL1        0.0870
      4  O          6.3170    2.0590    1.9280 O.2     1  UNL1       -0.3000
      5  C          7.3380    1.1080   -0.7260 C.3     1  UNL1        0.0430
      6  C          7.7360   -0.2250   -1.2140 C.2     1  UNL1       -0.0440
      7  C          7.9300   -0.4790   -2.5760 C.2     1  UNL1        0.0080
      8  C          7.9260   -1.2510   -0.3160 C.2     1  UNL1        0.0540
      9  C          8.3030   -1.7490   -2.9750 C.2     1  UNL1        0.0510
     10  C          8.3040   -2.5330   -0.7250 C.2     1  UNL1        0.1660
     11  C          8.4940   -2.7840   -2.0650 C.2     1  UNL1        0.1650
     12  O          8.5510   -3.7030   -0.0380 O.2     1  UNL1       -0.4540
     13  O          8.8580   -4.1170   -2.1750 O.2     1  UNL1       -0.4540
     14  C          8.9950   -4.7130   -0.9080 C.3     1  UNL1        0.4680
@<TRIPOS>BOND
     1     9     7    1
     2     9    11    2
     3     7     6    2
     4    13    11    1
     5    13    14    1
     6    11    10    1
     7     6     5    1
     8     6     8    1
     9    14    12    1
    10     5     1    1
    11    10     8    2
    12    10    12    1
    13     1     2    1
    14     2     4    2
    15     2     3    1
