MODEL 1
REMARK VINA RESULT:      -7.3      0.000      0.000
REMARK SMILES CC(=O)CCc1ccc2c(c1)OCO2
REMARK SMILES IDX 4 1 2 2 1 3 3 4 5 5 6 6 7 7 11 8 8 9 10 10 9 11 12 12 14 13
REMARK SMILES IDX 13 14
REMARK H PARENT
REMARK Flexibility Score: inf
ROOT
ATOM      1  C   UNL     1       5.869   1.617   1.351  1.00  0.00     0.080 C 
ENDROOT
BRANCH   1   2
ATOM      2  C   UNL     1       5.346   0.427   2.078  1.00  0.00     0.130 C 
ATOM      3  C   UNL     1       6.177  -0.791   2.281  1.00  0.00     0.087 C 
ATOM      4  O   UNL     1       4.213   0.416   2.531  1.00  0.00    -0.300 OA
ENDBRANCH   1   2
BRANCH   1   5
ATOM      5  C   UNL     1       5.657   1.486  -0.144  1.00  0.00     0.043 C 
BRANCH   5   6
ATOM      6  C   UNL     1       6.782   0.792  -0.796  1.00  0.00    -0.044 A 
ATOM      7  C   UNL     1       8.079   1.320  -0.778  1.00  0.00     0.008 A 
ATOM      8  C   UNL     1       6.566  -0.405  -1.440  1.00  0.00     0.054 A 
ATOM      9  C   UNL     1       9.095   0.625  -1.406  1.00  0.00     0.051 A 
ATOM     10  C   UNL     1       7.597  -1.104  -2.073  1.00  0.00     0.166 A 
ATOM     11  C   UNL     1       8.873  -0.585  -2.056  1.00  0.00     0.165 A 
ATOM     12  O   UNL     1       7.637  -2.293  -2.770  1.00  0.00    -0.454 OA
ATOM     13  O   UNL     1       9.677  -1.476  -2.749  1.00  0.00    -0.454 OA
ATOM     14  C   UNL     1       8.952  -2.617  -3.141  1.00  0.00     0.468 C 
ENDBRANCH   5   6
ENDBRANCH   1   5
TORSDOF 3
ENDMDL
MODEL 2
REMARK VINA RESULT:      -7.2      1.126      1.170
REMARK SMILES CC(=O)CCc1ccc2c(c1)OCO2
REMARK SMILES IDX 4 1 2 2 1 3 3 4 5 5 6 6 7 7 11 8 8 9 10 10 9 11 12 12 14 13
REMARK SMILES IDX 13 14
REMARK H PARENT
REMARK Flexibility Score: inf
ROOT
ATOM      1  C   UNL     1       6.343   1.236   0.883  1.00  0.00     0.080 C 
ENDROOT
BRANCH   1   2
ATOM      2  C   UNL     1       5.646   0.417   1.914  1.00  0.00     0.130 C 
ATOM      3  C   UNL     1       6.263  -0.811   2.484  1.00  0.00     0.087 C 
ATOM      4  O   UNL     1       4.541   0.733   2.323  1.00  0.00    -0.300 OA
ENDBRANCH   1   2
BRANCH   1   5
ATOM      5  C   UNL     1       5.835   0.917  -0.509  1.00  0.00     0.043 C 
BRANCH   5   6
ATOM      6  C   UNL     1       6.801   0.106  -1.271  1.00  0.00    -0.044 A 
ATOM      7  C   UNL     1       7.514   0.638  -2.351  1.00  0.00     0.008 A 
ATOM      8  C   UNL     1       7.016  -1.207  -0.919  1.00  0.00     0.054 A 
ATOM      9  C   UNL     1       8.409  -0.170  -3.028  1.00  0.00     0.051 A 
ATOM     10  C   UNL     1       7.922  -2.021  -1.607  1.00  0.00     0.166 A 
ATOM     11  C   UNL     1       8.624  -1.498  -2.671  1.00  0.00     0.165 A 
ATOM     12  O   UNL     1       8.307  -3.336  -1.455  1.00  0.00    -0.454 OA
ATOM     13  O   UNL     1       9.434  -2.513  -3.154  1.00  0.00    -0.454 OA
ATOM     14  C   UNL     1       9.332  -3.668  -2.356  1.00  0.00     0.468 C 
ENDBRANCH   5   6
ENDBRANCH   1   5
TORSDOF 3
ENDMDL
MODEL 3
REMARK VINA RESULT:      -7.1      1.809      2.303
REMARK SMILES CC(=O)CCc1ccc2c(c1)OCO2
REMARK SMILES IDX 4 1 2 2 1 3 3 4 5 5 6 6 7 7 11 8 8 9 10 10 9 11 12 12 14 13
REMARK SMILES IDX 13 14
REMARK H PARENT
REMARK Flexibility Score: inf
ROOT
ATOM      1  C   UNL     1       5.917   1.113  -0.198  1.00  0.00     0.080 C 
ENDROOT
BRANCH   1   2
ATOM      2  C   UNL     1       5.893   1.108   1.291  1.00  0.00     0.130 C 
ATOM      3  C   UNL     1       5.356  -0.047   2.059  1.00  0.00     0.087 C 
ATOM      4  O   UNL     1       6.317   2.059   1.928  1.00  0.00    -0.300 OA
ENDBRANCH   1   2
BRANCH   1   5
ATOM      5  C   UNL     1       7.338   1.108  -0.726  1.00  0.00     0.043 C 
BRANCH   5   6
ATOM      6  C   UNL     1       7.736  -0.225  -1.214  1.00  0.00    -0.044 A 
ATOM      7  C   UNL     1       7.930  -0.479  -2.576  1.00  0.00     0.008 A 
ATOM      8  C   UNL     1       7.926  -1.251  -0.316  1.00  0.00     0.054 A 
ATOM      9  C   UNL     1       8.303  -1.749  -2.975  1.00  0.00     0.051 A 
ATOM     10  C   UNL     1       8.304  -2.533  -0.725  1.00  0.00     0.166 A 
ATOM     11  C   UNL     1       8.494  -2.784  -2.065  1.00  0.00     0.165 A 
ATOM     12  O   UNL     1       8.551  -3.703  -0.038  1.00  0.00    -0.454 OA
ATOM     13  O   UNL     1       8.858  -4.117  -2.175  1.00  0.00    -0.454 OA
ATOM     14  C   UNL     1       8.995  -4.713  -0.908  1.00  0.00     0.468 C 
ENDBRANCH   5   6
ENDBRANCH   1   5
TORSDOF 3
ENDMDL
MODEL 4
REMARK VINA RESULT:      -6.7      2.044      2.607
REMARK SMILES CC(=O)CCc1ccc2c(c1)OCO2
REMARK SMILES IDX 4 1 2 2 1 3 3 4 5 5 6 6 7 7 11 8 8 9 10 10 9 11 12 12 14 13
REMARK SMILES IDX 13 14
REMARK H PARENT
REMARK Flexibility Score: inf
ROOT
ATOM      1  C   UNL     1       6.153  -0.397   2.310  1.00  0.00     0.080 C 
ENDROOT
BRANCH   1   2
ATOM      2  C   UNL     1       5.103   0.563   1.869  1.00  0.00     0.130 C 
ATOM      3  C   UNL     1       5.282   1.416   0.664  1.00  0.00     0.087 C 
ATOM      4  O   UNL     1       4.059   0.679   2.490  1.00  0.00    -0.300 OA
ENDBRANCH   1   2
BRANCH   1   5
ATOM      5  C   UNL     1       7.486  -0.096   1.654  1.00  0.00     0.043 C 
BRANCH   5   6
ATOM      6  C   UNL     1       7.776  -1.031   0.552  1.00  0.00    -0.044 A 
ATOM      7  C   UNL     1       7.632  -0.653  -0.788  1.00  0.00     0.008 A 
ATOM      8  C   UNL     1       8.201  -2.309   0.836  1.00  0.00     0.054 A 
ATOM      9  C   UNL     1       7.920  -1.573  -1.779  1.00  0.00     0.051 A 
ATOM     10  C   UNL     1       8.492  -3.235  -0.170  1.00  0.00     0.166 A 
ATOM     11  C   UNL     1       8.349  -2.864  -1.488  1.00  0.00     0.165 A 
ATOM     12  O   UNL     1       8.923  -4.545  -0.145  1.00  0.00    -0.454 OA
ATOM     13  O   UNL     1       8.701  -3.965  -2.254  1.00  0.00    -0.454 OA
ATOM     14  C   UNL     1       9.158  -5.022  -1.445  1.00  0.00     0.468 C 
ENDBRANCH   5   6
ENDBRANCH   1   5
TORSDOF 3
ENDMDL
MODEL 5
REMARK VINA RESULT:      -6.4      2.139      2.557
REMARK SMILES CC(=O)CCc1ccc2c(c1)OCO2
REMARK SMILES IDX 4 1 2 2 1 3 3 4 5 5 6 6 7 7 11 8 8 9 10 10 9 11 12 12 14 13
REMARK SMILES IDX 13 14
REMARK H PARENT
REMARK Flexibility Score: inf
ROOT
ATOM      1  C   UNL     1       5.777   1.053  -0.356  1.00  0.00     0.080 C 
ENDROOT
BRANCH   1   2
ATOM      2  C   UNL     1       5.705   1.270   1.116  1.00  0.00     0.130 C 
ATOM      3  C   UNL     1       4.840   0.430   1.988  1.00  0.00     0.087 C 
ATOM      4  O   UNL     1       6.358   2.150   1.653  1.00  0.00    -0.300 OA
ENDBRANCH   1   2
BRANCH   1   5
ATOM      5  C   UNL     1       7.206   0.829  -0.809  1.00  0.00     0.043 C 
BRANCH   5   6
ATOM      6  C   UNL     1       7.668  -0.537  -0.505  1.00  0.00    -0.044 A 
ATOM      7  C   UNL     1       7.867  -0.967   0.812  1.00  0.00     0.008 A 
ATOM      8  C   UNL     1       7.910  -1.420  -1.533  1.00  0.00     0.054 A 
ATOM      9  C   UNL     1       8.301  -2.261   1.036  1.00  0.00     0.051 A 
ATOM     10  C   UNL     1       8.348  -2.727  -1.300  1.00  0.00     0.166 A 
ATOM     11  C   UNL     1       8.545  -3.151  -0.005  1.00  0.00     0.165 A 
ATOM     12  O   UNL     1       8.654  -3.779  -2.138  1.00  0.00    -0.454 OA
ATOM     13  O   UNL     1       8.972  -4.468  -0.075  1.00  0.00    -0.454 OA
ATOM     14  C   UNL     1       8.968  -4.934  -1.403  1.00  0.00     0.468 C 
ENDBRANCH   5   6
ENDBRANCH   1   5
TORSDOF 3
ENDMDL
