@<TRIPOS>MOLECULE
/home/cewinharhar/GITHUB/reincatalyze/data/processed/docking_pred/2023-May-25-1902_sub9_nm5_bs15_s42_ex16_mel10_mts10000_k50_ec01_g099_lra3e-4_lrc3e-3/f5d21a1fca5b46740ede221944c3c0743e15dd7f_ligand_9.pdbqt
 14 15 0 0 0
SMALL
GASTEIGER

@<TRIPOS>ATOM
      1  C          5.7770    1.0530   -0.3560 C.3     1  UNL1        0.0800
      2  C          5.7050    1.2700    1.1160 C.2     1  UNL1        0.1300
      3  C          4.8400    0.4300    1.9880 C.3     1  UNL1        0.0870
      4  O          6.3580    2.1500    1.6530 O.2     1  UNL1       -0.3000
      5  C          7.2060    0.8290   -0.8090 C.3     1  UNL1        0.0430
      6  C          7.6680   -0.5370   -0.5050 C.2     1  UNL1       -0.0440
      7  C          7.8670   -0.9670    0.8120 C.2     1  UNL1        0.0080
      8  C          7.9100   -1.4200   -1.5330 C.2     1  UNL1        0.0540
      9  C          8.3010   -2.2610    1.0360 C.2     1  UNL1        0.0510
     10  C          8.3480   -2.7270   -1.3000 C.2     1  UNL1        0.1660
     11  C          8.5450   -3.1510   -0.0050 C.2     1  UNL1        0.1650
     12  O          8.6540   -3.7790   -2.1380 O.2     1  UNL1       -0.4540
     13  O          8.9720   -4.4680   -0.0750 O.2     1  UNL1       -0.4540
     14  C          8.9680   -4.9340   -1.4030 C.3     1  UNL1        0.4680
@<TRIPOS>BOND
     1    12    14    1
     2    12    10    1
     3     8    10    1
     4     8     6    2
     5    14    13    1
     6    10    11    2
     7     5     6    1
     8     5     1    1
     9     6     7    1
    10     1     2    1
    11    13    11    1
    12    11     9    1
    13     7     9    2
    14     2     4    2
    15     2     3    1
