@<TRIPOS>MOLECULE
/home/cewinharhar/GITHUB/reincatalyze/data/processed/docking_pred/2023-May-25-1902_sub9_nm5_bs15_s42_ex16_mel10_mts10000_k50_ec01_g099_lra3e-4_lrc3e-3/f5d21a1fca5b46740ede221944c3c0743e15dd7f_ligand_9.pdbqt
 14 15 0 0 0
SMALL
GASTEIGER

@<TRIPOS>ATOM
      1  C          6.1530   -0.3970    2.3100 C.3     1  UNL1        0.0800
      2  C          5.1030    0.5630    1.8690 C.2     1  UNL1        0.1300
      3  C          5.2820    1.4160    0.6640 C.3     1  UNL1        0.0870
      4  O          4.0590    0.6790    2.4900 O.2     1  UNL1       -0.3000
      5  C          7.4860   -0.0960    1.6540 C.3     1  UNL1        0.0430
      6  C          7.7760   -1.0310    0.5520 C.2     1  UNL1       -0.0440
      7  C          7.6320   -0.6530   -0.7880 C.2     1  UNL1        0.0080
      8  C          8.2010   -2.3090    0.8360 C.2     1  UNL1        0.0540
      9  C          7.9200   -1.5730   -1.7790 C.2     1  UNL1        0.0510
     10  C          8.4920   -3.2350   -0.1700 C.2     1  UNL1        0.1660
     11  C          8.3490   -2.8640   -1.4880 C.2     1  UNL1        0.1650
     12  O          8.9230   -4.5450   -0.1450 O.2     1  UNL1       -0.4540
     13  O          8.7010   -3.9650   -2.2540 O.2     1  UNL1       -0.4540
     14  C          9.1580   -5.0220   -1.4450 C.3     1  UNL1        0.4680
@<TRIPOS>BOND
     1    13    11    1
     2    13    14    1
     3     9    11    2
     4     9     7    1
     5    11    10    1
     6    14    12    1
     7     7     6    2
     8    10    12    1
     9    10     8    2
    10     6     8    1
    11     6     5    1
    12     3     2    1
    13     5     1    1
    14     2     1    1
    15     2     4    2
