@<TRIPOS>MOLECULE
/home/cewinharhar/GITHUB/reincatalyze/data/processed/docking_pred/2023-May-25-1902_sub9_nm5_bs15_s42_ex16_mel10_mts10000_k50_ec01_g099_lra3e-4_lrc3e-3/f6b0a6d65051a5b20d9eb350202399160ef0f891_ligand_9.pdbqt
 14 15 0 0 0
SMALL
GASTEIGER

@<TRIPOS>ATOM
      1  C          6.3770    1.1910    0.9320 C.3     1  UNL1        0.0800
      2  C          5.6580    0.3700    1.9460 C.2     1  UNL1        0.1300
      3  C          6.2620   -0.8580    2.5270 C.3     1  UNL1        0.0870
      4  O          4.5430    0.6850    2.3300 O.2     1  UNL1       -0.3000
      5  C          5.8640    0.9130   -0.4670 C.3     1  UNL1        0.0430
      6  C          6.8120    0.0960   -1.2440 C.2     1  UNL1       -0.0440
      7  C          7.4910    0.6160   -2.3520 C.2     1  UNL1        0.0080
      8  C          7.0460   -1.2110   -0.8800 C.2     1  UNL1        0.0540
      9  C          8.3700   -0.1980   -3.0430 C.2     1  UNL1        0.0510
     10  C          7.9360   -2.0290   -1.5820 C.2     1  UNL1        0.1660
     11  C          8.6030   -1.5180   -2.6730 C.2     1  UNL1        0.1650
     12  O          8.3330   -3.3400   -1.4210 O.2     1  UNL1       -0.4540
     13  O          9.4060   -2.5360   -3.1640 O.2     1  UNL1       -0.4540
     14  C          9.3340   -3.6800   -2.3470 C.3     1  UNL1        0.4680
@<TRIPOS>BOND
     1    13    11    1
     2    13    14    1
     3     9    11    2
     4     9     7    1
     5    11    10    1
     6     7     6    2
     7    14    12    1
     8    10    12    1
     9    10     8    2
    10     6     8    1
    11     6     5    1
    12     5     1    1
    13     1     2    1
    14     2     4    2
    15     2     3    1
