MODEL 1
REMARK VINA RESULT:      -7.6      0.000      0.000
REMARK SMILES CC(=O)CCc1ccc2c(c1)OCO2
REMARK SMILES IDX 4 1 2 2 1 3 3 4 5 5 6 6 7 7 11 8 8 9 10 10 9 11 12 12 14 13
REMARK SMILES IDX 13 14
REMARK H PARENT
REMARK Flexibility Score: inf
ROOT
ATOM      1  C   UNL     1       5.541   1.927   1.281  1.00  0.00     0.080 C 
ENDROOT
BRANCH   1   2
ATOM      2  C   UNL     1       5.100   0.708   2.014  1.00  0.00     0.130 C 
ATOM      3  C   UNL     1       5.999  -0.464   2.191  1.00  0.00     0.087 C 
ATOM      4  O   UNL     1       3.981   0.636   2.494  1.00  0.00    -0.300 OA
ENDBRANCH   1   2
BRANCH   1   5
ATOM      5  C   UNL     1       5.411   1.746  -0.218  1.00  0.00     0.043 C 
BRANCH   5   6
ATOM      6  C   UNL     1       6.573   1.041  -0.787  1.00  0.00    -0.044 A 
ATOM      7  C   UNL     1       7.882   1.473  -0.545  1.00  0.00     0.008 A 
ATOM      8  C   UNL     1       6.379  -0.072  -1.573  1.00  0.00     0.054 A 
ATOM      9  C   UNL     1       8.935   0.771  -1.105  1.00  0.00     0.051 A 
ATOM     10  C   UNL     1       7.446  -0.778  -2.136  1.00  0.00     0.166 A 
ATOM     11  C   UNL     1       8.735  -0.353  -1.900  1.00  0.00     0.165 A 
ATOM     12  O   UNL     1       7.513  -1.896  -2.940  1.00  0.00    -0.454 OA
ATOM     13  O   UNL     1       9.575  -1.228  -2.571  1.00  0.00    -0.454 OA
ATOM     14  C   UNL     1       8.846  -2.274  -3.169  1.00  0.00     0.468 C 
ENDBRANCH   5   6
ENDBRANCH   1   5
TORSDOF 3
ENDMDL
MODEL 2
REMARK VINA RESULT:      -7.5      1.932      2.389
REMARK SMILES CC(=O)CCc1ccc2c(c1)OCO2
REMARK SMILES IDX 4 1 2 2 1 3 3 4 5 5 6 6 7 7 11 8 8 9 10 10 9 11 12 12 14 13
REMARK SMILES IDX 13 14
REMARK H PARENT
REMARK Flexibility Score: inf
ROOT
ATOM      1  C   UNL     1       5.759   1.366  -0.306  1.00  0.00     0.080 C 
ENDROOT
BRANCH   1   2
ATOM      2  C   UNL     1       5.145   1.270   1.047  1.00  0.00     0.130 C 
ATOM      3  C   UNL     1       5.398   0.107   1.939  1.00  0.00     0.087 C 
ATOM      4  O   UNL     1       4.410   2.150   1.466  1.00  0.00    -0.300 OA
ENDBRANCH   1   2
BRANCH   1   5
ATOM      5  C   UNL     1       7.255   1.127  -0.250  1.00  0.00     0.043 C 
BRANCH   5   6
ATOM      6  C   UNL     1       7.625  -0.167  -0.851  1.00  0.00    -0.044 A 
ATOM      7  C   UNL     1       7.688  -0.339  -2.239  1.00  0.00     0.008 A 
ATOM      8  C   UNL     1       7.919  -1.238  -0.038  1.00  0.00     0.054 A 
ATOM      9  C   UNL     1       8.042  -1.576  -2.746  1.00  0.00     0.051 A 
ATOM     10  C   UNL     1       8.276  -2.486  -0.556  1.00  0.00     0.166 A 
ATOM     11  C   UNL     1       8.338  -2.657  -1.921  1.00  0.00     0.165 A 
ATOM     12  O   UNL     1       8.608  -3.688   0.033  1.00  0.00    -0.454 OA
ATOM     13  O   UNL     1       8.711  -3.973  -2.144  1.00  0.00    -0.454 OA
ATOM     14  C   UNL     1       8.981  -4.637  -0.933  1.00  0.00     0.468 C 
ENDBRANCH   5   6
ENDBRANCH   1   5
TORSDOF 3
ENDMDL
MODEL 3
REMARK VINA RESULT:      -7.2      2.108      2.654
REMARK SMILES CC(=O)CCc1ccc2c(c1)OCO2
REMARK SMILES IDX 4 1 2 2 1 3 3 4 5 5 6 6 7 7 11 8 8 9 10 10 9 11 12 12 14 13
REMARK SMILES IDX 13 14
REMARK H PARENT
REMARK Flexibility Score: inf
ROOT
ATOM      1  C   UNL     1       5.570  -0.021   1.941  1.00  0.00     0.080 C 
ENDROOT
BRANCH   1   2
ATOM      2  C   UNL     1       4.688   1.142   1.643  1.00  0.00     0.130 C 
ATOM      3  C   UNL     1       5.015   2.115   0.566  1.00  0.00     0.087 C 
ATOM      4  O   UNL     1       3.665   1.332   2.280  1.00  0.00    -0.300 OA
ENDBRANCH   1   2
BRANCH   1   5
ATOM      5  C   UNL     1       6.987   0.226   1.460  1.00  0.00     0.043 C 
BRANCH   5   6
ATOM      6  C   UNL     1       7.389  -0.743   0.425  1.00  0.00    -0.044 A 
ATOM      7  C   UNL     1       7.267  -0.452  -0.938  1.00  0.00     0.008 A 
ATOM      8  C   UNL     1       7.901  -1.966   0.797  1.00  0.00     0.054 A 
ATOM      9  C   UNL     1       7.662  -1.400  -1.864  1.00  0.00     0.051 A 
ATOM     10  C   UNL     1       8.299  -2.920  -0.143  1.00  0.00     0.166 A 
ATOM     11  C   UNL     1       8.178  -2.635  -1.485  1.00  0.00     0.165 A 
ATOM     12  O   UNL     1       8.828  -4.188  -0.029  1.00  0.00    -0.454 OA
ATOM     13  O   UNL     1       8.642  -3.745  -2.174  1.00  0.00    -0.454 OA
ATOM     14  C   UNL     1       9.148  -4.717  -1.290  1.00  0.00     0.468 C 
ENDBRANCH   5   6
ENDBRANCH   1   5
TORSDOF 3
ENDMDL
MODEL 4
REMARK VINA RESULT:      -7.1      1.244      1.454
REMARK SMILES CC(=O)CCc1ccc2c(c1)OCO2
REMARK SMILES IDX 4 1 2 2 1 3 3 4 5 5 6 6 7 7 11 8 8 9 10 10 9 11 12 12 14 13
REMARK SMILES IDX 13 14
REMARK H PARENT
REMARK Flexibility Score: inf
ROOT
ATOM      1  C   UNL     1       6.370   1.227   0.921  1.00  0.00     0.080 C 
ENDROOT
BRANCH   1   2
ATOM      2  C   UNL     1       5.654   0.397   1.930  1.00  0.00     0.130 C 
ATOM      3  C   UNL     1       6.264  -0.832   2.505  1.00  0.00     0.087 C 
ATOM      4  O   UNL     1       4.538   0.705   2.316  1.00  0.00    -0.300 OA
ENDBRANCH   1   2
BRANCH   1   5
ATOM      5  C   UNL     1       5.864   0.949  -0.480  1.00  0.00     0.043 C 
BRANCH   5   6
ATOM      6  C   UNL     1       6.811   0.122  -1.249  1.00  0.00    -0.044 A 
ATOM      7  C   UNL     1       7.503   0.634  -2.353  1.00  0.00     0.008 A 
ATOM      8  C   UNL     1       7.030  -1.186  -0.881  1.00  0.00     0.054 A 
ATOM      9  C   UNL     1       8.379  -0.189  -3.036  1.00  0.00     0.051 A 
ATOM     10  C   UNL     1       7.918  -2.014  -1.574  1.00  0.00     0.166 A 
ATOM     11  C   UNL     1       8.598  -1.511  -2.661  1.00  0.00     0.165 A 
ATOM     12  O   UNL     1       8.302  -3.328  -1.409  1.00  0.00    -0.454 OA
ATOM     13  O   UNL     1       9.395  -2.537  -3.145  1.00  0.00    -0.454 OA
ATOM     14  C   UNL     1       9.306  -3.679  -2.326  1.00  0.00     0.468 C 
ENDBRANCH   5   6
ENDBRANCH   1   5
TORSDOF 3
ENDMDL
MODEL 5
REMARK VINA RESULT:      -6.7      1.257      5.262
REMARK SMILES CC(=O)CCc1ccc2c(c1)OCO2
REMARK SMILES IDX 4 1 2 2 1 3 3 4 5 5 6 6 7 7 11 8 8 9 10 10 9 11 12 12 14 13
REMARK SMILES IDX 13 14
REMARK H PARENT
REMARK Flexibility Score: inf
ROOT
ATOM      1  C   UNL     1       8.523   0.245  -2.660  1.00  0.00     0.080 C 
ENDROOT
BRANCH   1   2
ATOM      2  C   UNL     1       8.488  -1.238  -2.798  1.00  0.00     0.130 C 
ATOM      3  C   UNL     1       7.204  -1.985  -2.880  1.00  0.00     0.087 C 
ATOM      4  O   UNL     1       9.520  -1.887  -2.846  1.00  0.00    -0.300 OA
ENDBRANCH   1   2
BRANCH   1   5
ATOM      5  C   UNL     1       8.993   0.659  -1.280  1.00  0.00     0.043 C 
BRANCH   5   6
ATOM      6  C   UNL     1       7.944   0.465  -0.264  1.00  0.00    -0.044 A 
ATOM      7  C   UNL     1       8.033  -0.547   0.698  1.00  0.00     0.008 A 
ATOM      8  C   UNL     1       6.846   1.296  -0.250  1.00  0.00     0.054 A 
ATOM      9  C   UNL     1       7.017  -0.681   1.627  1.00  0.00     0.051 A 
ATOM     10  C   UNL     1       5.822   1.157   0.692  1.00  0.00     0.166 A 
ATOM     11  C   UNL     1       5.909   0.160   1.638  1.00  0.00     0.165 A 
ATOM     12  O   UNL     1       4.647   1.844   0.911  1.00  0.00    -0.454 OA
ATOM     13  O   UNL     1       4.773   0.257   2.427  1.00  0.00    -0.454 OA
ATOM     14  C   UNL     1       3.991   1.368   2.058  1.00  0.00     0.468 C 
ENDBRANCH   5   6
ENDBRANCH   1   5
TORSDOF 3
ENDMDL
