@<TRIPOS>MOLECULE
/home/cewinharhar/GITHUB/reincatalyze/data/processed/docking_pred/2023-May-25-1902_sub9_nm5_bs15_s42_ex16_mel10_mts10000_k50_ec01_g099_lra3e-4_lrc3e-3/f6da62a280fcc89d1b4d09119cbcf47c0c9f249d_ligand_9.pdbqt
 14 15 0 0 0
SMALL
GASTEIGER

@<TRIPOS>ATOM
      1  C          5.5410    1.9270    1.2810 C.3     1  UNL1        0.0800
      2  C          5.1000    0.7080    2.0140 C.2     1  UNL1        0.1300
      3  C          5.9990   -0.4640    2.1910 C.3     1  UNL1        0.0870
      4  O          3.9810    0.6360    2.4940 O.2     1  UNL1       -0.3000
      5  C          5.4110    1.7460   -0.2180 C.3     1  UNL1        0.0430
      6  C          6.5730    1.0410   -0.7870 C.2     1  UNL1       -0.0440
      7  C          7.8820    1.4730   -0.5450 C.2     1  UNL1        0.0080
      8  C          6.3790   -0.0720   -1.5730 C.2     1  UNL1        0.0540
      9  C          8.9350    0.7710   -1.1050 C.2     1  UNL1        0.0510
     10  C          7.4460   -0.7780   -2.1360 C.2     1  UNL1        0.1660
     11  C          8.7350   -0.3530   -1.9000 C.2     1  UNL1        0.1650
     12  O          7.5130   -1.8960   -2.9400 O.2     1  UNL1       -0.4540
     13  O          9.5750   -1.2280   -2.5710 O.2     1  UNL1       -0.4540
     14  C          8.8460   -2.2740   -3.1690 C.3     1  UNL1        0.4680
@<TRIPOS>BOND
     1    14    12    1
     2    14    13    1
     3    12    10    1
     4    13    11    1
     5    10    11    2
     6    10     8    1
     7    11     9    1
     8     8     6    2
     9     9     7    2
    10     6     7    1
    11     6     5    1
    12     5     1    1
    13     1     2    1
    14     2     3    1
    15     2     4    2
