@<TRIPOS>MOLECULE
/home/cewinharhar/GITHUB/reincatalyze/data/processed/docking_pred/2023-May-25-1902_sub9_nm5_bs15_s42_ex16_mel10_mts10000_k50_ec01_g099_lra3e-4_lrc3e-3/f6da62a280fcc89d1b4d09119cbcf47c0c9f249d_ligand_9.pdbqt
 14 15 0 0 0
SMALL
GASTEIGER

@<TRIPOS>ATOM
      1  C          8.5230    0.2450   -2.6600 C.3     1  UNL1        0.0800
      2  C          8.4880   -1.2380   -2.7980 C.2     1  UNL1        0.1300
      3  C          7.2040   -1.9850   -2.8800 C.3     1  UNL1        0.0870
      4  O          9.5200   -1.8870   -2.8460 O.2     1  UNL1       -0.3000
      5  C          8.9930    0.6590   -1.2800 C.3     1  UNL1        0.0430
      6  C          7.9440    0.4650   -0.2640 C.2     1  UNL1       -0.0440
      7  C          8.0330   -0.5470    0.6980 C.2     1  UNL1        0.0080
      8  C          6.8460    1.2960   -0.2500 C.2     1  UNL1        0.0540
      9  C          7.0170   -0.6810    1.6270 C.2     1  UNL1        0.0510
     10  C          5.8220    1.1570    0.6920 C.2     1  UNL1        0.1660
     11  C          5.9090    0.1600    1.6380 C.2     1  UNL1        0.1650
     12  O          4.6470    1.8440    0.9110 O.2     1  UNL1       -0.4540
     13  O          4.7730    0.2570    2.4270 O.2     1  UNL1       -0.4540
     14  C          3.9910    1.3680    2.0580 C.3     1  UNL1        0.4680
@<TRIPOS>BOND
     1     3     2    1
     2     4     2    2
     3     2     1    1
     4     1     5    1
     5     5     6    1
     6     6     8    2
     7     6     7    1
     8     8    10    1
     9    10    12    1
    10    10    11    2
    11     7     9    2
    12    12    14    1
    13     9    11    1
    14    11    13    1
    15    14    13    1
