@<TRIPOS>MOLECULE
/home/cewinharhar/GITHUB/reincatalyze/data/processed/docking_pred/2023-May-25-1902_sub9_nm5_bs15_s42_ex16_mel10_mts10000_k50_ec01_g099_lra3e-4_lrc3e-3/f6da62a280fcc89d1b4d09119cbcf47c0c9f249d_ligand_9.pdbqt
 14 15 0 0 0
SMALL
GASTEIGER

@<TRIPOS>ATOM
      1  C          5.5700   -0.0210    1.9410 C.3     1  UNL1        0.0800
      2  C          4.6880    1.1420    1.6430 C.2     1  UNL1        0.1300
      3  C          5.0150    2.1150    0.5660 C.3     1  UNL1        0.0870
      4  O          3.6650    1.3320    2.2800 O.2     1  UNL1       -0.3000
      5  C          6.9870    0.2260    1.4600 C.3     1  UNL1        0.0430
      6  C          7.3890   -0.7430    0.4250 C.2     1  UNL1       -0.0440
      7  C          7.2670   -0.4520   -0.9380 C.2     1  UNL1        0.0080
      8  C          7.9010   -1.9660    0.7970 C.2     1  UNL1        0.0540
      9  C          7.6620   -1.4000   -1.8640 C.2     1  UNL1        0.0510
     10  C          8.2990   -2.9200   -0.1430 C.2     1  UNL1        0.1660
     11  C          8.1780   -2.6350   -1.4850 C.2     1  UNL1        0.1650
     12  O          8.8280   -4.1880   -0.0290 O.2     1  UNL1       -0.4540
     13  O          8.6420   -3.7450   -2.1740 O.2     1  UNL1       -0.4540
     14  C          9.1480   -4.7170   -1.2900 C.3     1  UNL1        0.4680
@<TRIPOS>BOND
     1    13    11    1
     2    13    14    1
     3     9    11    2
     4     9     7    1
     5    11    10    1
     6    14    12    1
     7     7     6    2
     8    10    12    1
     9    10     8    2
    10     6     8    1
    11     6     5    1
    12     3     2    1
    13     5     1    1
    14     2     1    1
    15     2     4    2
