@<TRIPOS>MOLECULE
/home/cewinharhar/GITHUB/reincatalyze/data/processed/docking_pred/2023-May-25-1902_sub9_nm5_bs15_s42_ex16_mel10_mts10000_k50_ec01_g099_lra3e-4_lrc3e-3/f6da62a280fcc89d1b4d09119cbcf47c0c9f249d_ligand_9.pdbqt
 14 15 0 0 0
SMALL
GASTEIGER

@<TRIPOS>ATOM
      1  C          5.7590    1.3660   -0.3060 C.3     1  UNL1        0.0800
      2  C          5.1450    1.2700    1.0470 C.2     1  UNL1        0.1300
      3  C          5.3980    0.1070    1.9390 C.3     1  UNL1        0.0870
      4  O          4.4100    2.1500    1.4660 O.2     1  UNL1       -0.3000
      5  C          7.2550    1.1270   -0.2500 C.3     1  UNL1        0.0430
      6  C          7.6250   -0.1670   -0.8510 C.2     1  UNL1       -0.0440
      7  C          7.6880   -0.3390   -2.2390 C.2     1  UNL1        0.0080
      8  C          7.9190   -1.2380   -0.0380 C.2     1  UNL1        0.0540
      9  C          8.0420   -1.5760   -2.7460 C.2     1  UNL1        0.0510
     10  C          8.2760   -2.4860   -0.5560 C.2     1  UNL1        0.1660
     11  C          8.3380   -2.6570   -1.9210 C.2     1  UNL1        0.1650
     12  O          8.6080   -3.6880    0.0330 O.2     1  UNL1       -0.4540
     13  O          8.7110   -3.9730   -2.1440 O.2     1  UNL1       -0.4540
     14  C          8.9810   -4.6370   -0.9330 C.3     1  UNL1        0.4680
@<TRIPOS>BOND
     1     9     7    1
     2     9    11    2
     3     7     6    2
     4    13    11    1
     5    13    14    1
     6    11    10    1
     7    14    12    1
     8     6     5    1
     9     6     8    1
    10    10     8    2
    11    10    12    1
    12     1     5    1
    13     1     2    1
    14     2     4    2
    15     2     3    1
