@<TRIPOS>MOLECULE
/home/cewinharhar/GITHUB/reincatalyze/data/processed/docking_pred/2023-May-25-1902_sub9_nm5_bs15_s42_ex16_mel10_mts10000_k50_ec01_g099_lra3e-4_lrc3e-3/f6e3ea477952fa895fac814ddb6280364cb1460b_ligand_9.pdbqt
 14 15 0 0 0
SMALL
GASTEIGER

@<TRIPOS>ATOM
      1  C          5.5410    1.8640    1.3050 C.3     1  UNL1        0.0800
      2  C          5.0780    0.6450    2.0260 C.2     1  UNL1        0.1300
      3  C          5.9460   -0.5530    2.1700 C.3     1  UNL1        0.0870
      4  O          3.9640    0.5960    2.5210 O.2     1  UNL1       -0.3000
      5  C          5.4090    1.6990   -0.1960 C.3     1  UNL1        0.0430
      6  C          6.5740    1.0050   -0.7740 C.2     1  UNL1       -0.0440
      7  C          7.8810    1.4530   -0.5470 C.2     1  UNL1        0.0080
      8  C          6.3850   -0.1120   -1.5550 C.2     1  UNL1        0.0540
      9  C          8.9350    0.7610   -1.1140 C.2     1  UNL1        0.0510
     10  C          7.4540   -0.8080   -2.1260 C.2     1  UNL1        0.1660
     11  C          8.7400   -0.3680   -1.9040 C.2     1  UNL1        0.1650
     12  O          7.5260   -1.9280   -2.9270 O.2     1  UNL1       -0.4540
     13  O          9.5830   -1.2350   -2.5800 O.2     1  UNL1       -0.4540
     14  C          8.8610   -2.2910   -3.1680 C.3     1  UNL1        0.4680
@<TRIPOS>BOND
     1    14    12    1
     2    14    13    1
     3    12    10    1
     4    13    11    1
     5    10    11    2
     6    10     8    1
     7    11     9    1
     8     8     6    2
     9     9     7    2
    10     6     7    1
    11     6     5    1
    12     5     1    1
    13     1     2    1
    14     2     3    1
    15     2     4    2
