MODEL 1
REMARK VINA RESULT:      -7.6      0.000      0.000
REMARK SMILES CC(=O)CCc1ccc2c(c1)OCO2
REMARK SMILES IDX 4 1 2 2 1 3 3 4 5 5 6 6 7 7 11 8 8 9 10 10 9 11 12 12 14 13
REMARK SMILES IDX 13 14
REMARK H PARENT
REMARK Flexibility Score: inf
ROOT
ATOM      1  C   UNL     1       5.541   1.864   1.305  1.00  0.00     0.080 C 
ENDROOT
BRANCH   1   2
ATOM      2  C   UNL     1       5.078   0.645   2.026  1.00  0.00     0.130 C 
ATOM      3  C   UNL     1       5.946  -0.553   2.170  1.00  0.00     0.087 C 
ATOM      4  O   UNL     1       3.964   0.596   2.521  1.00  0.00    -0.300 OA
ENDBRANCH   1   2
BRANCH   1   5
ATOM      5  C   UNL     1       5.409   1.699  -0.196  1.00  0.00     0.043 C 
BRANCH   5   6
ATOM      6  C   UNL     1       6.574   1.005  -0.774  1.00  0.00    -0.044 A 
ATOM      7  C   UNL     1       7.881   1.453  -0.547  1.00  0.00     0.008 A 
ATOM      8  C   UNL     1       6.385  -0.112  -1.555  1.00  0.00     0.054 A 
ATOM      9  C   UNL     1       8.935   0.761  -1.114  1.00  0.00     0.051 A 
ATOM     10  C   UNL     1       7.454  -0.808  -2.126  1.00  0.00     0.166 A 
ATOM     11  C   UNL     1       8.740  -0.368  -1.904  1.00  0.00     0.165 A 
ATOM     12  O   UNL     1       7.526  -1.928  -2.927  1.00  0.00    -0.454 OA
ATOM     13  O   UNL     1       9.583  -1.235  -2.580  1.00  0.00    -0.454 OA
ATOM     14  C   UNL     1       8.861  -2.291  -3.168  1.00  0.00     0.468 C 
ENDBRANCH   5   6
ENDBRANCH   1   5
TORSDOF 3
ENDMDL
MODEL 2
REMARK VINA RESULT:      -7.5      1.864      2.336
REMARK SMILES CC(=O)CCc1ccc2c(c1)OCO2
REMARK SMILES IDX 4 1 2 2 1 3 3 4 5 5 6 6 7 7 11 8 8 9 10 10 9 11 12 12 14 13
REMARK SMILES IDX 13 14
REMARK H PARENT
REMARK Flexibility Score: inf
ROOT
ATOM      1  C   UNL     1       5.730   1.418  -0.359  1.00  0.00     0.080 C 
ENDROOT
BRANCH   1   2
ATOM      2  C   UNL     1       5.136   1.322   1.004  1.00  0.00     0.130 C 
ATOM      3  C   UNL     1       5.499   0.222   1.938  1.00  0.00     0.087 C 
ATOM      4  O   UNL     1       4.329   2.149   1.396  1.00  0.00    -0.300 OA
ENDBRANCH   1   2
BRANCH   1   5
ATOM      5  C   UNL     1       7.228   1.191  -0.324  1.00  0.00     0.043 C 
BRANCH   5   6
ATOM      6  C   UNL     1       7.599  -0.103  -0.925  1.00  0.00    -0.044 A 
ATOM      7  C   UNL     1       7.680  -0.270  -2.312  1.00  0.00     0.008 A 
ATOM      8  C   UNL     1       7.876  -1.178  -0.112  1.00  0.00     0.054 A 
ATOM      9  C   UNL     1       8.034  -1.508  -2.819  1.00  0.00     0.051 A 
ATOM     10  C   UNL     1       8.234  -2.427  -0.629  1.00  0.00     0.166 A 
ATOM     11  C   UNL     1       8.313  -2.593  -1.994  1.00  0.00     0.165 A 
ATOM     12  O   UNL     1       8.552  -3.632  -0.039  1.00  0.00    -0.454 OA
ATOM     13  O   UNL     1       8.683  -3.910  -2.216  1.00  0.00    -0.454 OA
ATOM     14  C   UNL     1       8.933  -4.580  -1.003  1.00  0.00     0.468 C 
ENDBRANCH   5   6
ENDBRANCH   1   5
TORSDOF 3
ENDMDL
MODEL 3
REMARK VINA RESULT:      -7.2      2.047      2.613
REMARK SMILES CC(=O)CCc1ccc2c(c1)OCO2
REMARK SMILES IDX 4 1 2 2 1 3 3 4 5 5 6 6 7 7 11 8 8 9 10 10 9 11 12 12 14 13
REMARK SMILES IDX 13 14
REMARK H PARENT
REMARK Flexibility Score: inf
ROOT
ATOM      1  C   UNL     1       5.416  -0.054   2.029  1.00  0.00     0.080 C 
ENDROOT
BRANCH   1   2
ATOM      2  C   UNL     1       4.566   1.142   1.769  1.00  0.00     0.130 C 
ATOM      3  C   UNL     1       4.907   2.126   0.708  1.00  0.00     0.087 C 
ATOM      4  O   UNL     1       3.558   1.349   2.426  1.00  0.00    -0.300 OA
ENDBRANCH   1   2
BRANCH   1   5
ATOM      5  C   UNL     1       6.854   0.193   1.615  1.00  0.00     0.043 C 
BRANCH   5   6
ATOM      6  C   UNL     1       7.281  -0.730   0.549  1.00  0.00    -0.044 A 
ATOM      7  C   UNL     1       7.158  -0.394  -0.804  1.00  0.00     0.008 A 
ATOM      8  C   UNL     1       7.817  -1.954   0.880  1.00  0.00     0.054 A 
ATOM      9  C   UNL     1       7.576  -1.300  -1.762  1.00  0.00     0.051 A 
ATOM     10  C   UNL     1       8.240  -2.866  -0.092  1.00  0.00     0.166 A 
ATOM     11  C   UNL     1       8.118  -2.537  -1.423  1.00  0.00     0.165 A 
ATOM     12  O   UNL     1       8.796  -4.125  -0.020  1.00  0.00    -0.454 OA
ATOM     13  O   UNL     1       8.608  -3.611  -2.149  1.00  0.00    -0.454 OA
ATOM     14  C   UNL     1       9.132  -4.602  -1.297  1.00  0.00     0.468 C 
ENDBRANCH   5   6
ENDBRANCH   1   5
TORSDOF 3
ENDMDL
MODEL 4
REMARK VINA RESULT:      -7.1      1.935      2.546
REMARK SMILES CC(=O)CCc1ccc2c(c1)OCO2
REMARK SMILES IDX 4 1 2 2 1 3 3 4 5 5 6 6 7 7 11 8 8 9 10 10 9 11 12 12 14 13
REMARK SMILES IDX 13 14
REMARK H PARENT
REMARK Flexibility Score: inf
ROOT
ATOM      1  C   UNL     1       6.853   0.824   1.100  1.00  0.00     0.080 C 
ENDROOT
BRANCH   1   2
ATOM      2  C   UNL     1       5.437   1.220   1.343  1.00  0.00     0.130 C 
ATOM      3  C   UNL     1       4.719   2.149   0.430  1.00  0.00     0.087 C 
ATOM      4  O   UNL     1       4.822   0.789   2.305  1.00  0.00    -0.300 OA
ENDBRANCH   1   2
BRANCH   1   5
ATOM      5  C   UNL     1       7.221   0.968  -0.363  1.00  0.00     0.043 C 
BRANCH   5   6
ATOM      6  C   UNL     1       7.647  -0.316  -0.948  1.00  0.00    -0.044 A 
ATOM      7  C   UNL     1       7.823  -0.471  -2.328  1.00  0.00     0.008 A 
ATOM      8  C   UNL     1       7.883  -1.395  -0.126  1.00  0.00     0.054 A 
ATOM      9  C   UNL     1       8.224  -1.700  -2.819  1.00  0.00     0.051 A 
ATOM     10  C   UNL     1       8.289  -2.635  -0.628  1.00  0.00     0.166 A 
ATOM     11  C   UNL     1       8.461  -2.788  -1.986  1.00  0.00     0.165 A 
ATOM     12  O   UNL     1       8.582  -3.841  -0.028  1.00  0.00    -0.454 OA
ATOM     13  O   UNL     1       8.861  -4.099  -2.194  1.00  0.00    -0.454 OA
ATOM     14  C   UNL     1       9.038  -4.776  -0.972  1.00  0.00     0.468 C 
ENDBRANCH   5   6
ENDBRANCH   1   5
TORSDOF 3
ENDMDL
MODEL 5
REMARK VINA RESULT:      -7.1      1.242      1.444
REMARK SMILES CC(=O)CCc1ccc2c(c1)OCO2
REMARK SMILES IDX 4 1 2 2 1 3 3 4 5 5 6 6 7 7 11 8 8 9 10 10 9 11 12 12 14 13
REMARK SMILES IDX 13 14
REMARK H PARENT
REMARK Flexibility Score: inf
ROOT
ATOM      1  C   UNL     1       6.380   1.204   0.943  1.00  0.00     0.080 C 
ENDROOT
BRANCH   1   2
ATOM      2  C   UNL     1       5.651   0.373   1.941  1.00  0.00     0.130 C 
ATOM      3  C   UNL     1       6.255  -0.854   2.525  1.00  0.00     0.087 C 
ATOM      4  O   UNL     1       4.529   0.677   2.310  1.00  0.00    -0.300 OA
ENDBRANCH   1   2
BRANCH   1   5
ATOM      5  C   UNL     1       5.878   0.943  -0.463  1.00  0.00     0.043 C 
BRANCH   5   6
ATOM      6  C   UNL     1       6.821   0.115  -1.236  1.00  0.00    -0.044 A 
ATOM      7  C   UNL     1       7.503   0.623  -2.347  1.00  0.00     0.008 A 
ATOM      8  C   UNL     1       7.046  -1.191  -0.862  1.00  0.00     0.054 A 
ATOM      9  C   UNL     1       8.376  -0.201  -3.033  1.00  0.00     0.051 A 
ATOM     10  C   UNL     1       7.931  -2.020  -1.559  1.00  0.00     0.166 A 
ATOM     11  C   UNL     1       8.601  -1.520  -2.653  1.00  0.00     0.165 A 
ATOM     12  O   UNL     1       8.320  -3.331  -1.390  1.00  0.00    -0.454 OA
ATOM     13  O   UNL     1       9.397  -2.546  -3.138  1.00  0.00    -0.454 OA
ATOM     14  C   UNL     1       9.319  -3.684  -2.313  1.00  0.00     0.468 C 
ENDBRANCH   5   6
ENDBRANCH   1   5
TORSDOF 3
ENDMDL
