@<TRIPOS>MOLECULE
/home/cewinharhar/GITHUB/reincatalyze/data/processed/docking_pred/2023-May-25-1902_sub9_nm5_bs15_s42_ex16_mel10_mts10000_k50_ec01_g099_lra3e-4_lrc3e-3/f6e3ea477952fa895fac814ddb6280364cb1460b_ligand_9.pdbqt
 14 15 0 0 0
SMALL
GASTEIGER

@<TRIPOS>ATOM
      1  C          6.8530    0.8240    1.1000 C.3     1  UNL1        0.0800
      2  C          5.4370    1.2200    1.3430 C.2     1  UNL1        0.1300
      3  C          4.7190    2.1490    0.4300 C.3     1  UNL1        0.0870
      4  O          4.8220    0.7890    2.3050 O.2     1  UNL1       -0.3000
      5  C          7.2210    0.9680   -0.3630 C.3     1  UNL1        0.0430
      6  C          7.6470   -0.3160   -0.9480 C.2     1  UNL1       -0.0440
      7  C          7.8230   -0.4710   -2.3280 C.2     1  UNL1        0.0080
      8  C          7.8830   -1.3950   -0.1260 C.2     1  UNL1        0.0540
      9  C          8.2240   -1.7000   -2.8190 C.2     1  UNL1        0.0510
     10  C          8.2890   -2.6350   -0.6280 C.2     1  UNL1        0.1660
     11  C          8.4610   -2.7880   -1.9860 C.2     1  UNL1        0.1650
     12  O          8.5820   -3.8410   -0.0280 O.2     1  UNL1       -0.4540
     13  O          8.8610   -4.0990   -2.1940 O.2     1  UNL1       -0.4540
     14  C          9.0380   -4.7760   -0.9720 C.3     1  UNL1        0.4680
@<TRIPOS>BOND
     1     9     7    1
     2     9    11    2
     3     7     6    2
     4    13    11    1
     5    13    14    1
     6    11    10    1
     7    14    12    1
     8     6     5    1
     9     6     8    1
    10    10     8    2
    11    10    12    1
    12     5     1    1
    13     3     2    1
    14     1     2    1
    15     2     4    2
