MODEL 1
REMARK VINA RESULT:      -7.7      0.000      0.000
REMARK SMILES CC(=O)CCc1ccc2c(c1)OCO2
REMARK SMILES IDX 4 1 2 2 1 3 3 4 5 5 6 6 7 7 11 8 8 9 10 10 9 11 12 12 14 13
REMARK SMILES IDX 13 14
REMARK H PARENT
REMARK Flexibility Score: inf
ROOT
ATOM      1  C   UNL     1       5.543   1.905   1.285  1.00  0.00     0.080 C 
ENDROOT
BRANCH   1   2
ATOM      2  C   UNL     1       5.124   0.682   2.026  1.00  0.00     0.130 C 
ATOM      3  C   UNL     1       6.034  -0.483   2.187  1.00  0.00     0.087 C 
ATOM      4  O   UNL     1       4.013   0.601   2.524  1.00  0.00    -0.300 OA
ENDBRANCH   1   2
BRANCH   1   5
ATOM      5  C   UNL     1       5.407   1.715  -0.212  1.00  0.00     0.043 C 
BRANCH   5   6
ATOM      6  C   UNL     1       6.573   1.017  -0.783  1.00  0.00    -0.044 A 
ATOM      7  C   UNL     1       7.881   1.454  -0.538  1.00  0.00     0.008 A 
ATOM      8  C   UNL     1       6.384  -0.093  -1.574  1.00  0.00     0.054 A 
ATOM      9  C   UNL     1       8.936   0.759  -1.100  1.00  0.00     0.051 A 
ATOM     10  C   UNL     1       7.455  -0.793  -2.139  1.00  0.00     0.166 A 
ATOM     11  C   UNL     1       8.741  -0.363  -1.900  1.00  0.00     0.165 A 
ATOM     12  O   UNL     1       7.527  -1.906  -2.948  1.00  0.00    -0.454 OA
ATOM     13  O   UNL     1       9.586  -1.231  -2.573  1.00  0.00    -0.454 OA
ATOM     14  C   UNL     1       8.862  -2.278  -3.177  1.00  0.00     0.468 C 
ENDBRANCH   5   6
ENDBRANCH   1   5
TORSDOF 3
ENDMDL
MODEL 2
REMARK VINA RESULT:      -7.2      1.256      1.479
REMARK SMILES CC(=O)CCc1ccc2c(c1)OCO2
REMARK SMILES IDX 4 1 2 2 1 3 3 4 5 5 6 6 7 7 11 8 8 9 10 10 9 11 12 12 14 13
REMARK SMILES IDX 13 14
REMARK H PARENT
REMARK Flexibility Score: inf
ROOT
ATOM      1  C   UNL     1       6.400   1.180   0.919  1.00  0.00     0.080 C 
ENDROOT
BRANCH   1   2
ATOM      2  C   UNL     1       5.677   0.363   1.933  1.00  0.00     0.130 C 
ATOM      3  C   UNL     1       6.279  -0.864   2.519  1.00  0.00     0.087 C 
ATOM      4  O   UNL     1       4.562   0.680   2.314  1.00  0.00    -0.300 OA
ENDBRANCH   1   2
BRANCH   1   5
ATOM      5  C   UNL     1       5.892   0.896  -0.481  1.00  0.00     0.043 C 
BRANCH   5   6
ATOM      6  C   UNL     1       6.841   0.071  -1.250  1.00  0.00    -0.044 A 
ATOM      7  C   UNL     1       7.537   0.586  -2.350  1.00  0.00     0.008 A 
ATOM      8  C   UNL     1       7.058  -1.238  -0.884  1.00  0.00     0.054 A 
ATOM      9  C   UNL     1       8.415  -0.236  -3.032  1.00  0.00     0.051 A 
ATOM     10  C   UNL     1       7.948  -2.064  -1.577  1.00  0.00     0.166 A 
ATOM     11  C   UNL     1       8.632  -1.559  -2.661  1.00  0.00     0.165 A 
ATOM     12  O   UNL     1       8.330  -3.379  -1.415  1.00  0.00    -0.454 OA
ATOM     13  O   UNL     1       9.429  -2.584  -3.145  1.00  0.00    -0.454 OA
ATOM     14  C   UNL     1       9.338  -3.728  -2.330  1.00  0.00     0.468 C 
ENDBRANCH   5   6
ENDBRANCH   1   5
TORSDOF 3
ENDMDL
MODEL 3
REMARK VINA RESULT:      -7.1      1.662      2.039
REMARK SMILES CC(=O)CCc1ccc2c(c1)OCO2
REMARK SMILES IDX 4 1 2 2 1 3 3 4 5 5 6 6 7 7 11 8 8 9 10 10 9 11 12 12 14 13
REMARK SMILES IDX 13 14
REMARK H PARENT
REMARK Flexibility Score: inf
ROOT
ATOM      1  C   UNL     1       5.546   1.457  -0.248  1.00  0.00     0.080 C 
ENDROOT
BRANCH   1   2
ATOM      2  C   UNL     1       5.022   1.255   1.132  1.00  0.00     0.130 C 
ATOM      3  C   UNL     1       5.442   0.096   1.965  1.00  0.00     0.087 C 
ATOM      4  O   UNL     1       4.226   2.040   1.621  1.00  0.00    -0.300 OA
ENDBRANCH   1   2
BRANCH   1   5
ATOM      5  C   UNL     1       7.060   1.374  -0.279  1.00  0.00     0.043 C 
BRANCH   5   6
ATOM      6  C   UNL     1       7.526   0.163  -0.976  1.00  0.00    -0.044 A 
ATOM      7  C   UNL     1       7.762   0.156  -2.356  1.00  0.00     0.008 A 
ATOM      8  C   UNL     1       7.742  -0.995  -0.263  1.00  0.00     0.054 A 
ATOM      9  C   UNL     1       8.200  -1.010  -2.956  1.00  0.00     0.051 A 
ATOM     10  C   UNL     1       8.185  -2.171  -0.874  1.00  0.00     0.166 A 
ATOM     11  C   UNL     1       8.416  -2.179  -2.232  1.00  0.00     0.165 A 
ATOM     12  O   UNL     1       8.468  -3.432  -0.392  1.00  0.00    -0.454 OA
ATOM     13  O   UNL     1       8.842  -3.457  -2.559  1.00  0.00    -0.454 OA
ATOM     14  C   UNL     1       8.976  -4.258  -1.409  1.00  0.00     0.468 C 
ENDBRANCH   5   6
ENDBRANCH   1   5
TORSDOF 3
ENDMDL
MODEL 4
REMARK VINA RESULT:      -6.8      1.178      5.176
REMARK SMILES CC(=O)CCc1ccc2c(c1)OCO2
REMARK SMILES IDX 4 1 2 2 1 3 3 4 5 5 6 6 7 7 11 8 8 9 10 10 9 11 12 12 14 13
REMARK SMILES IDX 13 14
REMARK H PARENT
REMARK Flexibility Score: inf
ROOT
ATOM      1  C   UNL     1       8.383   0.200  -2.601  1.00  0.00     0.080 C 
ENDROOT
BRANCH   1   2
ATOM      2  C   UNL     1       8.067  -1.250  -2.732  1.00  0.00     0.130 C 
ATOM      3  C   UNL     1       9.121  -2.256  -3.030  1.00  0.00     0.087 C 
ATOM      4  O   UNL     1       6.924  -1.656  -2.597  1.00  0.00    -0.300 OA
ENDBRANCH   1   2
BRANCH   1   5
ATOM      5  C   UNL     1       8.898   0.528  -1.214  1.00  0.00     0.043 C 
BRANCH   5   6
ATOM      6  C   UNL     1       7.842   0.398  -0.194  1.00  0.00    -0.044 A 
ATOM      7  C   UNL     1       7.915  -0.566   0.818  1.00  0.00     0.008 A 
ATOM      8  C   UNL     1       6.754   1.241  -0.227  1.00  0.00     0.054 A 
ATOM      9  C   UNL     1       6.894  -0.640   1.748  1.00  0.00     0.051 A 
ATOM     10  C   UNL     1       5.725   1.162   0.716  1.00  0.00     0.166 A 
ATOM     11  C   UNL     1       5.795   0.213   1.712  1.00  0.00     0.165 A 
ATOM     12  O   UNL     1       4.558   1.873   0.894  1.00  0.00    -0.454 OA
ATOM     13  O   UNL     1       4.658   0.364   2.490  1.00  0.00    -0.454 OA
ATOM     14  C   UNL     1       3.891   1.464   2.061  1.00  0.00     0.468 C 
ENDBRANCH   5   6
ENDBRANCH   1   5
TORSDOF 3
ENDMDL
MODEL 5
REMARK VINA RESULT:      -6.8      1.289      1.775
REMARK SMILES CC(=O)CCc1ccc2c(c1)OCO2
REMARK SMILES IDX 4 1 2 2 1 3 3 4 5 5 6 6 7 7 11 8 8 9 10 10 9 11 12 12 14 13
REMARK SMILES IDX 13 14
REMARK H PARENT
REMARK Flexibility Score: inf
ROOT
ATOM      1  C   UNL     1       5.316  -0.076   1.971  1.00  0.00     0.080 C 
ENDROOT
BRANCH   1   2
ATOM      2  C   UNL     1       4.452   1.124   1.796  1.00  0.00     0.130 C 
ATOM      3  C   UNL     1       4.741   2.150   0.759  1.00  0.00     0.087 C 
ATOM      4  O   UNL     1       3.475   1.302   2.506  1.00  0.00    -0.300 OA
ENDBRANCH   1   2
BRANCH   1   5
ATOM      5  C   UNL     1       6.786   0.288   1.900  1.00  0.00     0.043 C 
BRANCH   5   6
ATOM      6  C   UNL     1       7.378  -0.080   0.602  1.00  0.00    -0.044 A 
ATOM      7  C   UNL     1       7.832   0.891  -0.298  1.00  0.00     0.008 A 
ATOM      8  C   UNL     1       7.494  -1.407   0.257  1.00  0.00     0.054 A 
ATOM      9  C   UNL     1       8.380   0.487  -1.502  1.00  0.00     0.051 A 
ATOM     10  C   UNL     1       8.049  -1.811  -0.961  1.00  0.00     0.166 A 
ATOM     11  C   UNL     1       8.495  -0.856  -1.848  1.00  0.00     0.165 A 
ATOM     12  O   UNL     1       8.272  -3.048  -1.529  1.00  0.00    -0.454 OA
ATOM     13  O   UNL     1       8.988  -1.533  -2.952  1.00  0.00    -0.454 OA
ATOM     14  C   UNL     1       8.949  -2.926  -2.753  1.00  0.00     0.468 C 
ENDBRANCH   5   6
ENDBRANCH   1   5
TORSDOF 3
ENDMDL
