@<TRIPOS>MOLECULE
/home/cewinharhar/GITHUB/reincatalyze/data/processed/docking_pred/2023-May-25-1902_sub9_nm5_bs15_s42_ex16_mel10_mts10000_k50_ec01_g099_lra3e-4_lrc3e-3/f74925e0f2dbd9eb14447f51d5c862455f02ecd6_ligand_9.pdbqt
 14 15 0 0 0
SMALL
GASTEIGER

@<TRIPOS>ATOM
      1  C          5.5460    1.4570   -0.2480 C.3     1  UNL1        0.0800
      2  C          5.0220    1.2550    1.1320 C.2     1  UNL1        0.1300
      3  C          5.4420    0.0960    1.9650 C.3     1  UNL1        0.0870
      4  O          4.2260    2.0400    1.6210 O.2     1  UNL1       -0.3000
      5  C          7.0600    1.3740   -0.2790 C.3     1  UNL1        0.0430
      6  C          7.5260    0.1630   -0.9760 C.2     1  UNL1       -0.0440
      7  C          7.7620    0.1560   -2.3560 C.2     1  UNL1        0.0080
      8  C          7.7420   -0.9950   -0.2630 C.2     1  UNL1        0.0540
      9  C          8.2000   -1.0100   -2.9560 C.2     1  UNL1        0.0510
     10  C          8.1850   -2.1710   -0.8740 C.2     1  UNL1        0.1660
     11  C          8.4160   -2.1790   -2.2320 C.2     1  UNL1        0.1650
     12  O          8.4680   -3.4320   -0.3920 O.2     1  UNL1       -0.4540
     13  O          8.8420   -3.4570   -2.5590 O.2     1  UNL1       -0.4540
     14  C          8.9760   -4.2580   -1.4090 C.3     1  UNL1        0.4680
@<TRIPOS>BOND
     1     9     7    1
     2     9    11    2
     3    13    11    1
     4    13    14    1
     5     7     6    2
     6    11    10    1
     7    14    12    1
     8     6     5    1
     9     6     8    1
    10    10    12    1
    11    10     8    2
    12     5     1    1
    13     1     2    1
    14     2     4    2
    15     2     3    1
