@<TRIPOS>MOLECULE
/home/cewinharhar/GITHUB/reincatalyze/data/processed/docking_pred/2023-May-25-1902_sub9_nm5_bs15_s42_ex16_mel10_mts10000_k50_ec01_g099_lra3e-4_lrc3e-3/f9550a52c30547fdb3e6e224a3b8a38c5560e948_ligand_9.pdbqt
 14 15 0 0 0
SMALL
GASTEIGER

@<TRIPOS>ATOM
      1  C          5.5470    0.0090    1.9510 C.3     1  UNL1        0.0800
      2  C          4.6660    1.1700    1.6440 C.2     1  UNL1        0.1300
      3  C          4.9930    2.1330    0.5580 C.3     1  UNL1        0.0870
      4  O          3.6430    1.3660    2.2800 O.2     1  UNL1       -0.3000
      5  C          6.9670    0.2560    1.4790 C.3     1  UNL1        0.0430
      6  C          7.3700   -0.7050    0.4370 C.2     1  UNL1       -0.0440
      7  C          7.2530   -0.4020   -0.9240 C.2     1  UNL1        0.0080
      8  C          7.8790   -1.9320    0.8000 C.2     1  UNL1        0.0540
      9  C          7.6480   -1.3430   -1.8580 C.2     1  UNL1        0.0510
     10  C          8.2780   -2.8790   -0.1480 C.2     1  UNL1        0.1660
     11  C          8.1610   -2.5820   -1.4880 C.2     1  UNL1        0.1650
     12  O          8.8050   -4.1490   -0.0430 O.2     1  UNL1       -0.4540
     13  O          8.6250   -3.6870   -2.1850 O.2     1  UNL1       -0.4540
     14  C          9.1270   -4.6670   -1.3080 C.3     1  UNL1        0.4680
@<TRIPOS>BOND
     1    13    11    1
     2    13    14    1
     3     9    11    2
     4     9     7    1
     5    11    10    1
     6    14    12    1
     7     7     6    2
     8    10    12    1
     9    10     8    2
    10     6     8    1
    11     6     5    1
    12     3     2    1
    13     5     1    1
    14     2     1    1
    15     2     4    2
