MODEL 1
REMARK VINA RESULT:      -7.6      0.000      0.000
REMARK SMILES CC(=O)CCc1ccc2c(c1)OCO2
REMARK SMILES IDX 4 1 2 2 1 3 3 4 5 5 6 6 7 7 11 8 8 9 10 10 9 11 12 12 14 13
REMARK SMILES IDX 13 14
REMARK H PARENT
REMARK Flexibility Score: inf
ROOT
ATOM      1  C   UNL     1       5.513   1.900   1.256  1.00  0.00     0.080 C 
ENDROOT
BRANCH   1   2
ATOM      2  C   UNL     1       5.040   0.697   1.996  1.00  0.00     0.130 C 
ATOM      3  C   UNL     1       5.883  -0.522   2.124  1.00  0.00     0.087 C 
ATOM      4  O   UNL     1       3.939   0.677   2.521  1.00  0.00    -0.300 OA
ENDBRANCH   1   2
BRANCH   1   5
ATOM      5  C   UNL     1       5.390   1.708  -0.243  1.00  0.00     0.043 C 
BRANCH   5   6
ATOM      6  C   UNL     1       6.563   1.012  -0.803  1.00  0.00    -0.044 A 
ATOM      7  C   UNL     1       7.867   1.452  -0.548  1.00  0.00     0.008 A 
ATOM      8  C   UNL     1       6.383  -0.099  -1.595  1.00  0.00     0.054 A 
ATOM      9  C   UNL     1       8.928   0.758  -1.099  1.00  0.00     0.051 A 
ATOM     10  C   UNL     1       7.460  -0.797  -2.149  1.00  0.00     0.166 A 
ATOM     11  C   UNL     1       8.743  -0.365  -1.900  1.00  0.00     0.165 A 
ATOM     12  O   UNL     1       7.541  -1.912  -2.957  1.00  0.00    -0.454 OA
ATOM     13  O   UNL     1       9.595  -1.232  -2.565  1.00  0.00    -0.454 OA
ATOM     14  C   UNL     1       8.879  -2.281  -3.174  1.00  0.00     0.468 C 
ENDBRANCH   5   6
ENDBRANCH   1   5
TORSDOF 3
ENDMDL
MODEL 2
REMARK VINA RESULT:      -7.3      1.921      2.384
REMARK SMILES CC(=O)CCc1ccc2c(c1)OCO2
REMARK SMILES IDX 4 1 2 2 1 3 3 4 5 5 6 6 7 7 11 8 8 9 10 10 9 11 12 12 14 13
REMARK SMILES IDX 13 14
REMARK H PARENT
REMARK Flexibility Score: inf
ROOT
ATOM      1  C   UNL     1       5.728   1.264  -0.286  1.00  0.00     0.080 C 
ENDROOT
BRANCH   1   2
ATOM      2  C   UNL     1       5.176   1.213   1.097  1.00  0.00     0.130 C 
ATOM      3  C   UNL     1       5.376   0.029   1.974  1.00  0.00     0.087 C 
ATOM      4  O   UNL     1       4.539   2.149   1.552  1.00  0.00    -0.300 OA
ENDBRANCH   1   2
BRANCH   1   5
ATOM      5  C   UNL     1       7.232   1.075  -0.285  1.00  0.00     0.043 C 
BRANCH   5   6
ATOM      6  C   UNL     1       7.622  -0.210  -0.891  1.00  0.00    -0.044 A 
ATOM      7  C   UNL     1       7.708  -0.370  -2.279  1.00  0.00     0.008 A 
ATOM      8  C   UNL     1       7.912  -1.285  -0.082  1.00  0.00     0.054 A 
ATOM      9  C   UNL     1       8.080  -1.600  -2.791  1.00  0.00     0.051 A 
ATOM     10  C   UNL     1       8.288  -2.527  -0.605  1.00  0.00     0.166 A 
ATOM     11  C   UNL     1       8.372  -2.685  -1.970  1.00  0.00     0.165 A 
ATOM     12  O   UNL     1       8.621  -3.730  -0.020  1.00  0.00    -0.454 OA
ATOM     13  O   UNL     1       8.760  -3.996  -2.198  1.00  0.00    -0.454 OA
ATOM     14  C   UNL     1       9.017  -4.668  -0.988  1.00  0.00     0.468 C 
ENDBRANCH   5   6
ENDBRANCH   1   5
TORSDOF 3
ENDMDL
MODEL 3
REMARK VINA RESULT:      -7.1      2.084      2.618
REMARK SMILES CC(=O)CCc1ccc2c(c1)OCO2
REMARK SMILES IDX 4 1 2 2 1 3 3 4 5 5 6 6 7 7 11 8 8 9 10 10 9 11 12 12 14 13
REMARK SMILES IDX 13 14
REMARK H PARENT
REMARK Flexibility Score: inf
ROOT
ATOM      1  C   UNL     1       5.547   0.009   1.951  1.00  0.00     0.080 C 
ENDROOT
BRANCH   1   2
ATOM      2  C   UNL     1       4.666   1.170   1.644  1.00  0.00     0.130 C 
ATOM      3  C   UNL     1       4.993   2.133   0.558  1.00  0.00     0.087 C 
ATOM      4  O   UNL     1       3.643   1.366   2.280  1.00  0.00    -0.300 OA
ENDBRANCH   1   2
BRANCH   1   5
ATOM      5  C   UNL     1       6.967   0.256   1.479  1.00  0.00     0.043 C 
BRANCH   5   6
ATOM      6  C   UNL     1       7.370  -0.705   0.437  1.00  0.00    -0.044 A 
ATOM      7  C   UNL     1       7.253  -0.402  -0.924  1.00  0.00     0.008 A 
ATOM      8  C   UNL     1       7.879  -1.932   0.800  1.00  0.00     0.054 A 
ATOM      9  C   UNL     1       7.648  -1.343  -1.858  1.00  0.00     0.051 A 
ATOM     10  C   UNL     1       8.278  -2.879  -0.148  1.00  0.00     0.166 A 
ATOM     11  C   UNL     1       8.161  -2.582  -1.488  1.00  0.00     0.165 A 
ATOM     12  O   UNL     1       8.805  -4.149  -0.043  1.00  0.00    -0.454 OA
ATOM     13  O   UNL     1       8.625  -3.687  -2.185  1.00  0.00    -0.454 OA
ATOM     14  C   UNL     1       9.127  -4.667  -1.308  1.00  0.00     0.468 C 
ENDBRANCH   5   6
ENDBRANCH   1   5
TORSDOF 3
ENDMDL
MODEL 4
REMARK VINA RESULT:      -7.0      1.265      1.473
REMARK SMILES CC(=O)CCc1ccc2c(c1)OCO2
REMARK SMILES IDX 4 1 2 2 1 3 3 4 5 5 6 6 7 7 11 8 8 9 10 10 9 11 12 12 14 13
REMARK SMILES IDX 13 14
REMARK H PARENT
REMARK Flexibility Score: inf
ROOT
ATOM      1  C   UNL     1       6.385   1.182   0.955  1.00  0.00     0.080 C 
ENDROOT
BRANCH   1   2
ATOM      2  C   UNL     1       5.647   0.365   1.959  1.00  0.00     0.130 C 
ATOM      3  C   UNL     1       6.238  -0.864   2.552  1.00  0.00     0.087 C 
ATOM      4  O   UNL     1       4.527   0.684   2.325  1.00  0.00    -0.300 OA
ENDBRANCH   1   2
BRANCH   1   5
ATOM      5  C   UNL     1       5.874   0.923  -0.448  1.00  0.00     0.043 C 
BRANCH   5   6
ATOM      6  C   UNL     1       6.813   0.096  -1.227  1.00  0.00    -0.044 A 
ATOM      7  C   UNL     1       7.477   0.601  -2.351  1.00  0.00     0.008 A 
ATOM      8  C   UNL     1       7.052  -1.206  -0.848  1.00  0.00     0.054 A 
ATOM      9  C   UNL     1       8.348  -0.221  -3.042  1.00  0.00     0.051 A 
ATOM     10  C   UNL     1       7.934  -2.033  -1.550  1.00  0.00     0.166 A 
ATOM     11  C   UNL     1       8.587  -1.537  -2.657  1.00  0.00     0.165 A 
ATOM     12  O   UNL     1       8.334  -3.341  -1.378  1.00  0.00    -0.454 OA
ATOM     13  O   UNL     1       9.383  -2.561  -3.145  1.00  0.00    -0.454 OA
ATOM     14  C   UNL     1       9.323  -3.693  -2.311  1.00  0.00     0.468 C 
ENDBRANCH   5   6
ENDBRANCH   1   5
TORSDOF 3
ENDMDL
MODEL 5
REMARK VINA RESULT:      -6.7      1.970      2.668
REMARK SMILES CC(=O)CCc1ccc2c(c1)OCO2
REMARK SMILES IDX 4 1 2 2 1 3 3 4 5 5 6 6 7 7 11 8 8 9 10 10 9 11 12 12 14 13
REMARK SMILES IDX 13 14
REMARK H PARENT
REMARK Flexibility Score: inf
ROOT
ATOM      1  C   UNL     1       7.077   0.850   0.875  1.00  0.00     0.080 C 
ENDROOT
BRANCH   1   2
ATOM      2  C   UNL     1       5.679   1.297   1.127  1.00  0.00     0.130 C 
ATOM      3  C   UNL     1       4.944   2.147   0.152  1.00  0.00     0.087 C 
ATOM      4  O   UNL     1       5.093   0.977   2.148  1.00  0.00    -0.300 OA
ENDBRANCH   1   2
BRANCH   1   5
ATOM      5  C   UNL     1       7.419   0.917  -0.600  1.00  0.00     0.043 C 
BRANCH   5   6
ATOM      6  C   UNL     1       7.839  -0.395  -1.125  1.00  0.00    -0.044 A 
ATOM      7  C   UNL     1       8.112  -0.587  -2.484  1.00  0.00     0.008 A 
ATOM      8  C   UNL     1       7.971  -1.462  -0.266  1.00  0.00     0.054 A 
ATOM      9  C   UNL     1       8.503  -1.841  -2.918  1.00  0.00     0.051 A 
ATOM     10  C   UNL     1       8.367  -2.727  -0.710  1.00  0.00     0.166 A 
ATOM     11  C   UNL     1       8.635  -2.918  -2.047  1.00  0.00     0.165 A 
ATOM     12  O   UNL     1       8.567  -3.929  -0.065  1.00  0.00    -0.454 OA
ATOM     13  O   UNL     1       8.999  -4.247  -2.197  1.00  0.00    -0.454 OA
ATOM     14  C   UNL     1       9.057  -4.902  -0.952  1.00  0.00     0.468 C 
ENDBRANCH   5   6
ENDBRANCH   1   5
TORSDOF 3
ENDMDL
