MODEL 1
REMARK VINA RESULT:      -7.7      0.000      0.000
REMARK SMILES CC(=O)CCc1ccc2c(c1)OCO2
REMARK SMILES IDX 4 1 2 2 1 3 3 4 5 5 6 6 7 7 11 8 8 9 10 10 9 11 12 12 14 13
REMARK SMILES IDX 13 14
REMARK H PARENT
REMARK Flexibility Score: inf
ROOT
ATOM      1  C   UNL     1       5.509   1.926   1.249  1.00  0.00     0.080 C 
ENDROOT
BRANCH   1   2
ATOM      2  C   UNL     1       5.026   0.727   1.990  1.00  0.00     0.130 C 
ATOM      3  C   UNL     1       5.856  -0.500   2.116  1.00  0.00     0.087 C 
ATOM      4  O   UNL     1       3.925   0.718   2.518  1.00  0.00    -0.300 OA
ENDBRANCH   1   2
BRANCH   1   5
ATOM      5  C   UNL     1       5.390   1.731  -0.249  1.00  0.00     0.043 C 
BRANCH   5   6
ATOM      6  C   UNL     1       6.562   1.030  -0.804  1.00  0.00    -0.044 A 
ATOM      7  C   UNL     1       7.867   1.460  -0.540  1.00  0.00     0.008 A 
ATOM      8  C   UNL     1       6.379  -0.078  -1.600  1.00  0.00     0.054 A 
ATOM      9  C   UNL     1       8.928   0.762  -1.087  1.00  0.00     0.051 A 
ATOM     10  C   UNL     1       7.455  -0.781  -2.151  1.00  0.00     0.166 A 
ATOM     11  C   UNL     1       8.740  -0.358  -1.893  1.00  0.00     0.165 A 
ATOM     12  O   UNL     1       7.534  -1.894  -2.962  1.00  0.00    -0.454 OA
ATOM     13  O   UNL     1       9.590  -1.229  -2.556  1.00  0.00    -0.454 OA
ATOM     14  C   UNL     1       8.871  -2.271  -3.171  1.00  0.00     0.468 C 
ENDBRANCH   5   6
ENDBRANCH   1   5
TORSDOF 3
ENDMDL
MODEL 2
REMARK VINA RESULT:      -7.4      1.919      2.355
REMARK SMILES CC(=O)CCc1ccc2c(c1)OCO2
REMARK SMILES IDX 4 1 2 2 1 3 3 4 5 5 6 6 7 7 11 8 8 9 10 10 9 11 12 12 14 13
REMARK SMILES IDX 13 14
REMARK H PARENT
REMARK Flexibility Score: inf
ROOT
ATOM      1  C   UNL     1       5.804   1.434  -0.202  1.00  0.00     0.080 C 
ENDROOT
BRANCH   1   2
ATOM      2  C   UNL     1       5.094   1.276   1.098  1.00  0.00     0.130 C 
ATOM      3  C   UNL     1       5.345   0.111   1.988  1.00  0.00     0.087 C 
ATOM      4  O   UNL     1       4.280   2.105   1.472  1.00  0.00    -0.300 OA
ENDBRANCH   1   2
BRANCH   1   5
ATOM      5  C   UNL     1       7.279   1.111  -0.067  1.00  0.00     0.043 C 
BRANCH   5   6
ATOM      6  C   UNL     1       7.622  -0.161  -0.728  1.00  0.00    -0.044 A 
ATOM      7  C   UNL     1       7.640  -0.280  -2.123  1.00  0.00     0.008 A 
ATOM      8  C   UNL     1       7.937  -1.263   0.033  1.00  0.00     0.054 A 
ATOM      9  C   UNL     1       7.971  -1.498  -2.688  1.00  0.00     0.051 A 
ATOM     10  C   UNL     1       8.272  -2.492  -0.543  1.00  0.00     0.166 A 
ATOM     11  C   UNL     1       8.288  -2.611  -1.915  1.00  0.00     0.165 A 
ATOM     12  O   UNL     1       8.617  -3.716  -0.011  1.00  0.00    -0.454 OA
ATOM     13  O   UNL     1       8.648  -3.918  -2.200  1.00  0.00    -0.454 OA
ATOM     14  C   UNL     1       8.954  -4.629  -1.024  1.00  0.00     0.468 C 
ENDBRANCH   5   6
ENDBRANCH   1   5
TORSDOF 3
ENDMDL
MODEL 3
REMARK VINA RESULT:      -7.2      2.053      2.611
REMARK SMILES CC(=O)CCc1ccc2c(c1)OCO2
REMARK SMILES IDX 4 1 2 2 1 3 3 4 5 5 6 6 7 7 11 8 8 9 10 10 9 11 12 12 14 13
REMARK SMILES IDX 13 14
REMARK H PARENT
REMARK Flexibility Score: inf
ROOT
ATOM      1  C   UNL     1       5.446  -0.026   2.060  1.00  0.00     0.080 C 
ENDROOT
BRANCH   1   2
ATOM      2  C   UNL     1       4.561   1.138   1.778  1.00  0.00     0.130 C 
ATOM      3  C   UNL     1       4.882   2.122   0.710  1.00  0.00     0.087 C 
ATOM      4  O   UNL     1       3.540   1.320   2.421  1.00  0.00    -0.300 OA
ENDBRANCH   1   2
BRANCH   1   5
ATOM      5  C   UNL     1       6.868   0.240   1.607  1.00  0.00     0.043 C 
BRANCH   5   6
ATOM      6  C   UNL     1       7.286  -0.690   0.544  1.00  0.00    -0.044 A 
ATOM      7  C   UNL     1       7.158  -0.361  -0.811  1.00  0.00     0.008 A 
ATOM      8  C   UNL     1       7.819  -1.914   0.879  1.00  0.00     0.054 A 
ATOM      9  C   UNL     1       7.568  -1.275  -1.765  1.00  0.00     0.051 A 
ATOM     10  C   UNL     1       8.233  -2.834  -0.089  1.00  0.00     0.166 A 
ATOM     11  C   UNL     1       8.106  -2.511  -1.422  1.00  0.00     0.165 A 
ATOM     12  O   UNL     1       8.784  -4.095  -0.012  1.00  0.00    -0.454 OA
ATOM     13  O   UNL     1       8.588  -3.592  -2.144  1.00  0.00    -0.454 OA
ATOM     14  C   UNL     1       9.112  -4.581  -1.289  1.00  0.00     0.468 C 
ENDBRANCH   5   6
ENDBRANCH   1   5
TORSDOF 3
ENDMDL
MODEL 4
REMARK VINA RESULT:      -7.1      1.279      1.495
REMARK SMILES CC(=O)CCc1ccc2c(c1)OCO2
REMARK SMILES IDX 4 1 2 2 1 3 3 4 5 5 6 6 7 7 11 8 8 9 10 10 9 11 12 12 14 13
REMARK SMILES IDX 13 14
REMARK H PARENT
REMARK Flexibility Score: inf
ROOT
ATOM      1  C   UNL     1       6.392   1.169   0.963  1.00  0.00     0.080 C 
ENDROOT
BRANCH   1   2
ATOM      2  C   UNL     1       5.645   0.343   1.952  1.00  0.00     0.130 C 
ATOM      3  C   UNL     1       6.234  -0.886   2.547  1.00  0.00     0.087 C 
ATOM      4  O   UNL     1       4.518   0.654   2.304  1.00  0.00    -0.300 OA
ENDBRANCH   1   2
BRANCH   1   5
ATOM      5  C   UNL     1       5.893   0.926  -0.447  1.00  0.00     0.043 C 
BRANCH   5   6
ATOM      6  C   UNL     1       6.830   0.093  -1.223  1.00  0.00    -0.044 A 
ATOM      7  C   UNL     1       7.494   0.592  -2.349  1.00  0.00     0.008 A 
ATOM      8  C   UNL     1       7.066  -1.207  -0.838  1.00  0.00     0.054 A 
ATOM      9  C   UNL     1       8.363  -0.235  -3.037  1.00  0.00     0.051 A 
ATOM     10  C   UNL     1       7.946  -2.039  -1.536  1.00  0.00     0.166 A 
ATOM     11  C   UNL     1       8.599  -1.549  -2.645  1.00  0.00     0.165 A 
ATOM     12  O   UNL     1       8.344  -3.347  -1.358  1.00  0.00    -0.454 OA
ATOM     13  O   UNL     1       9.394  -2.577  -3.129  1.00  0.00    -0.454 OA
ATOM     14  C   UNL     1       9.331  -3.706  -2.290  1.00  0.00     0.468 C 
ENDBRANCH   5   6
ENDBRANCH   1   5
TORSDOF 3
ENDMDL
MODEL 5
REMARK VINA RESULT:      -7.0      2.006      2.549
REMARK SMILES CC(=O)CCc1ccc2c(c1)OCO2
REMARK SMILES IDX 4 1 2 2 1 3 3 4 5 5 6 6 7 7 11 8 8 9 10 10 9 11 12 12 14 13
REMARK SMILES IDX 13 14
REMARK H PARENT
REMARK Flexibility Score: inf
ROOT
ATOM      1  C   UNL     1       6.844   0.831   1.294  1.00  0.00     0.080 C 
ENDROOT
BRANCH   1   2
ATOM      2  C   UNL     1       5.390   1.092   1.482  1.00  0.00     0.130 C 
ATOM      3  C   UNL     1       4.681   2.150   0.713  1.00  0.00     0.087 C 
ATOM      4  O   UNL     1       4.734   0.442   2.280  1.00  0.00    -0.300 OA
ENDBRANCH   1   2
BRANCH   1   5
ATOM      5  C   UNL     1       7.250   0.998  -0.157  1.00  0.00     0.043 C 
BRANCH   5   6
ATOM      6  C   UNL     1       7.626  -0.288  -0.771  1.00  0.00    -0.044 A 
ATOM      7  C   UNL     1       7.688  -0.446  -2.160  1.00  0.00     0.008 A 
ATOM      8  C   UNL     1       7.927  -1.365   0.031  1.00  0.00     0.054 A 
ATOM      9  C   UNL     1       8.047  -1.676  -2.680  1.00  0.00     0.051 A 
ATOM     10  C   UNL     1       8.290  -2.607  -0.500  1.00  0.00     0.166 A 
ATOM     11  C   UNL     1       8.350  -2.763  -1.866  1.00  0.00     0.165 A 
ATOM     12  O   UNL     1       8.629  -3.812   0.077  1.00  0.00    -0.454 OA
ATOM     13  O   UNL     1       8.731  -4.075  -2.103  1.00  0.00    -0.454 OA
ATOM     14  C   UNL     1       9.006  -4.750  -0.898  1.00  0.00     0.468 C 
ENDBRANCH   5   6
ENDBRANCH   1   5
TORSDOF 3
ENDMDL
