@<TRIPOS>MOLECULE
/home/cewinharhar/GITHUB/reincatalyze/data/processed/docking_pred/2023-May-25-1902_sub9_nm5_bs15_s42_ex16_mel10_mts10000_k50_ec01_g099_lra3e-4_lrc3e-3/faf685cb0c2e1ff185f0c147bdf23d27aa2a460b_ligand_9.pdbqt
 14 15 0 0 0
SMALL
GASTEIGER

@<TRIPOS>ATOM
      1  C          5.4460   -0.0260    2.0600 C.3     1  UNL1        0.0800
      2  C          4.5610    1.1380    1.7780 C.2     1  UNL1        0.1300
      3  C          4.8820    2.1220    0.7100 C.3     1  UNL1        0.0870
      4  O          3.5400    1.3200    2.4210 O.2     1  UNL1       -0.3000
      5  C          6.8680    0.2400    1.6070 C.3     1  UNL1        0.0430
      6  C          7.2860   -0.6900    0.5440 C.2     1  UNL1       -0.0440
      7  C          7.1580   -0.3610   -0.8110 C.2     1  UNL1        0.0080
      8  C          7.8190   -1.9140    0.8790 C.2     1  UNL1        0.0540
      9  C          7.5680   -1.2750   -1.7650 C.2     1  UNL1        0.0510
     10  C          8.2330   -2.8340   -0.0890 C.2     1  UNL1        0.1660
     11  C          8.1060   -2.5110   -1.4220 C.2     1  UNL1        0.1650
     12  O          8.7840   -4.0950   -0.0120 O.2     1  UNL1       -0.4540
     13  O          8.5880   -3.5920   -2.1440 O.2     1  UNL1       -0.4540
     14  C          9.1120   -4.5810   -1.2890 C.3     1  UNL1        0.4680
@<TRIPOS>BOND
     1    13    11    1
     2    13    14    1
     3     9    11    2
     4     9     7    1
     5    11    10    1
     6    14    12    1
     7     7     6    2
     8    10    12    1
     9    10     8    2
    10     6     8    1
    11     6     5    1
    12     3     2    1
    13     5     1    1
    14     2     1    1
    15     2     4    2
