@<TRIPOS>MOLECULE
/home/cewinharhar/GITHUB/reincatalyze/data/processed/docking_pred/2023-May-25-1902_sub9_nm5_bs15_s42_ex16_mel10_mts10000_k50_ec01_g099_lra3e-4_lrc3e-3/fbb46063794dc265e75c2cefc4e8ae8bb502d9b1_ligand_9.pdbqt
 14 15 0 0 0
SMALL
GASTEIGER

@<TRIPOS>ATOM
      1  C          8.1170   -2.8070   -3.5430 C.3     1  UNL1        0.0800
      2  C          9.2680   -3.7430   -3.4140 C.2     1  UNL1        0.1300
      3  C          9.0760   -5.2180   -3.3900 C.3     1  UNL1        0.0870
      4  O         10.4110   -3.3240   -3.3230 O.2     1  UNL1       -0.3000
      5  C          8.5100   -1.3950   -3.1550 C.3     1  UNL1        0.0430
      6  C          7.7690   -0.9280   -1.9690 C.2     1  UNL1       -0.0440
      7  C          6.9670    0.2180   -2.0110 C.2     1  UNL1        0.0080
      8  C          7.8590   -1.6290   -0.7890 C.2     1  UNL1        0.0540
      9  C          6.2940    0.6090   -0.8680 C.2     1  UNL1        0.0510
     10  C          7.1760   -1.2310    0.3650 C.2     1  UNL1        0.1660
     11  C          6.3870   -0.1020    0.3250 C.2     1  UNL1        0.1650
     12  O          7.1030   -1.7490    1.6400 O.2     1  UNL1       -0.4540
     13  O          5.8410    0.0500    1.5890 O.2     1  UNL1       -0.4540
     14  C          6.1960   -1.0230    2.4290 C.3     1  UNL1        0.4680
@<TRIPOS>BOND
     1     1     2    1
     2     1     5    1
     3     2     3    1
     4     2     4    2
     5     5     6    1
     6     7     6    2
     7     7     9    1
     8     6     8    1
     9     9    11    2
    10     8    10    2
    11    11    10    1
    12    11    13    1
    13    10    12    1
    14    13    14    1
    15    12    14    1
