@<TRIPOS>MOLECULE
/home/cewinharhar/GITHUB/reincatalyze/data/processed/docking_pred/2023-May-25-1902_sub9_nm5_bs15_s42_ex16_mel10_mts10000_k50_ec01_g099_lra3e-4_lrc3e-3/fbb46063794dc265e75c2cefc4e8ae8bb502d9b1_ligand_9.pdbqt
 14 15 0 0 0
SMALL
GASTEIGER

@<TRIPOS>ATOM
      1  C          5.9960   -0.4580    1.6290 C.3     1  UNL1        0.0800
      2  C          5.0150    0.6610    1.7040 C.2     1  UNL1        0.1300
      3  C          5.0790    1.8200    0.7730 C.3     1  UNL1        0.0870
      4  O          4.1250    0.6580    2.5380 O.2     1  UNL1       -0.3000
      5  C          7.3670    0.0390    1.2140 C.3     1  UNL1        0.0430
      6  C          7.7070   -0.3780   -0.1580 C.2     1  UNL1       -0.0440
      7  C          7.9410    0.5570   -1.1720 C.2     1  UNL1        0.0080
      8  C          7.8030   -1.7180   -0.4590 C.2     1  UNL1        0.0540
      9  C          8.2580    0.1060   -2.4410 C.2     1  UNL1        0.0510
     10  C          8.1240   -2.1690   -1.7430 C.2     1  UNL1        0.1660
     11  C          8.3530   -1.2490   -2.7420 C.2     1  UNL1        0.1650
     12  O          8.2770   -3.4260   -2.2870 O.2     1  UNL1       -0.4540
     13  O          8.6460   -1.9690   -3.8900 O.2     1  UNL1       -0.4540
     14  C          8.6970   -3.3500   -3.6250 C.3     1  UNL1        0.4680
@<TRIPOS>BOND
     1    13    14    1
     2    13    11    1
     3    14    12    1
     4    11     9    2
     5    11    10    1
     6     9     7    1
     7    12    10    1
     8    10     8    2
     9     7     6    2
    10     8     6    1
    11     6     5    1
    12     3     2    1
    13     5     1    1
    14     1     2    1
    15     2     4    2
