@<TRIPOS>MOLECULE
/home/cewinharhar/GITHUB/reincatalyze/data/processed/docking_pred/2023-May-25-1902_sub9_nm5_bs15_s42_ex16_mel10_mts10000_k50_ec01_g099_lra3e-4_lrc3e-3/fc1d4194c005f01296b9c57c803e441f6dc40ccd_ligand_9.pdbqt
 14 15 0 0 0
SMALL
GASTEIGER

@<TRIPOS>ATOM
      1  C          6.8270    0.6370    0.8850 C.3     1  UNL1        0.0800
      2  C          5.4710    1.0610    1.3310 C.2     1  UNL1        0.1300
      3  C          4.7270    2.1500    0.6420 C.3     1  UNL1        0.0870
      4  O          4.9270    0.5220    2.2810 O.2     1  UNL1       -0.3000
      5  C          6.9440    0.6670   -0.6260 C.3     1  UNL1        0.0430
      6  C          7.5270   -0.5800   -1.1530 C.2     1  UNL1       -0.0440
      7  C          7.8540   -0.7210   -2.5070 C.2     1  UNL1        0.0080
      8  C          7.7620   -1.6370   -0.3030 C.2     1  UNL1        0.0540
      9  C          8.3990   -1.9150   -2.9440 C.2     1  UNL1        0.0510
     10  C          8.3140   -2.8410   -0.7500 C.2     1  UNL1        0.1660
     11  C          8.6350   -2.9810   -2.0820 C.2     1  UNL1        0.1650
     12  O          8.6370   -4.0200   -0.1130 O.2     1  UNL1       -0.4540
     13  O          9.1550   -4.2560   -2.2370 O.2     1  UNL1       -0.4540
     14  C          9.2590   -4.9170   -0.9980 C.3     1  UNL1        0.4680
@<TRIPOS>BOND
     1     9     7    1
     2     9    11    2
     3     7     6    2
     4    13    11    1
     5    13    14    1
     6    11    10    1
     7     6     5    1
     8     6     8    1
     9    14    12    1
    10    10     8    2
    11    10    12    1
    12     5     1    1
    13     3     2    1
    14     1     2    1
    15     2     4    2
