@<TRIPOS>MOLECULE
/home/cewinharhar/GITHUB/reincatalyze/data/processed/docking_pred/2023-May-25-1902_sub9_nm5_bs15_s42_ex16_mel10_mts10000_k50_ec01_g099_lra3e-4_lrc3e-3/fc1d4194c005f01296b9c57c803e441f6dc40ccd_ligand_9.pdbqt
 14 15 0 0 0
SMALL
GASTEIGER

@<TRIPOS>ATOM
      1  C          5.7640    1.1680   -0.3080 C.3     1  UNL1        0.0800
      2  C          5.2930    1.1770    1.1050 C.2     1  UNL1        0.1300
      3  C          5.5000    0.0110    2.0050 C.3     1  UNL1        0.0870
      4  O          4.7190    2.1500    1.5680 O.2     1  UNL1       -0.3000
      5  C          7.2700    1.0110   -0.3850 C.3     1  UNL1        0.0430
      6  C          7.6550   -0.2910   -0.9600 C.2     1  UNL1       -0.0440
      7  C          7.7430   -0.4840   -2.3430 C.2     1  UNL1        0.0080
      8  C          7.9390   -1.3480   -0.1260 C.2     1  UNL1        0.0540
      9  C          8.1100   -1.7270   -2.8250 C.2     1  UNL1        0.0510
     10  C          8.3100   -2.6030   -0.6180 C.2     1  UNL1        0.1660
     11  C          8.3960   -2.7940   -1.9790 C.2     1  UNL1        0.1650
     12  O          8.6360   -3.7940   -0.0050 O.2     1  UNL1       -0.4540
     13  O          8.7780   -4.1110   -2.1750 O.2     1  UNL1       -0.4540
     14  C          9.0300   -4.7560   -0.9490 C.3     1  UNL1        0.4680
@<TRIPOS>BOND
     1     9     7    1
     2     9    11    2
     3     7     6    2
     4    13    11    1
     5    13    14    1
     6    11    10    1
     7     6     5    1
     8     6     8    1
     9    14    12    1
    10    10     8    2
    11    10    12    1
    12     5     1    1
    13     1     2    1
    14     2     4    2
    15     2     3    1
