MODEL 1
REMARK VINA RESULT:      -7.7      0.000      0.000
REMARK SMILES CC(=O)CCc1ccc2c(c1)OCO2
REMARK SMILES IDX 4 1 2 2 1 3 3 4 5 5 6 6 7 7 11 8 8 9 10 10 9 11 12 12 14 13
REMARK SMILES IDX 13 14
REMARK H PARENT
REMARK Flexibility Score: inf
ROOT
ATOM      1  C   UNL     1       5.535   1.892   1.290  1.00  0.00     0.080 C 
ENDROOT
BRANCH   1   2
ATOM      2  C   UNL     1       5.093   0.668   2.016  1.00  0.00     0.130 C 
ATOM      3  C   UNL     1       5.985  -0.512   2.172  1.00  0.00     0.087 C 
ATOM      4  O   UNL     1       3.978   0.599   2.507  1.00  0.00    -0.300 OA
ENDBRANCH   1   2
BRANCH   1   5
ATOM      5  C   UNL     1       5.405   1.718  -0.210  1.00  0.00     0.043 C 
BRANCH   5   6
ATOM      6  C   UNL     1       6.569   1.018  -0.782  1.00  0.00    -0.044 A 
ATOM      7  C   UNL     1       7.877   1.454  -0.542  1.00  0.00     0.008 A 
ATOM      8  C   UNL     1       6.377  -0.094  -1.571  1.00  0.00     0.054 A 
ATOM      9  C   UNL     1       8.931   0.757  -1.105  1.00  0.00     0.051 A 
ATOM     10  C   UNL     1       7.446  -0.795  -2.136  1.00  0.00     0.166 A 
ATOM     11  C   UNL     1       8.733  -0.366  -1.902  1.00  0.00     0.165 A 
ATOM     12  O   UNL     1       7.515  -1.911  -2.944  1.00  0.00    -0.454 OA
ATOM     13  O   UNL     1       9.575  -1.237  -2.576  1.00  0.00    -0.454 OA
ATOM     14  C   UNL     1       8.849  -2.284  -3.175  1.00  0.00     0.468 C 
ENDBRANCH   5   6
ENDBRANCH   1   5
TORSDOF 3
ENDMDL
MODEL 2
REMARK VINA RESULT:      -7.4      1.951      2.455
REMARK SMILES CC(=O)CCc1ccc2c(c1)OCO2
REMARK SMILES IDX 4 1 2 2 1 3 3 4 5 5 6 6 7 7 11 8 8 9 10 10 9 11 12 12 14 13
REMARK SMILES IDX 13 14
REMARK H PARENT
REMARK Flexibility Score: inf
ROOT
ATOM      1  C   UNL     1       5.764   1.168  -0.308  1.00  0.00     0.080 C 
ENDROOT
BRANCH   1   2
ATOM      2  C   UNL     1       5.293   1.177   1.105  1.00  0.00     0.130 C 
ATOM      3  C   UNL     1       5.500   0.011   2.005  1.00  0.00     0.087 C 
ATOM      4  O   UNL     1       4.719   2.150   1.568  1.00  0.00    -0.300 OA
ENDBRANCH   1   2
BRANCH   1   5
ATOM      5  C   UNL     1       7.270   1.011  -0.385  1.00  0.00     0.043 C 
BRANCH   5   6
ATOM      6  C   UNL     1       7.655  -0.291  -0.960  1.00  0.00    -0.044 A 
ATOM      7  C   UNL     1       7.743  -0.484  -2.343  1.00  0.00     0.008 A 
ATOM      8  C   UNL     1       7.939  -1.348  -0.126  1.00  0.00     0.054 A 
ATOM      9  C   UNL     1       8.110  -1.727  -2.825  1.00  0.00     0.051 A 
ATOM     10  C   UNL     1       8.310  -2.603  -0.618  1.00  0.00     0.166 A 
ATOM     11  C   UNL     1       8.396  -2.794  -1.979  1.00  0.00     0.165 A 
ATOM     12  O   UNL     1       8.636  -3.794  -0.005  1.00  0.00    -0.454 OA
ATOM     13  O   UNL     1       8.778  -4.111  -2.175  1.00  0.00    -0.454 OA
ATOM     14  C   UNL     1       9.030  -4.756  -0.949  1.00  0.00     0.468 C 
ENDBRANCH   5   6
ENDBRANCH   1   5
TORSDOF 3
ENDMDL
MODEL 3
REMARK VINA RESULT:      -7.2      2.051      2.623
REMARK SMILES CC(=O)CCc1ccc2c(c1)OCO2
REMARK SMILES IDX 4 1 2 2 1 3 3 4 5 5 6 6 7 7 11 8 8 9 10 10 9 11 12 12 14 13
REMARK SMILES IDX 13 14
REMARK H PARENT
REMARK Flexibility Score: inf
ROOT
ATOM      1  C   UNL     1       5.407  -0.065   2.008  1.00  0.00     0.080 C 
ENDROOT
BRANCH   1   2
ATOM      2  C   UNL     1       4.569   1.144   1.769  1.00  0.00     0.130 C 
ATOM      3  C   UNL     1       4.918   2.142   0.723  1.00  0.00     0.087 C 
ATOM      4  O   UNL     1       3.565   1.351   2.432  1.00  0.00    -0.300 OA
ENDBRANCH   1   2
BRANCH   1   5
ATOM      5  C   UNL     1       6.848   0.176   1.606  1.00  0.00     0.043 C 
BRANCH   5   6
ATOM      6  C   UNL     1       7.279  -0.744   0.538  1.00  0.00    -0.044 A 
ATOM      7  C   UNL     1       7.160  -0.404  -0.814  1.00  0.00     0.008 A 
ATOM      8  C   UNL     1       7.816  -1.967   0.868  1.00  0.00     0.054 A 
ATOM      9  C   UNL     1       7.582  -1.307  -1.773  1.00  0.00     0.051 A 
ATOM     10  C   UNL     1       8.242  -2.877  -0.105  1.00  0.00     0.166 A 
ATOM     11  C   UNL     1       8.123  -2.544  -1.436  1.00  0.00     0.165 A 
ATOM     12  O   UNL     1       8.799  -4.136  -0.034  1.00  0.00    -0.454 OA
ATOM     13  O   UNL     1       8.617  -3.616  -2.163  1.00  0.00    -0.454 OA
ATOM     14  C   UNL     1       9.139  -4.610  -1.312  1.00  0.00     0.468 C 
ENDBRANCH   5   6
ENDBRANCH   1   5
TORSDOF 3
ENDMDL
MODEL 4
REMARK VINA RESULT:      -7.1      1.243      1.442
REMARK SMILES CC(=O)CCc1ccc2c(c1)OCO2
REMARK SMILES IDX 4 1 2 2 1 3 3 4 5 5 6 6 7 7 11 8 8 9 10 10 9 11 12 12 14 13
REMARK SMILES IDX 13 14
REMARK H PARENT
REMARK Flexibility Score: inf
ROOT
ATOM      1  C   UNL     1       6.359   1.240   0.926  1.00  0.00     0.080 C 
ENDROOT
BRANCH   1   2
ATOM      2  C   UNL     1       5.653   0.401   1.935  1.00  0.00     0.130 C 
ATOM      3  C   UNL     1       6.286  -0.810   2.523  1.00  0.00     0.087 C 
ATOM      4  O   UNL     1       4.528   0.687   2.310  1.00  0.00    -0.300 OA
ENDBRANCH   1   2
BRANCH   1   5
ATOM      5  C   UNL     1       5.856   0.954  -0.475  1.00  0.00     0.043 C 
BRANCH   5   6
ATOM      6  C   UNL     1       6.806   0.127  -1.239  1.00  0.00    -0.044 A 
ATOM      7  C   UNL     1       7.499   0.636  -2.344  1.00  0.00     0.008 A 
ATOM      8  C   UNL     1       7.028  -1.179  -0.865  1.00  0.00     0.054 A 
ATOM      9  C   UNL     1       8.379  -0.187  -3.022  1.00  0.00     0.051 A 
ATOM     10  C   UNL     1       7.920  -2.007  -1.553  1.00  0.00     0.166 A 
ATOM     11  C   UNL     1       8.600  -1.507  -2.641  1.00  0.00     0.165 A 
ATOM     12  O   UNL     1       8.307  -3.319  -1.381  1.00  0.00    -0.454 OA
ATOM     13  O   UNL     1       9.401  -2.533  -3.119  1.00  0.00    -0.454 OA
ATOM     14  C   UNL     1       9.314  -3.671  -2.295  1.00  0.00     0.468 C 
ENDBRANCH   5   6
ENDBRANCH   1   5
TORSDOF 3
ENDMDL
MODEL 5
REMARK VINA RESULT:      -6.9      1.971      2.638
REMARK SMILES CC(=O)CCc1ccc2c(c1)OCO2
REMARK SMILES IDX 4 1 2 2 1 3 3 4 5 5 6 6 7 7 11 8 8 9 10 10 9 11 12 12 14 13
REMARK SMILES IDX 13 14
REMARK H PARENT
REMARK Flexibility Score: inf
ROOT
ATOM      1  C   UNL     1       6.827   0.637   0.885  1.00  0.00     0.080 C 
ENDROOT
BRANCH   1   2
ATOM      2  C   UNL     1       5.471   1.061   1.331  1.00  0.00     0.130 C 
ATOM      3  C   UNL     1       4.727   2.150   0.642  1.00  0.00     0.087 C 
ATOM      4  O   UNL     1       4.927   0.522   2.281  1.00  0.00    -0.300 OA
ENDBRANCH   1   2
BRANCH   1   5
ATOM      5  C   UNL     1       6.944   0.667  -0.626  1.00  0.00     0.043 C 
BRANCH   5   6
ATOM      6  C   UNL     1       7.527  -0.580  -1.153  1.00  0.00    -0.044 A 
ATOM      7  C   UNL     1       7.854  -0.721  -2.507  1.00  0.00     0.008 A 
ATOM      8  C   UNL     1       7.762  -1.637  -0.303  1.00  0.00     0.054 A 
ATOM      9  C   UNL     1       8.399  -1.915  -2.944  1.00  0.00     0.051 A 
ATOM     10  C   UNL     1       8.314  -2.841  -0.750  1.00  0.00     0.166 A 
ATOM     11  C   UNL     1       8.635  -2.981  -2.082  1.00  0.00     0.165 A 
ATOM     12  O   UNL     1       8.637  -4.020  -0.113  1.00  0.00    -0.454 OA
ATOM     13  O   UNL     1       9.155  -4.256  -2.237  1.00  0.00    -0.454 OA
ATOM     14  C   UNL     1       9.259  -4.917  -0.998  1.00  0.00     0.468 C 
ENDBRANCH   5   6
ENDBRANCH   1   5
TORSDOF 3
ENDMDL
