@<TRIPOS>MOLECULE
/home/cewinharhar/GITHUB/reincatalyze/data/processed/docking_pred/2023-May-25-1902_sub9_nm5_bs15_s42_ex16_mel10_mts10000_k50_ec01_g099_lra3e-4_lrc3e-3/fd0126b23dad862f417327e64da043fff24e40de_ligand_9.pdbqt
 14 15 0 0 0
SMALL
GASTEIGER

@<TRIPOS>ATOM
      1  C          5.3170   -0.0940    1.9430 C.3     1  UNL1        0.0800
      2  C          4.4490    1.1070    1.7890 C.2     1  UNL1        0.1300
      3  C          4.7330    2.1500    0.7680 C.3     1  UNL1        0.0870
      4  O          3.4730    1.2710    2.5030 O.2     1  UNL1       -0.3000
      5  C          6.7850    0.2790    1.8980 C.3     1  UNL1        0.0430
      6  C          7.3980   -0.0710    0.6030 C.2     1  UNL1       -0.0440
      7  C          7.9060    0.9100   -0.2560 C.2     1  UNL1        0.0080
      8  C          7.4790   -1.3910    0.2220 C.2     1  UNL1        0.0540
      9  C          8.4700    0.5220   -1.4580 C.2     1  UNL1        0.0510
     10  C          8.0510   -1.7780   -0.9940 C.2     1  UNL1        0.1660
     11  C          8.5500   -0.8130   -1.8410 C.2     1  UNL1        0.1650
     12  O          8.2470   -3.0040   -1.5930 O.2     1  UNL1       -0.4540
     13  O          9.0480   -1.4740   -2.9530 O.2     1  UNL1       -0.4540
     14  C          8.9590   -2.8700   -2.7960 C.3     1  UNL1        0.4680
@<TRIPOS>BOND
     1    13    14    1
     2    13    11    1
     3    14    12    1
     4    11     9    2
     5    11    10    1
     6    12    10    1
     7     9     7    1
     8    10     8    2
     9     7     6    2
    10     8     6    1
    11     6     5    1
    12     3     2    1
    13     2     1    1
    14     2     4    2
    15     5     1    1
