@<TRIPOS>MOLECULE
/home/cewinharhar/GITHUB/reincatalyze/data/processed/docking_pred/2023-May-25-1902_sub9_nm5_bs15_s42_ex16_mel10_mts10000_k50_ec01_g099_lra3e-4_lrc3e-3/fd0126b23dad862f417327e64da043fff24e40de_ligand_9.pdbqt
 14 15 0 0 0
SMALL
GASTEIGER

@<TRIPOS>ATOM
      1  C          5.4820    1.9190    1.2480 C.3     1  UNL1        0.0800
      2  C          5.0170    0.7140    1.9910 C.2     1  UNL1        0.1300
      3  C          5.8600   -0.5060    2.1050 C.3     1  UNL1        0.0870
      4  O          3.9230    0.6940    2.5300 O.2     1  UNL1       -0.3000
      5  C          5.3670    1.7200   -0.2510 C.3     1  UNL1        0.0430
      6  C          6.5450    1.0270   -0.8020 C.2     1  UNL1       -0.0440
      7  C          7.8470    1.4630   -0.5280 C.2     1  UNL1        0.0080
      8  C          6.3740   -0.0780   -1.6040 C.2     1  UNL1        0.0540
      9  C          8.9140    0.7730   -1.0720 C.2     1  UNL1        0.0510
     10  C          7.4560   -0.7730   -2.1520 C.2     1  UNL1        0.1660
     11  C          8.7370   -0.3430   -1.8840 C.2     1  UNL1        0.1650
     12  O          7.5470   -1.8810   -2.9670 O.2     1  UNL1       -0.4540
     13  O          9.5960   -1.2060   -2.5460 O.2     1  UNL1       -0.4540
     14  C          8.8870   -2.2490   -3.1710 C.3     1  UNL1        0.4680
@<TRIPOS>BOND
     1    14    12    1
     2    14    13    1
     3    12    10    1
     4    13    11    1
     5    10    11    2
     6    10     8    1
     7    11     9    1
     8     8     6    2
     9     9     7    2
    10     6     7    1
    11     6     5    1
    12     5     1    1
    13     1     2    1
    14     2     3    1
    15     2     4    2
