@<TRIPOS>MOLECULE
/home/cewinharhar/GITHUB/reincatalyze/data/processed/docking_pred/2023-May-25-1902_sub9_nm5_bs15_s42_ex16_mel10_mts10000_k50_ec01_g099_lra3e-4_lrc3e-3/fd0126b23dad862f417327e64da043fff24e40de_ligand_9.pdbqt
 14 15 0 0 0
SMALL
GASTEIGER

@<TRIPOS>ATOM
      1  C          5.7380    1.4190   -0.2820 C.3     1  UNL1        0.0800
      2  C          5.1060    1.2980    1.0610 C.2     1  UNL1        0.1300
      3  C          5.4310    0.1720    1.9780 C.3     1  UNL1        0.0870
      4  O          4.2980    2.1250    1.4500 O.2     1  UNL1       -0.3000
      5  C          7.2310    1.1630   -0.2140 C.3     1  UNL1        0.0430
      6  C          7.5930   -0.1280   -0.8260 C.2     1  UNL1       -0.0440
      7  C          7.6340   -0.2940   -2.2150 C.2     1  UNL1        0.0080
      8  C          7.9020   -1.2010   -0.0220 C.2     1  UNL1        0.0540
      9  C          7.9810   -1.5280   -2.7330 C.2     1  UNL1        0.0510
     10  C          8.2540   -2.4470   -0.5510 C.2     1  UNL1        0.1660
     11  C          8.2930   -2.6120   -1.9170 C.2     1  UNL1        0.1650
     12  O          8.5980   -3.6500    0.0280 O.2     1  UNL1       -0.4540
     13  O          8.6660   -3.9260   -2.1520 O.2     1  UNL1       -0.4540
     14  C          8.9570   -4.5940   -0.9480 C.3     1  UNL1        0.4680
@<TRIPOS>BOND
     1     9     7    1
     2     9    11    2
     3     7     6    2
     4    13    11    1
     5    13    14    1
     6    11    10    1
     7    14    12    1
     8     6     5    1
     9     6     8    1
    10    10     8    2
    11    10    12    1
    12     1     5    1
    13     1     2    1
    14     2     4    2
    15     2     3    1
