@<TRIPOS>MOLECULE
/home/cewinharhar/GITHUB/reincatalyze/data/processed/docking_pred/2023-May-25-1902_sub9_nm5_bs15_s42_ex16_mel10_mts10000_k50_ec01_g099_lra3e-4_lrc3e-3/fd47e7971438b5d99bd44d6b4779cf8b3333f5d6_ligand_9.pdbqt
 14 15 0 0 0
SMALL
GASTEIGER

@<TRIPOS>ATOM
      1  C          5.6050    0.0140    1.9280 C.3     1  UNL1        0.0800
      2  C          4.6930    1.1500    1.6180 C.2     1  UNL1        0.1300
      3  C          4.9530    2.0720    0.4810 C.3     1  UNL1        0.0870
      4  O          3.6990    1.3590    2.2950 O.2     1  UNL1       -0.3000
      5  C          7.0070    0.2790    1.4190 C.3     1  UNL1        0.0430
      6  C          7.4090   -0.6970    0.3900 C.2     1  UNL1       -0.0440
      7  C          7.3090   -0.4060   -0.9750 C.2     1  UNL1        0.0080
      8  C          7.8970   -1.9270    0.7690 C.2     1  UNL1        0.0540
      9  C          7.7020   -1.3610   -1.8960 C.2     1  UNL1        0.0510
     10  C          8.2930   -2.8890   -0.1650 C.2     1  UNL1        0.1660
     11  C          8.1940   -2.6030   -1.5080 C.2     1  UNL1        0.1650
     12  O          8.8010   -4.1640   -0.0420 O.2     1  UNL1       -0.4540
     13  O          8.6500   -3.7210   -2.1900 O.2     1  UNL1       -0.4540
     14  C          9.1300   -4.6990   -1.2990 C.3     1  UNL1        0.4680
@<TRIPOS>BOND
     1    13    11    1
     2    13    14    1
     3     9    11    2
     4     9     7    1
     5    11    10    1
     6    14    12    1
     7     7     6    2
     8    10    12    1
     9    10     8    2
    10     6     8    1
    11     6     5    1
    12     3     2    1
    13     5     1    1
    14     2     1    1
    15     2     4    2
