@<TRIPOS>MOLECULE
/home/cewinharhar/GITHUB/reincatalyze/data/processed/docking_pred/2023-May-25-1902_sub9_nm5_bs15_s42_ex16_mel10_mts10000_k50_ec01_g099_lra3e-4_lrc3e-3/fd47e7971438b5d99bd44d6b4779cf8b3333f5d6_ligand_9.pdbqt
 14 15 0 0 0
SMALL
GASTEIGER

@<TRIPOS>ATOM
      1  C          5.3310   -0.0590    1.9730 C.3     1  UNL1        0.0800
      2  C          4.4590    1.1340    1.7890 C.2     1  UNL1        0.1300
      3  C          4.7360    2.1500    0.7380 C.3     1  UNL1        0.0870
      4  O          3.4840    1.3140    2.5000 O.2     1  UNL1       -0.3000
      5  C          6.7980    0.3160    1.9040 C.3     1  UNL1        0.0430
      6  C          7.3930   -0.0390    0.6030 C.2     1  UNL1       -0.0440
      7  C          7.8700    0.9390   -0.2770 C.2     1  UNL1        0.0080
      8  C          7.4900   -1.3620    0.2360 C.2     1  UNL1        0.0540
      9  C          8.4190    0.5460   -1.4840 C.2     1  UNL1        0.0510
     10  C          8.0460   -1.7540   -0.9850 C.2     1  UNL1        0.1660
     11  C          8.5140   -0.7920   -1.8520 C.2     1  UNL1        0.1650
     12  O          8.2510   -2.9850   -1.5720 O.2     1  UNL1       -0.4540
     13  O          9.0030   -1.4590   -2.9640 O.2     1  UNL1       -0.4540
     14  C          8.9390   -2.8540   -2.7890 C.3     1  UNL1        0.4680
@<TRIPOS>BOND
     1    13    14    1
     2    13    11    1
     3    14    12    1
     4    11     9    2
     5    11    10    1
     6    12    10    1
     7     9     7    1
     8    10     8    2
     9     7     6    2
    10     8     6    1
    11     6     5    1
    12     3     2    1
    13     2     1    1
    14     2     4    2
    15     5     1    1
