@<TRIPOS>MOLECULE
/home/cewinharhar/GITHUB/reincatalyze/data/processed/docking_pred/2023-May-25-1902_sub9_nm5_bs15_s42_ex16_mel10_mts10000_k50_ec01_g099_lra3e-4_lrc3e-3/fd47e7971438b5d99bd44d6b4779cf8b3333f5d6_ligand_9.pdbqt
 14 15 0 0 0
SMALL
GASTEIGER

@<TRIPOS>ATOM
      1  C          6.3600    1.2090    0.8850 C.3     1  UNL1        0.0800
      2  C          5.6710    0.3920    1.9220 C.2     1  UNL1        0.1300
      3  C          6.2910   -0.8370    2.4870 C.3     1  UNL1        0.0870
      4  O          4.5700    0.7110    2.3420 O.2     1  UNL1       -0.3000
      5  C          5.8420    0.8870   -0.5030 C.3     1  UNL1        0.0430
      6  C          6.8060    0.0790   -1.2720 C.2     1  UNL1       -0.0440
      7  C          7.5050    0.6130   -2.3610 C.2     1  UNL1        0.0080
      8  C          7.0350   -1.2310   -0.9170 C.2     1  UNL1        0.0540
      9  C          8.3980   -0.1920   -3.0450 C.2     1  UNL1        0.0510
     10  C          7.9400   -2.0400   -1.6110 C.2     1  UNL1        0.1660
     11  C          8.6260   -1.5170   -2.6840 C.2     1  UNL1        0.1650
     12  O          8.3360   -3.3520   -1.4580 O.2     1  UNL1       -0.4540
     13  O          9.4400   -2.5280   -3.1710 O.2     1  UNL1       -0.4540
     14  C          9.3540   -3.6810   -2.3680 C.3     1  UNL1        0.4680
@<TRIPOS>BOND
     1    13    11    1
     2    13    14    1
     3     9    11    2
     4     9     7    1
     5    11    10    1
     6    14    12    1
     7     7     6    2
     8    10    12    1
     9    10     8    2
    10     6     8    1
    11     6     5    1
    12     5     1    1
    13     1     2    1
    14     2     4    2
    15     2     3    1
