MODEL 1
REMARK VINA RESULT:      -7.7      0.000      0.000
REMARK SMILES CC(=O)CCc1ccc2c(c1)OCO2
REMARK SMILES IDX 4 1 2 2 1 3 3 4 5 5 6 6 7 7 11 8 8 9 10 10 9 11 12 12 14 13
REMARK SMILES IDX 13 14
REMARK H PARENT
REMARK Flexibility Score: inf
ROOT
ATOM      1  C   UNL     1       5.517   1.917   1.266  1.00  0.00     0.080 C 
ENDROOT
BRANCH   1   2
ATOM      2  C   UNL     1       5.082   0.700   2.006  1.00  0.00     0.130 C 
ATOM      3  C   UNL     1       5.976  -0.478   2.167  1.00  0.00     0.087 C 
ATOM      4  O   UNL     1       3.970   0.634   2.506  1.00  0.00    -0.300 OA
ENDBRANCH   1   2
BRANCH   1   5
ATOM      5  C   UNL     1       5.391   1.724  -0.232  1.00  0.00     0.043 C 
BRANCH   5   6
ATOM      6  C   UNL     1       6.561   1.025  -0.794  1.00  0.00    -0.044 A 
ATOM      7  C   UNL     1       7.866   1.463  -0.543  1.00  0.00     0.008 A 
ATOM      8  C   UNL     1       6.377  -0.088  -1.583  1.00  0.00     0.054 A 
ATOM      9  C   UNL     1       8.926   0.766  -1.096  1.00  0.00     0.051 A 
ATOM     10  C   UNL     1       7.451  -0.789  -2.139  1.00  0.00     0.166 A 
ATOM     11  C   UNL     1       8.736  -0.358  -1.894  1.00  0.00     0.165 A 
ATOM     12  O   UNL     1       7.529  -1.905  -2.945  1.00  0.00    -0.454 OA
ATOM     13  O   UNL     1       9.585  -1.228  -2.560  1.00  0.00    -0.454 OA
ATOM     14  C   UNL     1       8.866  -2.276  -3.164  1.00  0.00     0.468 C 
ENDBRANCH   5   6
ENDBRANCH   1   5
TORSDOF 3
ENDMDL
MODEL 2
REMARK VINA RESULT:      -7.2      1.826      2.286
REMARK SMILES CC(=O)CCc1ccc2c(c1)OCO2
REMARK SMILES IDX 4 1 2 2 1 3 3 4 5 5 6 6 7 7 11 8 8 9 10 10 9 11 12 12 14 13
REMARK SMILES IDX 13 14
REMARK H PARENT
REMARK Flexibility Score: inf
ROOT
ATOM      1  C   UNL     1       5.785   1.611  -0.125  1.00  0.00     0.080 C 
ENDROOT
BRANCH   1   2
ATOM      2  C   UNL     1       5.011   1.318   1.113  1.00  0.00     0.130 C 
ATOM      3  C   UNL     1       5.309   0.132   1.958  1.00  0.00     0.087 C 
ATOM      4  O   UNL     1       4.102   2.050   1.471  1.00  0.00    -0.300 OA
ENDBRANCH   1   2
BRANCH   1   5
ATOM      5  C   UNL     1       7.236   1.199   0.023  1.00  0.00     0.043 C 
BRANCH   5   6
ATOM      6  C   UNL     1       7.520  -0.063  -0.683  1.00  0.00    -0.044 A 
ATOM      7  C   UNL     1       7.333  -0.189  -2.064  1.00  0.00     0.008 A 
ATOM      8  C   UNL     1       7.983  -1.150   0.023  1.00  0.00     0.054 A 
ATOM      9  C   UNL     1       7.618  -1.398  -2.672  1.00  0.00     0.051 A 
ATOM     10  C   UNL     1       8.270  -2.370  -0.596  1.00  0.00     0.166 A 
ATOM     11  C   UNL     1       8.085  -2.496  -1.955  1.00  0.00     0.165 A 
ATOM     12  O   UNL     1       8.732  -3.580  -0.122  1.00  0.00    -0.454 OA
ATOM     13  O   UNL     1       8.443  -3.792  -2.291  1.00  0.00    -0.454 OA
ATOM     14  C   UNL     1       8.945  -4.486  -1.174  1.00  0.00     0.468 C 
ENDBRANCH   5   6
ENDBRANCH   1   5
TORSDOF 3
ENDMDL
MODEL 3
REMARK VINA RESULT:      -7.2      2.091      2.623
REMARK SMILES CC(=O)CCc1ccc2c(c1)OCO2
REMARK SMILES IDX 4 1 2 2 1 3 3 4 5 5 6 6 7 7 11 8 8 9 10 10 9 11 12 12 14 13
REMARK SMILES IDX 13 14
REMARK H PARENT
REMARK Flexibility Score: inf
ROOT
ATOM      1  C   UNL     1       5.605   0.014   1.928  1.00  0.00     0.080 C 
ENDROOT
BRANCH   1   2
ATOM      2  C   UNL     1       4.693   1.150   1.618  1.00  0.00     0.130 C 
ATOM      3  C   UNL     1       4.953   2.072   0.481  1.00  0.00     0.087 C 
ATOM      4  O   UNL     1       3.699   1.359   2.295  1.00  0.00    -0.300 OA
ENDBRANCH   1   2
BRANCH   1   5
ATOM      5  C   UNL     1       7.007   0.279   1.419  1.00  0.00     0.043 C 
BRANCH   5   6
ATOM      6  C   UNL     1       7.409  -0.697   0.390  1.00  0.00    -0.044 A 
ATOM      7  C   UNL     1       7.309  -0.406  -0.975  1.00  0.00     0.008 A 
ATOM      8  C   UNL     1       7.897  -1.927   0.769  1.00  0.00     0.054 A 
ATOM      9  C   UNL     1       7.702  -1.361  -1.896  1.00  0.00     0.051 A 
ATOM     10  C   UNL     1       8.293  -2.889  -0.165  1.00  0.00     0.166 A 
ATOM     11  C   UNL     1       8.194  -2.603  -1.508  1.00  0.00     0.165 A 
ATOM     12  O   UNL     1       8.801  -4.164  -0.042  1.00  0.00    -0.454 OA
ATOM     13  O   UNL     1       8.650  -3.721  -2.190  1.00  0.00    -0.454 OA
ATOM     14  C   UNL     1       9.130  -4.699  -1.299  1.00  0.00     0.468 C 
ENDBRANCH   5   6
ENDBRANCH   1   5
TORSDOF 3
ENDMDL
MODEL 4
REMARK VINA RESULT:      -7.1      1.254      1.463
REMARK SMILES CC(=O)CCc1ccc2c(c1)OCO2
REMARK SMILES IDX 4 1 2 2 1 3 3 4 5 5 6 6 7 7 11 8 8 9 10 10 9 11 12 12 14 13
REMARK SMILES IDX 13 14
REMARK H PARENT
REMARK Flexibility Score: inf
ROOT
ATOM      1  C   UNL     1       6.360   1.209   0.885  1.00  0.00     0.080 C 
ENDROOT
BRANCH   1   2
ATOM      2  C   UNL     1       5.671   0.392   1.922  1.00  0.00     0.130 C 
ATOM      3  C   UNL     1       6.291  -0.837   2.487  1.00  0.00     0.087 C 
ATOM      4  O   UNL     1       4.570   0.711   2.342  1.00  0.00    -0.300 OA
ENDBRANCH   1   2
BRANCH   1   5
ATOM      5  C   UNL     1       5.842   0.887  -0.503  1.00  0.00     0.043 C 
BRANCH   5   6
ATOM      6  C   UNL     1       6.806   0.079  -1.272  1.00  0.00    -0.044 A 
ATOM      7  C   UNL     1       7.505   0.613  -2.361  1.00  0.00     0.008 A 
ATOM      8  C   UNL     1       7.035  -1.231  -0.917  1.00  0.00     0.054 A 
ATOM      9  C   UNL     1       8.398  -0.192  -3.045  1.00  0.00     0.051 A 
ATOM     10  C   UNL     1       7.940  -2.040  -1.611  1.00  0.00     0.166 A 
ATOM     11  C   UNL     1       8.626  -1.517  -2.684  1.00  0.00     0.165 A 
ATOM     12  O   UNL     1       8.336  -3.352  -1.458  1.00  0.00    -0.454 OA
ATOM     13  O   UNL     1       9.440  -2.528  -3.171  1.00  0.00    -0.454 OA
ATOM     14  C   UNL     1       9.354  -3.681  -2.368  1.00  0.00     0.468 C 
ENDBRANCH   5   6
ENDBRANCH   1   5
TORSDOF 3
ENDMDL
MODEL 5
REMARK VINA RESULT:      -6.8      1.262      1.752
REMARK SMILES CC(=O)CCc1ccc2c(c1)OCO2
REMARK SMILES IDX 4 1 2 2 1 3 3 4 5 5 6 6 7 7 11 8 8 9 10 10 9 11 12 12 14 13
REMARK SMILES IDX 13 14
REMARK H PARENT
REMARK Flexibility Score: inf
ROOT
ATOM      1  C   UNL     1       5.331  -0.059   1.973  1.00  0.00     0.080 C 
ENDROOT
BRANCH   1   2
ATOM      2  C   UNL     1       4.459   1.134   1.789  1.00  0.00     0.130 C 
ATOM      3  C   UNL     1       4.736   2.150   0.738  1.00  0.00     0.087 C 
ATOM      4  O   UNL     1       3.484   1.314   2.500  1.00  0.00    -0.300 OA
ENDBRANCH   1   2
BRANCH   1   5
ATOM      5  C   UNL     1       6.798   0.316   1.904  1.00  0.00     0.043 C 
BRANCH   5   6
ATOM      6  C   UNL     1       7.393  -0.039   0.603  1.00  0.00    -0.044 A 
ATOM      7  C   UNL     1       7.870   0.939  -0.277  1.00  0.00     0.008 A 
ATOM      8  C   UNL     1       7.490  -1.362   0.236  1.00  0.00     0.054 A 
ATOM      9  C   UNL     1       8.419   0.546  -1.484  1.00  0.00     0.051 A 
ATOM     10  C   UNL     1       8.046  -1.754  -0.985  1.00  0.00     0.166 A 
ATOM     11  C   UNL     1       8.514  -0.792  -1.852  1.00  0.00     0.165 A 
ATOM     12  O   UNL     1       8.251  -2.985  -1.572  1.00  0.00    -0.454 OA
ATOM     13  O   UNL     1       9.003  -1.459  -2.964  1.00  0.00    -0.454 OA
ATOM     14  C   UNL     1       8.939  -2.854  -2.789  1.00  0.00     0.468 C 
ENDBRANCH   5   6
ENDBRANCH   1   5
TORSDOF 3
ENDMDL
