@<TRIPOS>MOLECULE
/home/cewinharhar/GITHUB/reincatalyze/data/processed/docking_pred/2023-May-25-1902_sub9_nm5_bs15_s42_ex16_mel10_mts10000_k50_ec01_g099_lra3e-4_lrc3e-3/fd751eb3811fc03d22e30b1993ea0072812fb772_ligand_9.pdbqt
 14 15 0 0 0
SMALL
GASTEIGER

@<TRIPOS>ATOM
      1  C          5.7420    1.1830   -0.2840 C.3     1  UNL1        0.0800
      2  C          5.2630    1.2060    1.1270 C.2     1  UNL1        0.1300
      3  C          5.5480    0.0890    2.0670 C.3     1  UNL1        0.0870
      4  O          4.6190    2.1500    1.5540 O.2     1  UNL1       -0.3000
      5  C          7.2470    1.0140   -0.3520 C.3     1  UNL1        0.0430
      6  C          7.6260   -0.2870   -0.9300 C.2     1  UNL1       -0.0440
      7  C          7.6990   -0.4810   -2.3150 C.2     1  UNL1        0.0080
      8  C          7.9190   -1.3440   -0.0990 C.2     1  UNL1        0.0540
      9  C          8.0610   -1.7240   -2.8000 C.2     1  UNL1        0.0510
     10  C          8.2850   -2.5990   -0.5950 C.2     1  UNL1        0.1660
     11  C          8.3560   -2.7900   -1.9570 C.2     1  UNL1        0.1650
     12  O          8.6180   -3.7900    0.0150 O.2     1  UNL1       -0.4540
     13  O          8.7370   -4.1080   -2.1570 O.2     1  UNL1       -0.4540
     14  C          9.0010   -4.7520   -0.9330 C.3     1  UNL1        0.4680
@<TRIPOS>BOND
     1     9     7    1
     2     9    11    2
     3     7     6    2
     4    13    11    1
     5    13    14    1
     6    11    10    1
     7    14    12    1
     8     6     5    1
     9     6     8    1
    10    10     8    2
    11    10    12    1
    12     5     1    1
    13     1     2    1
    14     2     4    2
    15     2     3    1
