@<TRIPOS>MOLECULE
/home/cewinharhar/GITHUB/reincatalyze/data/processed/docking_pred/2023-May-25-1902_sub9_nm5_bs15_s42_ex16_mel10_mts10000_k50_ec01_g099_lra3e-4_lrc3e-3/fd751eb3811fc03d22e30b1993ea0072812fb772_ligand_9.pdbqt
 14 15 0 0 0
SMALL
GASTEIGER

@<TRIPOS>ATOM
      1  C          6.9310    1.0720    1.2690 C.3     1  UNL1        0.0800
      2  C          5.4500    1.1900    1.3810 C.2     1  UNL1        0.1300
      3  C          4.6780    2.1480    0.5450 C.3     1  UNL1        0.0870
      4  O          4.8240    0.4990    2.1670 O.2     1  UNL1       -0.3000
      5  C          7.3870    1.2170   -0.1690 C.3     1  UNL1        0.0430
      6  C          7.7220   -0.0870   -0.7700 C.2     1  UNL1       -0.0440
      7  C          7.8140   -0.2530   -2.1570 C.2     1  UNL1        0.0080
      8  C          7.9560   -1.1730    0.0430 C.2     1  UNL1        0.0540
      9  C          8.1330   -1.5000   -2.6630 C.2     1  UNL1        0.0510
     10  C          8.2780   -2.4310   -0.4740 C.2     1  UNL1        0.1660
     11  C          8.3670   -2.5960   -1.8380 C.2     1  UNL1        0.1650
     12  O          8.5500   -3.6470    0.1150 O.2     1  UNL1       -0.4540
     13  O          8.6960   -3.9240   -2.0610 O.2     1  UNL1       -0.4540
     14  C          8.9110   -4.6040   -0.8480 C.3     1  UNL1        0.4680
@<TRIPOS>BOND
     1     9     7    1
     2     9    11    2
     3     7     6    2
     4    13    11    1
     5    13    14    1
     6    11    10    1
     7    14    12    1
     8     6     5    1
     9     6     8    1
    10    10     8    2
    11    10    12    1
    12     5     1    1
    13     3     2    1
    14     1     2    1
    15     2     4    2
