MODEL 1
REMARK VINA RESULT:      -7.7      0.000      0.000
REMARK SMILES CC(=O)CCc1ccc2c(c1)OCO2
REMARK SMILES IDX 4 1 2 2 1 3 3 4 5 5 6 6 7 7 11 8 8 9 10 10 9 11 12 12 14 13
REMARK SMILES IDX 13 14
REMARK H PARENT
REMARK Flexibility Score: inf
ROOT
ATOM      1  C   UNL     1       5.516   1.913   1.267  1.00  0.00     0.080 C 
ENDROOT
BRANCH   1   2
ATOM      2  C   UNL     1       5.062   0.697   1.998  1.00  0.00     0.130 C 
ATOM      3  C   UNL     1       5.935  -0.499   2.143  1.00  0.00     0.087 C 
ATOM      4  O   UNL     1       3.952   0.647   2.503  1.00  0.00    -0.300 OA
ENDBRANCH   1   2
BRANCH   1   5
ATOM      5  C   UNL     1       5.393   1.731  -0.233  1.00  0.00     0.043 C 
BRANCH   5   6
ATOM      6  C   UNL     1       6.560   1.030  -0.796  1.00  0.00    -0.044 A 
ATOM      7  C   UNL     1       7.867   1.467  -0.549  1.00  0.00     0.008 A 
ATOM      8  C   UNL     1       6.373  -0.083  -1.584  1.00  0.00     0.054 A 
ATOM      9  C   UNL     1       8.924   0.769  -1.104  1.00  0.00     0.051 A 
ATOM     10  C   UNL     1       7.445  -0.786  -2.142  1.00  0.00     0.166 A 
ATOM     11  C   UNL     1       8.731  -0.356  -1.900  1.00  0.00     0.165 A 
ATOM     12  O   UNL     1       7.519  -1.903  -2.947  1.00  0.00    -0.454 OA
ATOM     13  O   UNL     1       9.577  -1.228  -2.568  1.00  0.00    -0.454 OA
ATOM     14  C   UNL     1       8.855  -2.276  -3.169  1.00  0.00     0.468 C 
ENDBRANCH   5   6
ENDBRANCH   1   5
TORSDOF 3
ENDMDL
MODEL 2
REMARK VINA RESULT:      -7.4      1.955      2.454
REMARK SMILES CC(=O)CCc1ccc2c(c1)OCO2
REMARK SMILES IDX 4 1 2 2 1 3 3 4 5 5 6 6 7 7 11 8 8 9 10 10 9 11 12 12 14 13
REMARK SMILES IDX 13 14
REMARK H PARENT
REMARK Flexibility Score: inf
ROOT
ATOM      1  C   UNL     1       5.742   1.183  -0.284  1.00  0.00     0.080 C 
ENDROOT
BRANCH   1   2
ATOM      2  C   UNL     1       5.263   1.206   1.127  1.00  0.00     0.130 C 
ATOM      3  C   UNL     1       5.548   0.089   2.067  1.00  0.00     0.087 C 
ATOM      4  O   UNL     1       4.619   2.150   1.554  1.00  0.00    -0.300 OA
ENDBRANCH   1   2
BRANCH   1   5
ATOM      5  C   UNL     1       7.247   1.014  -0.352  1.00  0.00     0.043 C 
BRANCH   5   6
ATOM      6  C   UNL     1       7.626  -0.287  -0.930  1.00  0.00    -0.044 A 
ATOM      7  C   UNL     1       7.699  -0.481  -2.315  1.00  0.00     0.008 A 
ATOM      8  C   UNL     1       7.919  -1.344  -0.099  1.00  0.00     0.054 A 
ATOM      9  C   UNL     1       8.061  -1.724  -2.800  1.00  0.00     0.051 A 
ATOM     10  C   UNL     1       8.285  -2.599  -0.595  1.00  0.00     0.166 A 
ATOM     11  C   UNL     1       8.356  -2.790  -1.957  1.00  0.00     0.165 A 
ATOM     12  O   UNL     1       8.618  -3.790   0.015  1.00  0.00    -0.454 OA
ATOM     13  O   UNL     1       8.737  -4.108  -2.157  1.00  0.00    -0.454 OA
ATOM     14  C   UNL     1       9.001  -4.752  -0.933  1.00  0.00     0.468 C 
ENDBRANCH   5   6
ENDBRANCH   1   5
TORSDOF 3
ENDMDL
MODEL 3
REMARK VINA RESULT:      -7.3      2.054      2.627
REMARK SMILES CC(=O)CCc1ccc2c(c1)OCO2
REMARK SMILES IDX 4 1 2 2 1 3 3 4 5 5 6 6 7 7 11 8 8 9 10 10 9 11 12 12 14 13
REMARK SMILES IDX 13 14
REMARK H PARENT
REMARK Flexibility Score: inf
ROOT
ATOM      1  C   UNL     1       5.416  -0.054   2.029  1.00  0.00     0.080 C 
ENDROOT
BRANCH   1   2
ATOM      2  C   UNL     1       4.566   1.142   1.769  1.00  0.00     0.130 C 
ATOM      3  C   UNL     1       4.907   2.126   0.708  1.00  0.00     0.087 C 
ATOM      4  O   UNL     1       3.558   1.349   2.426  1.00  0.00    -0.300 OA
ENDBRANCH   1   2
BRANCH   1   5
ATOM      5  C   UNL     1       6.854   0.193   1.615  1.00  0.00     0.043 C 
BRANCH   5   6
ATOM      6  C   UNL     1       7.281  -0.730   0.549  1.00  0.00    -0.044 A 
ATOM      7  C   UNL     1       7.158  -0.394  -0.804  1.00  0.00     0.008 A 
ATOM      8  C   UNL     1       7.817  -1.954   0.880  1.00  0.00     0.054 A 
ATOM      9  C   UNL     1       7.576  -1.300  -1.762  1.00  0.00     0.051 A 
ATOM     10  C   UNL     1       8.240  -2.866  -0.092  1.00  0.00     0.166 A 
ATOM     11  C   UNL     1       8.118  -2.537  -1.423  1.00  0.00     0.165 A 
ATOM     12  O   UNL     1       8.796  -4.125  -0.020  1.00  0.00    -0.454 OA
ATOM     13  O   UNL     1       8.608  -3.611  -2.149  1.00  0.00    -0.454 OA
ATOM     14  C   UNL     1       9.132  -4.602  -1.297  1.00  0.00     0.468 C 
ENDBRANCH   5   6
ENDBRANCH   1   5
TORSDOF 3
ENDMDL
MODEL 4
REMARK VINA RESULT:      -7.1      1.249      1.460
REMARK SMILES CC(=O)CCc1ccc2c(c1)OCO2
REMARK SMILES IDX 4 1 2 2 1 3 3 4 5 5 6 6 7 7 11 8 8 9 10 10 9 11 12 12 14 13
REMARK SMILES IDX 13 14
REMARK H PARENT
REMARK Flexibility Score: inf
ROOT
ATOM      1  C   UNL     1       6.365   1.234   0.882  1.00  0.00     0.080 C 
ENDROOT
BRANCH   1   2
ATOM      2  C   UNL     1       5.666   0.416   1.912  1.00  0.00     0.130 C 
ATOM      3  C   UNL     1       6.290  -0.798   2.502  1.00  0.00     0.087 C 
ATOM      4  O   UNL     1       4.551   0.722   2.304  1.00  0.00    -0.300 OA
ENDBRANCH   1   2
BRANCH   1   5
ATOM      5  C   UNL     1       5.852   0.923  -0.509  1.00  0.00     0.043 C 
BRANCH   5   6
ATOM      6  C   UNL     1       6.809   0.103  -1.274  1.00  0.00    -0.044 A 
ATOM      7  C   UNL     1       7.509   0.624  -2.369  1.00  0.00     0.008 A 
ATOM      8  C   UNL     1       7.029  -1.206  -0.911  1.00  0.00     0.054 A 
ATOM      9  C   UNL     1       8.395  -0.192  -3.048  1.00  0.00     0.051 A 
ATOM     10  C   UNL     1       7.927  -2.027  -1.600  1.00  0.00     0.166 A 
ATOM     11  C   UNL     1       8.615  -1.516  -2.678  1.00  0.00     0.165 A 
ATOM     12  O   UNL     1       8.314  -3.340  -1.438  1.00  0.00    -0.454 OA
ATOM     13  O   UNL     1       9.420  -2.536  -3.160  1.00  0.00    -0.454 OA
ATOM     14  C   UNL     1       9.328  -3.682  -2.348  1.00  0.00     0.468 C 
ENDBRANCH   5   6
ENDBRANCH   1   5
TORSDOF 3
ENDMDL
MODEL 5
REMARK VINA RESULT:      -7.0      1.959      2.484
REMARK SMILES CC(=O)CCc1ccc2c(c1)OCO2
REMARK SMILES IDX 4 1 2 2 1 3 3 4 5 5 6 6 7 7 11 8 8 9 10 10 9 11 12 12 14 13
REMARK SMILES IDX 13 14
REMARK H PARENT
REMARK Flexibility Score: inf
ROOT
ATOM      1  C   UNL     1       6.931   1.072   1.269  1.00  0.00     0.080 C 
ENDROOT
BRANCH   1   2
ATOM      2  C   UNL     1       5.450   1.190   1.381  1.00  0.00     0.130 C 
ATOM      3  C   UNL     1       4.678   2.148   0.545  1.00  0.00     0.087 C 
ATOM      4  O   UNL     1       4.824   0.499   2.167  1.00  0.00    -0.300 OA
ENDBRANCH   1   2
BRANCH   1   5
ATOM      5  C   UNL     1       7.387   1.217  -0.169  1.00  0.00     0.043 C 
BRANCH   5   6
ATOM      6  C   UNL     1       7.722  -0.087  -0.770  1.00  0.00    -0.044 A 
ATOM      7  C   UNL     1       7.814  -0.253  -2.157  1.00  0.00     0.008 A 
ATOM      8  C   UNL     1       7.956  -1.173   0.043  1.00  0.00     0.054 A 
ATOM      9  C   UNL     1       8.133  -1.500  -2.663  1.00  0.00     0.051 A 
ATOM     10  C   UNL     1       8.278  -2.431  -0.474  1.00  0.00     0.166 A 
ATOM     11  C   UNL     1       8.367  -2.596  -1.838  1.00  0.00     0.165 A 
ATOM     12  O   UNL     1       8.550  -3.647   0.115  1.00  0.00    -0.454 OA
ATOM     13  O   UNL     1       8.696  -3.924  -2.061  1.00  0.00    -0.454 OA
ATOM     14  C   UNL     1       8.911  -4.604  -0.848  1.00  0.00     0.468 C 
ENDBRANCH   5   6
ENDBRANCH   1   5
TORSDOF 3
ENDMDL
