@<TRIPOS>MOLECULE
/home/cewinharhar/GITHUB/reincatalyze/data/processed/docking_pred/2023-May-25-1902_sub9_nm5_bs15_s42_ex16_mel10_mts10000_k50_ec01_g099_lra3e-4_lrc3e-3/ff0363d9ee1910d446632d9597fe578fef33cb13_ligand_9.pdbqt
 14 15 0 0 0
SMALL
GASTEIGER

@<TRIPOS>ATOM
      1  C          5.5420    1.9150    1.2720 C.3     1  UNL1        0.0800
      2  C          5.1050    0.7010    2.0160 C.2     1  UNL1        0.1300
      3  C          6.0060   -0.4690    2.1970 C.3     1  UNL1        0.0870
      4  O          3.9880    0.6310    2.5010 O.2     1  UNL1       -0.3000
      5  C          5.4080    1.7210   -0.2260 C.3     1  UNL1        0.0430
      6  C          6.5740    1.0210   -0.7920 C.2     1  UNL1       -0.0440
      7  C          7.8810    1.4520   -0.5410 C.2     1  UNL1        0.0080
      8  C          6.3850   -0.0870   -1.5870 C.2     1  UNL1        0.0540
      9  C          8.9370    0.7550   -1.1000 C.2     1  UNL1        0.0510
     10  C          7.4550   -0.7890   -2.1480 C.2     1  UNL1        0.1660
     11  C          8.7420   -0.3640   -1.9030 C.2     1  UNL1        0.1650
     12  O          7.5270   -1.9010   -2.9600 O.2     1  UNL1       -0.4540
     13  O          9.5860   -1.2340   -2.5750 O.2     1  UNL1       -0.4540
     14  C          8.8620   -2.2770   -3.1840 C.3     1  UNL1        0.4680
@<TRIPOS>BOND
     1    14    12    1
     2    14    13    1
     3    12    10    1
     4    13    11    1
     5    10    11    2
     6    10     8    1
     7    11     9    1
     8     8     6    2
     9     9     7    2
    10     6     7    1
    11     6     5    1
    12     5     1    1
    13     1     2    1
    14     2     3    1
    15     2     4    2
