MODEL        1
REMARK  Name = /home/cewinharhar/GITHUB/reincatalyze/data/wasteBin/vinaTmp.pdbqt
REMARK  3 active torsions:
REMARK  status: ('A' for Active; 'I' for Inactive)
REMARK    1  A    between atoms: C_1  and  C_2
REMARK    2  A    between atoms: C_1  and  C_5
REMARK    3  A    between atoms: C_5  and  C_6
REMARK                            x       y       z     vdW  Elec       q    Type
REMARK                         _______ _______ _______ _____ _____    ______ ____
ROOT
ATOM      1  C   UNL     1       6.655   1.476   1.123  0.00  0.00    -0.044 C 
ATOM      2  C   UNL     1       6.839   1.182  -0.213  0.00  0.00    +0.008 C 
ATOM      3  C   UNL     1       7.213   0.618   2.054  0.00  0.00    +0.054 C 
ATOM      4  C   UNL     1       7.559   0.067  -0.632  0.00  0.00    +0.051 C 
ATOM      5  C   UNL     1       7.939  -0.506   1.664  0.00  0.00    +0.166 C 
ATOM      6  C   UNL     1       8.106  -0.772   0.321  0.00  0.00    +0.165 C 
ATOM      7  O   UNL     1       8.600  -1.522   2.353  0.00  0.00    -0.454 OA
ATOM      8  O   UNL     1       8.857  -1.933   0.211  0.00  0.00    -0.454 OA
ATOM      9  C   UNL     1       8.947  -2.568   1.483  0.00  0.00    +0.468 C 
ENDROOT
BRANCH   1  10
ATOM     10  C   UNL     1       5.889   2.660   1.521  0.00  0.00    +0.043 C 
BRANCH  10  11
ATOM     11  C   UNL     1       6.798   3.864   1.648  0.00  0.00    +0.080 C 
BRANCH  11  12
ATOM     12  C   UNL     1       6.810   4.383   3.030  0.00  0.00    +0.130 C 
ATOM     13  C   UNL     1       7.545   3.639   4.073  0.00  0.00    +0.087 C 
ATOM     14  O   UNL     1       6.219   5.404   3.280  0.00  0.00    -0.300 OA
ENDBRANCH  11  12
ENDBRANCH  10  11
ENDBRANCH   1  10
TORSDOF 3
ENDMDL
MODEL        2
REMARK  Name = /home/cewinharhar/GITHUB/reincatalyze/data/wasteBin/vinaTmp.pdbqt
REMARK  3 active torsions:
REMARK  status: ('A' for Active; 'I' for Inactive)
REMARK    1  A    between atoms: C_1  and  C_2
REMARK    2  A    between atoms: C_1  and  C_5
REMARK    3  A    between atoms: C_5  and  C_6
REMARK                            x       y       z     vdW  Elec       q    Type
REMARK                         _______ _______ _______ _____ _____    ______ ____
ROOT
ATOM      1  C   UNL     1       6.380   1.129   1.142  0.00  0.00    -0.044 C 
ATOM      2  C   UNL     1       6.127   0.657   2.413  0.00  0.00    +0.008 C 
ATOM      3  C   UNL     1       7.215   0.379   0.332  0.00  0.00    +0.054 C 
ATOM      4  C   UNL     1       6.681  -0.529   2.887  0.00  0.00    +0.051 C 
ATOM      5  C   UNL     1       7.784  -0.811   0.777  0.00  0.00    +0.166 C 
ATOM      6  C   UNL     1       7.511  -1.256   2.054  0.00  0.00    +0.165 C 
ATOM      7  O   UNL     1       8.638  -1.753   0.205  0.00  0.00    -0.454 OA
ATOM      8  O   UNL     1       8.195  -2.449   2.241  0.00  0.00    -0.454 OA
ATOM      9  C   UNL     1       9.127  -2.638   1.179  0.00  0.00    +0.468 C 
ENDROOT
BRANCH   1  10
ATOM     10  C   UNL     1       5.776   2.383   0.684  0.00  0.00    +0.043 C 
BRANCH  10  11
ATOM     11  C   UNL     1       5.530   3.313   1.854  0.00  0.00    +0.080 C 
BRANCH  11  12
ATOM     12  C   UNL     1       6.700   4.178   2.105  0.00  0.00    +0.130 C 
ATOM     13  C   UNL     1       7.051   4.530   3.495  0.00  0.00    +0.087 C 
ATOM     14  O   UNL     1       7.346   4.580   1.168  0.00  0.00    -0.300 OA
ENDBRANCH  11  12
ENDBRANCH  10  11
ENDBRANCH   1  10
TORSDOF 3
ENDMDL
MODEL        3
REMARK  Name = /home/cewinharhar/GITHUB/reincatalyze/data/wasteBin/vinaTmp.pdbqt
REMARK  3 active torsions:
REMARK  status: ('A' for Active; 'I' for Inactive)
REMARK    1  A    between atoms: C_1  and  C_2
REMARK    2  A    between atoms: C_1  and  C_5
REMARK    3  A    between atoms: C_5  and  C_6
REMARK                            x       y       z     vdW  Elec       q    Type
REMARK                         _______ _______ _______ _____ _____    ______ ____
ROOT
ATOM      1  C   UNL     1       6.295   2.053   1.649  0.00  0.00    -0.044 C 
ATOM      2  C   UNL     1       5.609   1.314   2.590  0.00  0.00    +0.008 C 
ATOM      3  C   UNL     1       7.310   1.422   0.951  0.00  0.00    +0.054 C 
ATOM      4  C   UNL     1       5.909  -0.021   2.846  0.00  0.00    +0.051 C 
ATOM      5  C   UNL     1       7.633   0.088   1.185  0.00  0.00    +0.166 C 
ATOM      6  C   UNL     1       6.928  -0.624   2.133  0.00  0.00    +0.165 C 
ATOM      7  O   UNL     1       8.577  -0.790   0.653  0.00  0.00    -0.454 OA
ATOM      8  O   UNL     1       7.445  -1.911   2.166  0.00  0.00    -0.454 OA
ATOM      9  C   UNL     1       8.665  -1.956   1.431  0.00  0.00    +0.468 C 
ENDROOT
BRANCH   1  10
ATOM     10  C   UNL     1       5.947   3.457   1.413  0.00  0.00    +0.043 C 
BRANCH  10  11
ATOM     11  C   UNL     1       7.063   4.368   1.880  0.00  0.00    +0.080 C 
BRANCH  11  12
ATOM     12  C   UNL     1       6.890   4.742   3.298  0.00  0.00    +0.130 C 
ATOM     13  C   UNL     1       7.729   4.089   4.323  0.00  0.00    +0.087 C 
ATOM     14  O   UNL     1       6.066   5.573   3.590  0.00  0.00    -0.300 OA
ENDBRANCH  11  12
ENDBRANCH  10  11
ENDBRANCH   1  10
TORSDOF 3
ENDMDL
MODEL        4
REMARK  Name = /home/cewinharhar/GITHUB/reincatalyze/data/wasteBin/vinaTmp.pdbqt
REMARK  3 active torsions:
REMARK  status: ('A' for Active; 'I' for Inactive)
REMARK    1  A    between atoms: C_1  and  C_2
REMARK    2  A    between atoms: C_1  and  C_5
REMARK    3  A    between atoms: C_5  and  C_6
REMARK                            x       y       z     vdW  Elec       q    Type
REMARK                         _______ _______ _______ _____ _____    ______ ____
ROOT
ATOM      1  C   UNL     1       6.754   0.969   1.517  0.00  0.00    -0.044 C 
ATOM      2  C   UNL     1       6.010   1.823   0.730  0.00  0.00    +0.008 C 
ATOM      3  C   UNL     1       7.293   1.477   2.686  0.00  0.00    +0.054 C 
ATOM      4  C   UNL     1       5.795   3.154   1.080  0.00  0.00    +0.051 C 
ATOM      5  C   UNL     1       7.095   2.803   3.062  0.00  0.00    +0.166 C 
ATOM      6  C   UNL     1       6.346   3.632   2.254  0.00  0.00    +0.165 C 
ATOM      7  O   UNL     1       7.501   3.574   4.151  0.00  0.00    -0.454 OA
ATOM      8  O   UNL     1       6.306   4.883   2.853  0.00  0.00    -0.454 OA
ATOM      9  C   UNL     1       7.255   4.937   3.914  0.00  0.00    +0.468 C 
ENDROOT
BRANCH   1  10
ATOM     10  C   UNL     1       6.956  -0.424   1.110  0.00  0.00    +0.043 C 
BRANCH  10  11
ATOM     11  C   UNL     1       8.312  -0.597   0.457  0.00  0.00    +0.080 C 
BRANCH  11  12
ATOM     12  C   UNL     1       8.204  -0.566  -1.015  0.00  0.00    +0.130 C 
ATOM     13  C   UNL     1       9.009   0.410  -1.777  0.00  0.00    +0.087 C 
ATOM     14  O   UNL     1       7.460  -1.339  -1.567  0.00  0.00    -0.300 OA
ENDBRANCH  11  12
ENDBRANCH  10  11
ENDBRANCH   1  10
TORSDOF 3
ENDMDL
MODEL        5
REMARK  Name = /home/cewinharhar/GITHUB/reincatalyze/data/wasteBin/vinaTmp.pdbqt
REMARK  3 active torsions:
REMARK  status: ('A' for Active; 'I' for Inactive)
REMARK    1  A    between atoms: C_1  and  C_2
REMARK    2  A    between atoms: C_1  and  C_5
REMARK    3  A    between atoms: C_5  and  C_6
REMARK                            x       y       z     vdW  Elec       q    Type
REMARK                         _______ _______ _______ _____ _____    ______ ____
ROOT
ATOM      1  C   UNL     1       6.687   0.893   1.607  0.00  0.00    -0.044 C 
ATOM      2  C   UNL     1       5.988   1.733   0.765  0.00  0.00    +0.008 C 
ATOM      3  C   UNL     1       7.214   1.437   2.765  0.00  0.00    +0.054 C 
ATOM      4  C   UNL     1       5.807   3.084   1.049  0.00  0.00    +0.051 C 
ATOM      5  C   UNL     1       7.049   2.784   3.077  0.00  0.00    +0.166 C 
ATOM      6  C   UNL     1       6.344   3.598   2.214  0.00  0.00    +0.165 C 
ATOM      7  O   UNL     1       7.453   3.592   4.140  0.00  0.00    -0.454 OA
ATOM      8  O   UNL     1       6.329   4.875   2.755  0.00  0.00    -0.454 OA
ATOM      9  C   UNL     1       7.255   4.949   3.836  0.00  0.00    +0.468 C 
ENDROOT
BRANCH   1  10
ATOM     10  C   UNL     1       6.855  -0.523   1.269  0.00  0.00    +0.043 C 
BRANCH  10  11
ATOM     11  C   UNL     1       8.301  -0.821   0.931  0.00  0.00    +0.080 C 
BRANCH  11  12
ATOM     12  C   UNL     1       8.814  -1.954   1.728  0.00  0.00    +0.130 C 
ATOM     13  C   UNL     1       8.985  -1.790   3.186  0.00  0.00    +0.087 C 
ATOM     14  O   UNL     1       9.082  -2.990   1.172  0.00  0.00    -0.300 OA
ENDBRANCH  11  12
ENDBRANCH  10  11
ENDBRANCH   1  10
TORSDOF 3
ENDMDL
MODEL        6
REMARK  Name = /home/cewinharhar/GITHUB/reincatalyze/data/wasteBin/vinaTmp.pdbqt
REMARK  3 active torsions:
REMARK  status: ('A' for Active; 'I' for Inactive)
REMARK    1  A    between atoms: C_1  and  C_2
REMARK    2  A    between atoms: C_1  and  C_5
REMARK    3  A    between atoms: C_5  and  C_6
REMARK                            x       y       z     vdW  Elec       q    Type
REMARK                         _______ _______ _______ _____ _____    ______ ____
ROOT
ATOM      1  C   UNL     1       6.254   1.870   1.679  0.00  0.00    -0.044 C 
ATOM      2  C   UNL     1       6.195   0.694   2.398  0.00  0.00    +0.008 C 
ATOM      3  C   UNL     1       6.801   1.821   0.409  0.00  0.00    +0.054 C 
ATOM      4  C   UNL     1       6.663  -0.512   1.884  0.00  0.00    +0.051 C 
ATOM      5  C   UNL     1       7.277   0.630  -0.132  0.00  0.00    +0.166 C 
ATOM      6  C   UNL     1       7.204  -0.529   0.612  0.00  0.00    +0.165 C 
ATOM      7  O   UNL     1       7.863   0.282  -1.349  0.00  0.00    -0.454 OA
ATOM      8  O   UNL     1       7.740  -1.556  -0.152  0.00  0.00    -0.454 OA
ATOM      9  C   UNL     1       8.408  -1.011  -1.286  0.00  0.00    +0.468 C 
ENDROOT
BRANCH   1  10
ATOM     10  C   UNL     1       5.750   3.119   2.259  0.00  0.00    +0.043 C 
BRANCH  10  11
ATOM     11  C   UNL     1       6.825   4.186   2.240  0.00  0.00    +0.080 C 
BRANCH  11  12
ATOM     12  C   UNL     1       6.890   4.904   3.529  0.00  0.00    +0.130 C 
ATOM     13  C   UNL     1       7.873   4.475   4.544  0.00  0.00    +0.087 C 
ATOM     14  O   UNL     1       6.138   5.826   3.727  0.00  0.00    -0.300 OA
ENDBRANCH  11  12
ENDBRANCH  10  11
ENDBRANCH   1  10
TORSDOF 3
ENDMDL
MODEL        7
REMARK  Name = /home/cewinharhar/GITHUB/reincatalyze/data/wasteBin/vinaTmp.pdbqt
REMARK  3 active torsions:
REMARK  status: ('A' for Active; 'I' for Inactive)
REMARK    1  A    between atoms: C_1  and  C_2
REMARK    2  A    between atoms: C_1  and  C_5
REMARK    3  A    between atoms: C_5  and  C_6
REMARK                            x       y       z     vdW  Elec       q    Type
REMARK                         _______ _______ _______ _____ _____    ______ ____
ROOT
ATOM      1  C   UNL     1       6.703   0.051   1.865  0.00  0.00    -0.044 C 
ATOM      2  C   UNL     1       6.526   1.186   1.101  0.00  0.00    +0.008 C 
ATOM      3  C   UNL     1       7.404  -1.001   1.302  0.00  0.00    +0.054 C 
ATOM      4  C   UNL     1       7.026   1.292  -0.194  0.00  0.00    +0.051 C 
ATOM      5  C   UNL     1       7.916  -0.924   0.009  0.00  0.00    +0.166 C 
ATOM      6  C   UNL     1       7.722   0.225  -0.729  0.00  0.00    +0.165 C 
ATOM      7  O   UNL     1       8.643  -1.796  -0.801  0.00  0.00    -0.454 OA
ATOM      8  O   UNL     1       8.325   0.040  -1.965  0.00  0.00    -0.454 OA
ATOM      9  C   UNL     1       8.677  -1.332  -2.126  0.00  0.00    +0.468 C 
ENDROOT
BRANCH   1  10
ATOM     10  C   UNL     1       6.159  -0.019   3.225  0.00  0.00    +0.043 C 
BRANCH  10  11
ATOM     11  C   UNL     1       7.150  -0.678   4.161  0.00  0.00    +0.080 C 
BRANCH  11  12
ATOM     12  C   UNL     1       8.314   0.195   4.409  0.00  0.00    +0.130 C 
ATOM     13  C   UNL     1       8.091   1.611   4.761  0.00  0.00    +0.087 C 
ATOM     14  O   UNL     1       9.425  -0.268   4.319  0.00  0.00    -0.300 OA
ENDBRANCH  11  12
ENDBRANCH  10  11
ENDBRANCH   1  10
TORSDOF 3
ENDMDL
MODEL        8
REMARK  Name = /home/cewinharhar/GITHUB/reincatalyze/data/wasteBin/vinaTmp.pdbqt
REMARK  3 active torsions:
REMARK  status: ('A' for Active; 'I' for Inactive)
REMARK    1  A    between atoms: C_1  and  C_2
REMARK    2  A    between atoms: C_1  and  C_5
REMARK    3  A    between atoms: C_5  and  C_6
REMARK                            x       y       z     vdW  Elec       q    Type
REMARK                         _______ _______ _______ _____ _____    ______ ____
ROOT
ATOM      1  C   UNL     1       5.995   0.574   2.907  0.00  0.00    -0.044 C 
ATOM      2  C   UNL     1       6.592   0.162   4.080  0.00  0.00    +0.008 C 
ATOM      3  C   UNL     1       6.391  -0.042   1.732  0.00  0.00    +0.054 C 
ATOM      4  C   UNL     1       7.561  -0.837   4.107  0.00  0.00    +0.051 C 
ATOM      5  C   UNL     1       7.358  -1.045   1.728  0.00  0.00    +0.166 C 
ATOM      6  C   UNL     1       7.936  -1.435   2.918  0.00  0.00    +0.165 C 
ATOM      7  O   UNL     1       7.943  -1.826   0.731  0.00  0.00    -0.454 OA
ATOM      8  O   UNL     1       8.854  -2.435   2.634  0.00  0.00    -0.454 OA
ATOM      9  C   UNL     1       9.067  -2.506   1.227  0.00  0.00    +0.468 C 
ENDROOT
BRANCH   1  10
ATOM     10  C   UNL     1       4.979   1.630   2.924  0.00  0.00    +0.043 C 
BRANCH  10  11
ATOM     11  C   UNL     1       5.191   2.591   1.772  0.00  0.00    +0.080 C 
BRANCH  11  12
ATOM     12  C   UNL     1       6.149   3.656   2.133  0.00  0.00    +0.130 C 
ATOM     13  C   UNL     1       7.154   4.087   1.140  0.00  0.00    +0.087 C 
ATOM     14  O   UNL     1       6.091   4.151   3.231  0.00  0.00    -0.300 OA
ENDBRANCH  11  12
ENDBRANCH  10  11
ENDBRANCH   1  10
TORSDOF 3
ENDMDL
MODEL        9
REMARK  Name = /home/cewinharhar/GITHUB/reincatalyze/data/wasteBin/vinaTmp.pdbqt
REMARK  3 active torsions:
REMARK  status: ('A' for Active; 'I' for Inactive)
REMARK    1  A    between atoms: C_1  and  C_2
REMARK    2  A    between atoms: C_1  and  C_5
REMARK    3  A    between atoms: C_5  and  C_6
REMARK                            x       y       z     vdW  Elec       q    Type
REMARK                         _______ _______ _______ _____ _____    ______ ____
ROOT
ATOM      1  C   UNL     1       6.422   0.977   1.271  0.00  0.00    -0.044 C 
ATOM      2  C   UNL     1       6.694  -0.260   1.819  0.00  0.00    +0.008 C 
ATOM      3  C   UNL     1       6.906   1.240   0.002  0.00  0.00    +0.054 C 
ATOM      4  C   UNL     1       7.428  -1.226   1.136  0.00  0.00    +0.051 C 
ATOM      5  C   UNL     1       7.644   0.293  -0.705  0.00  0.00    +0.166 C 
ATOM      6  C   UNL     1       7.899  -0.935  -0.131  0.00  0.00    +0.165 C 
ATOM      7  O   UNL     1       8.244   0.272  -1.964  0.00  0.00    -0.454 OA
ATOM      8  O   UNL     1       8.642  -1.678  -1.036  0.00  0.00    -0.454 OA
ATOM      9  C   UNL     1       9.100  -0.834  -2.088  0.00  0.00    +0.468 C 
ENDROOT
BRANCH   1  10
ATOM     10  C   UNL     1       5.646   1.965   2.025  0.00  0.00    +0.043 C 
BRANCH  10  11
ATOM     11  C   UNL     1       5.959   3.367   1.545  0.00  0.00    +0.080 C 
BRANCH  11  12
ATOM     12  C   UNL     1       6.832   4.078   2.501  0.00  0.00    +0.130 C 
ATOM     13  C   UNL     1       7.248   3.395   3.742  0.00  0.00    +0.087 C 
ATOM     14  O   UNL     1       7.188   5.202   2.247  0.00  0.00    -0.300 OA
ENDBRANCH  11  12
ENDBRANCH  10  11
ENDBRANCH   1  10
TORSDOF 3
ENDMDL
MODEL       10
REMARK  Name = /home/cewinharhar/GITHUB/reincatalyze/data/wasteBin/vinaTmp.pdbqt
REMARK  3 active torsions:
REMARK  status: ('A' for Active; 'I' for Inactive)
REMARK    1  A    between atoms: C_1  and  C_2
REMARK    2  A    between atoms: C_1  and  C_5
REMARK    3  A    between atoms: C_5  and  C_6
REMARK                            x       y       z     vdW  Elec       q    Type
REMARK                         _______ _______ _______ _____ _____    ______ ____
ROOT
ATOM      1  C   UNL     1       6.694   2.852   2.077  0.00  0.00    -0.044 C 
ATOM      2  C   UNL     1       6.383   2.470   0.789  0.00  0.00    +0.008 C 
ATOM      3  C   UNL     1       7.217   1.892   2.925  0.00  0.00    +0.054 C 
ATOM      4  C   UNL     1       6.580   1.168   0.335  0.00  0.00    +0.051 C 
ATOM      5  C   UNL     1       7.426   0.582   2.500  0.00  0.00    +0.166 C 
ATOM      6  C   UNL     1       7.104   0.231   1.205  0.00  0.00    +0.165 C 
ATOM      7  O   UNL     1       7.924  -0.569   3.109  0.00  0.00    -0.454 OA
ATOM      8  O   UNL     1       7.406  -1.113   1.045  0.00  0.00    -0.454 OA
ATOM      9  C   UNL     1       7.671  -1.700   2.316  0.00  0.00    +0.468 C 
ENDROOT
BRANCH   1  10
ATOM     10  C   UNL     1       6.470   4.234   2.514  0.00  0.00    +0.043 C 
BRANCH  10  11
ATOM     11  C   UNL     1       7.263   4.530   3.770  0.00  0.00    +0.080 C 
BRANCH  11  12
ATOM     12  C   UNL     1       7.007   5.902   4.253  0.00  0.00    +0.130 C 
ATOM     13  C   UNL     1       8.098   6.651   4.908  0.00  0.00    +0.087 C 
ATOM     14  O   UNL     1       5.911   6.382   4.104  0.00  0.00    -0.300 OA
ENDBRANCH  11  12
ENDBRANCH  10  11
ENDBRANCH   1  10
TORSDOF 3
ENDMDL
