MODEL        1
REMARK  Name = /home/cewinharhar/GITHUB/reincatalyze/data/wasteBin/vinaTmp.pdbqt
REMARK  3 active torsions:
REMARK  status: ('A' for Active; 'I' for Inactive)
REMARK    1  A    between atoms: C_1  and  C_2
REMARK    2  A    between atoms: C_1  and  C_5
REMARK    3  A    between atoms: C_5  and  C_6
REMARK                            x       y       z     vdW  Elec       q    Type
REMARK                         _______ _______ _______ _____ _____    ______ ____
ROOT
ATOM      1  C   UNL     1       6.590   1.182   0.872  0.00  0.00    -0.044 C 
ATOM      2  C   UNL     1       7.163   1.088  -0.378  0.00  0.00    +0.008 C 
ATOM      3  C   UNL     1       6.778   0.131   1.784  0.00  0.00    +0.054 C 
ATOM      4  C   UNL     1       7.907  -0.038  -0.705  0.00  0.00    +0.051 C 
ATOM      5  C   UNL     1       7.514  -0.978   1.451  0.00  0.00    +0.166 C 
ATOM      6  C   UNL     1       8.081  -1.061   0.199  0.00  0.00    +0.165 C 
ATOM      7  O   UNL     1       7.859  -2.154   2.146  0.00  0.00    -0.454 OA
ATOM      8  O   UNL     1       8.760  -2.291   0.161  0.00  0.00    -0.454 OA
ATOM      9  C   UNL     1       9.049  -2.615   1.511  0.00  0.00    +0.468 C 
ENDROOT
BRANCH   1  10
ATOM     10  C   UNL     1       5.768   2.354   1.248  0.00  0.00    +0.043 C 
BRANCH  10  11
ATOM     11  C   UNL     1       6.545   3.601   1.443  0.00  0.00    +0.080 C 
BRANCH  11  12
ATOM     12  C   UNL     1       6.656   4.095   2.811  0.00  0.00    +0.130 C 
ATOM     13  C   UNL     1       7.384   3.228   3.798  0.00  0.00    +0.087 C 
ATOM     14  O   UNL     1       6.204   5.133   3.169  0.00  0.00    -0.300 OA
ENDBRANCH  11  12
ENDBRANCH  10  11
ENDBRANCH   1  10
TORSDOF 3
ENDMDL
MODEL        2
REMARK  Name = /home/cewinharhar/GITHUB/reincatalyze/data/wasteBin/vinaTmp.pdbqt
REMARK  3 active torsions:
REMARK  status: ('A' for Active; 'I' for Inactive)
REMARK    1  A    between atoms: C_1  and  C_2
REMARK    2  A    between atoms: C_1  and  C_5
REMARK    3  A    between atoms: C_5  and  C_6
REMARK                            x       y       z     vdW  Elec       q    Type
REMARK                         _______ _______ _______ _____ _____    ______ ____
ROOT
ATOM      1  C   UNL     1       6.431   1.242   0.990  0.00  0.00    -0.044 C 
ATOM      2  C   UNL     1       6.533   0.083   1.726  0.00  0.00    +0.008 C 
ATOM      3  C   UNL     1       7.084   1.317  -0.250  0.00  0.00    +0.054 C 
ATOM      4  C   UNL     1       7.278  -0.979   1.229  0.00  0.00    +0.051 C 
ATOM      5  C   UNL     1       7.818   0.263  -0.734  0.00  0.00    +0.166 C 
ATOM      6  C   UNL     1       7.914  -0.891   0.012  0.00  0.00    +0.165 C 
ATOM      7  O   UNL     1       8.561   0.062  -1.914  0.00  0.00    -0.454 OA
ATOM      8  O   UNL     1       8.717  -1.770  -0.735  0.00  0.00    -0.454 OA
ATOM      9  C   UNL     1       8.595  -1.352  -2.084  0.00  0.00    +0.468 C 
ENDROOT
BRANCH   1  10
ATOM     10  C   UNL     1       5.668   2.404   1.499  0.00  0.00    +0.043 C 
BRANCH  10  11
ATOM     11  C   UNL     1       6.463   3.651   1.603  0.00  0.00    +0.080 C 
BRANCH  11  12
ATOM     12  C   UNL     1       6.693   4.170   2.946  0.00  0.00    +0.130 C 
ATOM     13  C   UNL     1       7.454   3.294   3.900  0.00  0.00    +0.087 C 
ATOM     14  O   UNL     1       6.312   5.234   3.310  0.00  0.00    -0.300 OA
ENDBRANCH  11  12
ENDBRANCH  10  11
ENDBRANCH   1  10
TORSDOF 3
ENDMDL
MODEL        3
REMARK  Name = /home/cewinharhar/GITHUB/reincatalyze/data/wasteBin/vinaTmp.pdbqt
REMARK  3 active torsions:
REMARK  status: ('A' for Active; 'I' for Inactive)
REMARK    1  A    between atoms: C_1  and  C_2
REMARK    2  A    between atoms: C_1  and  C_5
REMARK    3  A    between atoms: C_5  and  C_6
REMARK                            x       y       z     vdW  Elec       q    Type
REMARK                         _______ _______ _______ _____ _____    ______ ____
ROOT
ATOM      1  C   UNL     1       7.472   0.726   0.891  0.00  0.00    -0.044 C 
ATOM      2  C   UNL     1       6.901   1.819   0.276  0.00  0.00    +0.008 C 
ATOM      3  C   UNL     1       6.916   0.257   2.091  0.00  0.00    +0.054 C 
ATOM      4  C   UNL     1       5.795   2.428   0.855  0.00  0.00    +0.051 C 
ATOM      5  C   UNL     1       5.824   0.865   2.657  0.00  0.00    +0.166 C 
ATOM      6  C   UNL     1       5.262   1.957   2.034  0.00  0.00    +0.165 C 
ATOM      7  O   UNL     1       5.074   0.618   3.824  0.00  0.00    -0.454 OA
ATOM      8  O   UNL     1       4.180   2.350   2.840  0.00  0.00    -0.454 OA
ATOM      9  C   UNL     1       3.797   1.193   3.564  0.00  0.00    +0.468 C 
ENDROOT
BRANCH   1  10
ATOM     10  C   UNL     1       8.667   0.067   0.318  0.00  0.00    +0.043 C 
BRANCH  10  11
ATOM     11  C   UNL     1       9.177   0.706  -0.918  0.00  0.00    +0.080 C 
BRANCH  11  12
ATOM     12  C   UNL     1       8.929   0.000  -2.170  0.00  0.00    +0.130 C 
ATOM     13  C   UNL     1       8.633  -1.470  -2.082  0.00  0.00    +0.087 C 
ATOM     14  O   UNL     1       8.950   0.528  -3.233  0.00  0.00    -0.300 OA
ENDBRANCH  11  12
ENDBRANCH  10  11
ENDBRANCH   1  10
TORSDOF 3
ENDMDL
MODEL        4
REMARK  Name = /home/cewinharhar/GITHUB/reincatalyze/data/wasteBin/vinaTmp.pdbqt
REMARK  3 active torsions:
REMARK  status: ('A' for Active; 'I' for Inactive)
REMARK    1  A    between atoms: C_1  and  C_2
REMARK    2  A    between atoms: C_1  and  C_5
REMARK    3  A    between atoms: C_5  and  C_6
REMARK                            x       y       z     vdW  Elec       q    Type
REMARK                         _______ _______ _______ _____ _____    ______ ____
ROOT
ATOM      1  C   UNL     1       6.480   1.936   1.601  0.00  0.00    -0.044 C 
ATOM      2  C   UNL     1       5.691   1.197   2.454  0.00  0.00    +0.008 C 
ATOM      3  C   UNL     1       7.643   1.351   1.075  0.00  0.00    +0.054 C 
ATOM      4  C   UNL     1       6.063  -0.103   2.774  0.00  0.00    +0.051 C 
ATOM      5  C   UNL     1       8.002   0.066   1.396  0.00  0.00    +0.166 C 
ATOM      6  C   UNL     1       7.206  -0.663   2.251  0.00  0.00    +0.165 C 
ATOM      7  O   UNL     1       9.085  -0.757   1.029  0.00  0.00    -0.454 OA
ATOM      8  O   UNL     1       7.826  -1.917   2.384  0.00  0.00    -0.454 OA
ATOM      9  C   UNL     1       8.610  -2.087   1.215  0.00  0.00    +0.468 C 
ENDROOT
BRANCH   1  10
ATOM     10  C   UNL     1       6.132   3.334   1.258  0.00  0.00    +0.043 C 
BRANCH  10  11
ATOM     11  C   UNL     1       7.066   4.343   1.808  0.00  0.00    +0.080 C 
BRANCH  11  12
ATOM     12  C   UNL     1       6.853   4.743   3.195  0.00  0.00    +0.130 C 
ATOM     13  C   UNL     1       7.708   4.083   4.239  0.00  0.00    +0.087 C 
ATOM     14  O   UNL     1       6.049   5.552   3.526  0.00  0.00    -0.300 OA
ENDBRANCH  11  12
ENDBRANCH  10  11
ENDBRANCH   1  10
TORSDOF 3
ENDMDL
MODEL        5
REMARK  Name = /home/cewinharhar/GITHUB/reincatalyze/data/wasteBin/vinaTmp.pdbqt
REMARK  3 active torsions:
REMARK  status: ('A' for Active; 'I' for Inactive)
REMARK    1  A    between atoms: C_1  and  C_2
REMARK    2  A    between atoms: C_1  and  C_5
REMARK    3  A    between atoms: C_5  and  C_6
REMARK                            x       y       z     vdW  Elec       q    Type
REMARK                         _______ _______ _______ _____ _____    ______ ____
ROOT
ATOM      1  C   UNL     1       6.458   2.002   1.564  0.00  0.00    -0.044 C 
ATOM      2  C   UNL     1       6.674   1.775   0.223  0.00  0.00    +0.008 C 
ATOM      3  C   UNL     1       6.742   0.976   2.479  0.00  0.00    +0.054 C 
ATOM      4  C   UNL     1       7.163   0.543  -0.192  0.00  0.00    +0.051 C 
ATOM      5  C   UNL     1       7.226  -0.238   2.061  0.00  0.00    +0.166 C 
ATOM      6  C   UNL     1       7.436  -0.454   0.717  0.00  0.00    +0.165 C 
ATOM      7  O   UNL     1       7.590  -1.420   2.736  0.00  0.00    -0.454 OA
ATOM      8  O   UNL     1       7.925  -1.767   0.606  0.00  0.00    -0.454 OA
ATOM      9  C   UNL     1       8.509  -2.069   1.862  0.00  0.00    +0.468 C 
ENDROOT
BRANCH   1  10
ATOM     10  C   UNL     1       5.912   3.293   2.042  0.00  0.00    +0.043 C 
BRANCH  10  11
ATOM     11  C   UNL     1       6.939   4.334   2.277  0.00  0.00    +0.080 C 
BRANCH  11  12
ATOM     12  C   UNL     1       6.858   5.059   3.540  0.00  0.00    +0.130 C 
ATOM     13  C   UNL     1       7.893   4.742   4.582  0.00  0.00    +0.087 C 
ATOM     14  O   UNL     1       6.026   5.873   3.774  0.00  0.00    -0.300 OA
ENDBRANCH  11  12
ENDBRANCH  10  11
ENDBRANCH   1  10
TORSDOF 3
ENDMDL
MODEL        6
REMARK  Name = /home/cewinharhar/GITHUB/reincatalyze/data/wasteBin/vinaTmp.pdbqt
REMARK  3 active torsions:
REMARK  status: ('A' for Active; 'I' for Inactive)
REMARK    1  A    between atoms: C_1  and  C_2
REMARK    2  A    between atoms: C_1  and  C_5
REMARK    3  A    between atoms: C_5  and  C_6
REMARK                            x       y       z     vdW  Elec       q    Type
REMARK                         _______ _______ _______ _____ _____    ______ ____
ROOT
ATOM      1  C   UNL     1       7.504   0.741   0.970  0.00  0.00    -0.044 C 
ATOM      2  C   UNL     1       6.928   1.814   0.327  0.00  0.00    +0.008 C 
ATOM      3  C   UNL     1       6.932   0.283   2.168  0.00  0.00    +0.054 C 
ATOM      4  C   UNL     1       5.802   2.416   0.874  0.00  0.00    +0.051 C 
ATOM      5  C   UNL     1       5.819   0.883   2.701  0.00  0.00    +0.166 C 
ATOM      6  C   UNL     1       5.253   1.956   2.049  0.00  0.00    +0.165 C 
ATOM      7  O   UNL     1       5.050   0.644   3.858  0.00  0.00    -0.454 OA
ATOM      8  O   UNL     1       4.149   2.345   2.828  0.00  0.00    -0.454 OA
ATOM      9  C   UNL     1       3.770   1.194   3.563  0.00  0.00    +0.468 C 
ENDROOT
BRANCH   1  10
ATOM     10  C   UNL     1       8.720   0.091   0.432  0.00  0.00    +0.043 C 
BRANCH  10  11
ATOM     11  C   UNL     1       8.459  -1.173  -0.296  0.00  0.00    +0.080 C 
BRANCH  11  12
ATOM     12  C   UNL     1       8.380  -1.085  -1.750  0.00  0.00    +0.130 C 
ATOM     13  C   UNL     1       8.927   0.156  -2.394  0.00  0.00    +0.087 C 
ATOM     14  O   UNL     1       7.911  -1.938  -2.431  0.00  0.00    -0.300 OA
ENDBRANCH  11  12
ENDBRANCH  10  11
ENDBRANCH   1  10
TORSDOF 3
ENDMDL
MODEL        7
REMARK  Name = /home/cewinharhar/GITHUB/reincatalyze/data/wasteBin/vinaTmp.pdbqt
REMARK  3 active torsions:
REMARK  status: ('A' for Active; 'I' for Inactive)
REMARK    1  A    between atoms: C_1  and  C_2
REMARK    2  A    between atoms: C_1  and  C_5
REMARK    3  A    between atoms: C_5  and  C_6
REMARK                            x       y       z     vdW  Elec       q    Type
REMARK                         _______ _______ _______ _____ _____    ______ ____
ROOT
ATOM      1  C   UNL     1       6.488   1.081   2.104  0.00  0.00    -0.044 C 
ATOM      2  C   UNL     1       6.066   1.810   1.014  0.00  0.00    +0.008 C 
ATOM      3  C   UNL     1       7.017   1.763   3.212  0.00  0.00    +0.054 C 
ATOM      4  C   UNL     1       6.176   3.195   1.034  0.00  0.00    +0.051 C 
ATOM      5  C   UNL     1       7.122   3.131   3.223  0.00  0.00    +0.166 C 
ATOM      6  C   UNL     1       6.698   3.849   2.127  0.00  0.00    +0.165 C 
ATOM      7  O   UNL     1       7.601   4.058   4.170  0.00  0.00    -0.454 OA
ATOM      8  O   UNL     1       6.930   5.201   2.434  0.00  0.00    -0.454 OA
ATOM      9  C   UNL     1       6.940   5.279   3.850  0.00  0.00    +0.468 C 
ENDROOT
BRANCH   1  10
ATOM     10  C   UNL     1       6.412  -0.397   2.109  0.00  0.00    +0.043 C 
BRANCH  10  11
ATOM     11  C   UNL     1       7.237  -1.049   1.065  0.00  0.00    +0.080 C 
BRANCH  11  12
ATOM     12  C   UNL     1       8.373  -1.838   1.528  0.00  0.00    +0.130 C 
ATOM     13  C   UNL     1       8.846  -1.603   2.934  0.00  0.00    +0.087 C 
ATOM     14  O   UNL     1       8.927  -2.644   0.855  0.00  0.00    -0.300 OA
ENDBRANCH  11  12
ENDBRANCH  10  11
ENDBRANCH   1  10
TORSDOF 3
ENDMDL
MODEL        8
REMARK  Name = /home/cewinharhar/GITHUB/reincatalyze/data/wasteBin/vinaTmp.pdbqt
REMARK  3 active torsions:
REMARK  status: ('A' for Active; 'I' for Inactive)
REMARK    1  A    between atoms: C_1  and  C_2
REMARK    2  A    between atoms: C_1  and  C_5
REMARK    3  A    between atoms: C_5  and  C_6
REMARK                            x       y       z     vdW  Elec       q    Type
REMARK                         _______ _______ _______ _____ _____    ______ ____
ROOT
ATOM      1  C   UNL     1       6.809   3.027   2.114  0.00  0.00    -0.044 C 
ATOM      2  C   UNL     1       6.549   2.582   0.837  0.00  0.00    +0.008 C 
ATOM      3  C   UNL     1       7.032   2.083   3.129  0.00  0.00    +0.054 C 
ATOM      4  C   UNL     1       6.512   1.216   0.583  0.00  0.00    +0.051 C 
ATOM      5  C   UNL     1       6.994   0.736   2.869  0.00  0.00    +0.166 C 
ATOM      6  C   UNL     1       6.733   0.302   1.589  0.00  0.00    +0.165 C 
ATOM      7  O   UNL     1       7.175  -0.409   3.670  0.00  0.00    -0.454 OA
ATOM      8  O   UNL     1       6.760  -1.102   1.641  0.00  0.00    -0.454 OA
ATOM      9  C   UNL     1       7.568  -1.431   2.758  0.00  0.00    +0.468 C 
ENDROOT
BRANCH   1  10
ATOM     10  C   UNL     1       6.829   4.474   2.428  0.00  0.00    +0.043 C 
BRANCH  10  11
ATOM     11  C   UNL     1       7.170   4.782   3.836  0.00  0.00    +0.080 C 
BRANCH  11  12
ATOM     12  C   UNL     1       6.815   6.112   4.319  0.00  0.00    +0.130 C 
ATOM     13  C   UNL     1       7.928   6.972   4.846  0.00  0.00    +0.087 C 
ATOM     14  O   UNL     1       5.705   6.536   4.311  0.00  0.00    -0.300 OA
ENDBRANCH  11  12
ENDBRANCH  10  11
ENDBRANCH   1  10
TORSDOF 3
ENDMDL
MODEL        9
REMARK  Name = /home/cewinharhar/GITHUB/reincatalyze/data/wasteBin/vinaTmp.pdbqt
REMARK  3 active torsions:
REMARK  status: ('A' for Active; 'I' for Inactive)
REMARK    1  A    between atoms: C_1  and  C_2
REMARK    2  A    between atoms: C_1  and  C_5
REMARK    3  A    between atoms: C_5  and  C_6
REMARK                            x       y       z     vdW  Elec       q    Type
REMARK                         _______ _______ _______ _____ _____    ______ ____
ROOT
ATOM      1  C   UNL     1       6.407   1.083   1.365  0.00  0.00    -0.044 C 
ATOM      2  C   UNL     1       6.013   0.551   2.573  0.00  0.00    +0.008 C 
ATOM      3  C   UNL     1       7.481   0.491   0.682  0.00  0.00    +0.054 C 
ATOM      4  C   UNL     1       6.685  -0.551   3.086  0.00  0.00    +0.051 C 
ATOM      5  C   UNL     1       8.139  -0.598   1.196  0.00  0.00    +0.166 C 
ATOM      6  C   UNL     1       7.737  -1.121   2.405  0.00  0.00    +0.165 C 
ATOM      7  O   UNL     1       9.222  -1.377   0.743  0.00  0.00    -0.454 OA
ATOM      8  O   UNL     1       8.589  -2.209   2.660  0.00  0.00    -0.454 OA
ATOM      9  C   UNL     1       9.062  -2.635   1.394  0.00  0.00    +0.468 C 
ENDROOT
BRANCH   1  10
ATOM     10  C   UNL     1       5.732   2.273   0.800  0.00  0.00    +0.043 C 
BRANCH  10  11
ATOM     11  C   UNL     1       5.544   3.379   1.768  0.00  0.00    +0.080 C 
BRANCH  11  12
ATOM     12  C   UNL     1       6.720   4.184   2.077  0.00  0.00    +0.130 C 
ATOM     13  C   UNL     1       7.039   4.406   3.528  0.00  0.00    +0.087 C 
ATOM     14  O   UNL     1       7.421   4.662   1.247  0.00  0.00    -0.300 OA
ENDBRANCH  11  12
ENDBRANCH  10  11
ENDBRANCH   1  10
TORSDOF 3
ENDMDL
MODEL       10
REMARK  Name = /home/cewinharhar/GITHUB/reincatalyze/data/wasteBin/vinaTmp.pdbqt
REMARK  3 active torsions:
REMARK  status: ('A' for Active; 'I' for Inactive)
REMARK    1  A    between atoms: C_1  and  C_2
REMARK    2  A    between atoms: C_1  and  C_5
REMARK    3  A    between atoms: C_5  and  C_6
REMARK                            x       y       z     vdW  Elec       q    Type
REMARK                         _______ _______ _______ _____ _____    ______ ____
ROOT
ATOM      1  C   UNL     1       7.989   4.960   4.844  0.00  0.00    -0.044 C 
ATOM      2  C   UNL     1       8.653   4.164   5.751  0.00  0.00    +0.008 C 
ATOM      3  C   UNL     1       7.289   4.349   3.792  0.00  0.00    +0.054 C 
ATOM      4  C   UNL     1       8.616   2.783   5.604  0.00  0.00    +0.051 C 
ATOM      5  C   UNL     1       7.257   2.984   3.654  0.00  0.00    +0.166 C 
ATOM      6  C   UNL     1       7.925   2.198   4.567  0.00  0.00    +0.165 C 
ATOM      7  O   UNL     1       6.652   2.119   2.721  0.00  0.00    -0.454 OA
ATOM      8  O   UNL     1       7.710   0.869   4.165  0.00  0.00    -0.454 OA
ATOM      9  C   UNL     1       6.509   0.882   3.413  0.00  0.00    +0.468 C 
ENDROOT
BRANCH   1  10
ATOM     10  C   UNL     1       8.028   6.436   4.953  0.00  0.00    +0.043 C 
BRANCH  10  11
ATOM     11  C   UNL     1       6.991   7.129   4.153  0.00  0.00    +0.080 C 
BRANCH  11  12
ATOM     12  C   UNL     1       5.769   7.507   4.854  0.00  0.00    +0.130 C 
ATOM     13  C   UNL     1       5.453   8.972   4.944  0.00  0.00    +0.087 C 
ATOM     14  O   UNL     1       5.028   6.720   5.347  0.00  0.00    -0.300 OA
ENDBRANCH  11  12
ENDBRANCH  10  11
ENDBRANCH   1  10
TORSDOF 3
ENDMDL
