REMARK  Name = /home/cewinharhar/GITHUB/reincatalyze/data/wasteBin/vinaTmp.pdbqt
REMARK  3 active torsions:
REMARK  status: ('A' for Active; 'I' for Inactive)
REMARK    1  A    between atoms: C_1  and  C_2
REMARK    2  A    between atoms: C_1  and  C_5
REMARK    3  A    between atoms: C_5  and  C_6
REMARK                            x       y       z     vdW  Elec       q    Type
REMARK                         _______ _______ _______ _____ _____    ______ ____
ROOT
ATOM      1  C   UNL     1       6.598   1.359   0.942  0.00  0.00    -0.044 C 
ATOM      2  C   UNL     1       6.966   1.153  -0.393  0.00  0.00    +0.008 C 
ATOM      3  C   UNL     1       6.980   0.432   1.884  0.00  0.00    +0.054 C 
ATOM      4  C   UNL     1       7.698   0.026  -0.720  0.00  0.00    +0.051 C 
ATOM      5  C   UNL     1       7.720  -0.706   1.548  0.00  0.00    +0.166 C 
ATOM      6  C   UNL     1       8.082  -0.910   0.235  0.00  0.00    +0.165 C 
ATOM      7  O   UNL     1       8.213  -1.759   2.289  0.00  0.00    -0.454 OA
ATOM      8  O   UNL     1       8.798  -2.096   0.197  0.00  0.00    -0.454 OA
ATOM      9  C   UNL     1       8.983  -2.621   1.490  0.00  0.00    +0.468 C 
ENDROOT
BRANCH   1  10
ATOM     10  C   UNL     1       5.819   2.541   1.354  0.00  0.00    +0.043 C 
BRANCH  10  11
ATOM     11  C   UNL     1       6.696   3.767   1.508  0.00  0.00    +0.080 C 
BRANCH  11  12
ATOM     12  C   UNL     1       6.758   4.212   2.928  0.00  0.00    +0.130 C 
ATOM     13  C   UNL     1       7.463   3.415   3.967  0.00  0.00    +0.087 C 
ATOM     14  O   UNL     1       6.227   5.253   3.282  0.00  0.00    -0.300 OA
ENDBRANCH  11  12
ENDBRANCH  10  11
ENDBRANCH   1  10
TORSDOF 3
