MODEL        1
REMARK  Name = /home/cewinharhar/GITHUB/reincatalyze/data/wasteBin/vinaTmp.pdbqt
REMARK  3 active torsions:
REMARK  status: ('A' for Active; 'I' for Inactive)
REMARK    1  A    between atoms: C_1  and  C_2
REMARK    2  A    between atoms: C_1  and  C_5
REMARK    3  A    between atoms: C_5  and  C_6
REMARK                            x       y       z     vdW  Elec       q    Type
REMARK                         _______ _______ _______ _____ _____    ______ ____
ROOT
ATOM      1  C   UNL     1       6.584   1.168   0.893  0.00  0.00    -0.044 C 
ATOM      2  C   UNL     1       7.175   1.059  -0.367  0.00  0.00    +0.008 C 
ATOM      3  C   UNL     1       6.779   0.137   1.783  0.00  0.00    +0.054 C 
ATOM      4  C   UNL     1       7.917  -0.056  -0.661  0.00  0.00    +0.051 C 
ATOM      5  C   UNL     1       7.543  -0.993   1.455  0.00  0.00    +0.166 C 
ATOM      6  C   UNL     1       8.127  -1.100   0.211  0.00  0.00    +0.165 C 
ATOM      7  O   UNL     1       7.901  -2.153   2.130  0.00  0.00    -0.454 OA
ATOM      8  O   UNL     1       8.826  -2.312   0.145  0.00  0.00    -0.454 OA
ATOM      9  C   UNL     1       9.050  -2.688   1.488  0.00  0.00    +0.468 C 
ENDROOT
BRANCH   1  10
ATOM     10  C   UNL     1       5.801   2.342   1.290  0.00  0.00    +0.043 C 
BRANCH  10  11
ATOM     11  C   UNL     1       6.530   3.618   1.446  0.00  0.00    +0.080 C 
BRANCH  11  12
ATOM     12  C   UNL     1       6.647   4.135   2.822  0.00  0.00    +0.130 C 
ATOM     13  C   UNL     1       7.373   3.226   3.799  0.00  0.00    +0.087 C 
ATOM     14  O   UNL     1       6.241   5.177   3.253  0.00  0.00    -0.300 OA
ENDBRANCH  11  12
ENDBRANCH  10  11
ENDBRANCH   1  10
TORSDOF 3
ENDMDL
MODEL        2
REMARK  Name = /home/cewinharhar/GITHUB/reincatalyze/data/wasteBin/vinaTmp.pdbqt
REMARK  3 active torsions:
REMARK  status: ('A' for Active; 'I' for Inactive)
REMARK    1  A    between atoms: C_1  and  C_2
REMARK    2  A    between atoms: C_1  and  C_5
REMARK    3  A    between atoms: C_5  and  C_6
REMARK                            x       y       z     vdW  Elec       q    Type
REMARK                         _______ _______ _______ _____ _____    ______ ____
ROOT
ATOM      1  C   UNL     1       6.540   0.966   1.274  0.00  0.00    -0.044 C 
ATOM      2  C   UNL     1       6.704  -0.291   1.858  0.00  0.00    +0.008 C 
ATOM      3  C   UNL     1       7.105   1.177   0.038  0.00  0.00    +0.054 C 
ATOM      4  C   UNL     1       7.414  -1.251   1.184  0.00  0.00    +0.051 C 
ATOM      5  C   UNL     1       7.826   0.176  -0.630  0.00  0.00    +0.166 C 
ATOM      6  C   UNL     1       7.989  -1.065  -0.053  0.00  0.00    +0.165 C 
ATOM      7  O   UNL     1       8.488   0.104  -1.850  0.00  0.00    -0.454 OA
ATOM      8  O   UNL     1       8.741  -1.869  -0.920  0.00  0.00    -0.454 OA
ATOM      9  C   UNL     1       8.612  -1.269  -2.192  0.00  0.00    +0.468 C 
ENDROOT
BRANCH   1  10
ATOM     10  C   UNL     1       5.770   2.033   1.920  0.00  0.00    +0.043 C 
BRANCH  10  11
ATOM     11  C   UNL     1       6.449   2.810   2.979  0.00  0.00    +0.080 C 
BRANCH  11  12
ATOM     12  C   UNL     1       6.595   4.255   2.732  0.00  0.00    +0.130 C 
ATOM     13  C   UNL     1       7.358   4.626   1.472  0.00  0.00    +0.087 C 
ATOM     14  O   UNL     1       6.187   5.161   3.402  0.00  0.00    -0.300 OA
ENDBRANCH  11  12
ENDBRANCH  10  11
ENDBRANCH   1  10
TORSDOF 3
ENDMDL
MODEL        3
REMARK  Name = /home/cewinharhar/GITHUB/reincatalyze/data/wasteBin/vinaTmp.pdbqt
REMARK  3 active torsions:
REMARK  status: ('A' for Active; 'I' for Inactive)
REMARK    1  A    between atoms: C_1  and  C_2
REMARK    2  A    between atoms: C_1  and  C_5
REMARK    3  A    between atoms: C_5  and  C_6
REMARK                            x       y       z     vdW  Elec       q    Type
REMARK                         _______ _______ _______ _____ _____    ______ ____
ROOT
ATOM      1  C   UNL     1       6.560   2.010   1.632  0.00  0.00    -0.044 C 
ATOM      2  C   UNL     1       5.720   1.242   2.440  0.00  0.00    +0.008 C 
ATOM      3  C   UNL     1       7.696   1.411   1.138  0.00  0.00    +0.054 C 
ATOM      4  C   UNL     1       6.057  -0.060   2.705  0.00  0.00    +0.051 C 
ATOM      5  C   UNL     1       8.017   0.076   1.425  0.00  0.00    +0.166 C 
ATOM      6  C   UNL     1       7.188  -0.682   2.223  0.00  0.00    +0.165 C 
ATOM      7  O   UNL     1       9.065  -0.768   1.077  0.00  0.00    -0.454 OA
ATOM      8  O   UNL     1       7.735  -1.965   2.350  0.00  0.00    -0.454 OA
ATOM      9  C   UNL     1       8.618  -2.105   1.256  0.00  0.00    +0.468 C 
ENDROOT
BRANCH   1  10
ATOM     10  C   UNL     1       6.252   3.399   1.281  0.00  0.00    +0.043 C 
BRANCH  10  11
ATOM     11  C   UNL     1       7.124   4.449   1.849  0.00  0.00    +0.080 C 
BRANCH  11  12
ATOM     12  C   UNL     1       6.849   4.838   3.244  0.00  0.00    +0.130 C 
ATOM     13  C   UNL     1       7.726   4.171   4.289  0.00  0.00    +0.087 C 
ATOM     14  O   UNL     1       6.024   5.610   3.643  0.00  0.00    -0.300 OA
ENDBRANCH  11  12
ENDBRANCH  10  11
ENDBRANCH   1  10
TORSDOF 3
ENDMDL
MODEL        4
REMARK  Name = /home/cewinharhar/GITHUB/reincatalyze/data/wasteBin/vinaTmp.pdbqt
REMARK  3 active torsions:
REMARK  status: ('A' for Active; 'I' for Inactive)
REMARK    1  A    between atoms: C_1  and  C_2
REMARK    2  A    between atoms: C_1  and  C_5
REMARK    3  A    between atoms: C_5  and  C_6
REMARK                            x       y       z     vdW  Elec       q    Type
REMARK                         _______ _______ _______ _____ _____    ______ ____
ROOT
ATOM      1  C   UNL     1       6.522   1.752   1.789  0.00  0.00    -0.044 C 
ATOM      2  C   UNL     1       6.716   1.663   0.409  0.00  0.00    +0.008 C 
ATOM      3  C   UNL     1       6.886   0.671   2.558  0.00  0.00    +0.054 C 
ATOM      4  C   UNL     1       7.252   0.516  -0.115  0.00  0.00    +0.051 C 
ATOM      5  C   UNL     1       7.434  -0.491   1.994  0.00  0.00    +0.166 C 
ATOM      6  C   UNL     1       7.624  -0.580   0.633  0.00  0.00    +0.165 C 
ATOM      7  O   UNL     1       7.880  -1.703   2.508  0.00  0.00    -0.454 OA
ATOM      8  O   UNL     1       8.178  -1.831   0.336  0.00  0.00    -0.454 OA
ATOM      9  C   UNL     1       8.750  -2.283   1.546  0.00  0.00    +0.468 C 
ENDROOT
BRANCH   1  10
ATOM     10  C   UNL     1       5.981   2.956   2.425  0.00  0.00    +0.043 C 
BRANCH  10  11
ATOM     11  C   UNL     1       6.780   4.195   2.319  0.00  0.00    +0.080 C 
BRANCH  11  12
ATOM     12  C   UNL     1       6.843   5.033   3.530  0.00  0.00    +0.130 C 
ATOM     13  C   UNL     1       7.863   4.599   4.569  0.00  0.00    +0.087 C 
ATOM     14  O   UNL     1       6.191   6.005   3.787  0.00  0.00    -0.300 OA
ENDBRANCH  11  12
ENDBRANCH  10  11
ENDBRANCH   1  10
TORSDOF 3
ENDMDL
MODEL        5
REMARK  Name = /home/cewinharhar/GITHUB/reincatalyze/data/wasteBin/vinaTmp.pdbqt
REMARK  3 active torsions:
REMARK  status: ('A' for Active; 'I' for Inactive)
REMARK    1  A    between atoms: C_1  and  C_2
REMARK    2  A    between atoms: C_1  and  C_5
REMARK    3  A    between atoms: C_5  and  C_6
REMARK                            x       y       z     vdW  Elec       q    Type
REMARK                         _______ _______ _______ _____ _____    ______ ____
ROOT
ATOM      1  C   UNL     1       6.416   1.239   0.995  0.00  0.00    -0.044 C 
ATOM      2  C   UNL     1       6.525   0.034   1.692  0.00  0.00    +0.008 C 
ATOM      3  C   UNL     1       7.057   1.337  -0.218  0.00  0.00    +0.054 C 
ATOM      4  C   UNL     1       7.258  -0.988   1.145  0.00  0.00    +0.051 C 
ATOM      5  C   UNL     1       7.801   0.275  -0.754  0.00  0.00    +0.166 C 
ATOM      6  C   UNL     1       7.909  -0.913  -0.066  0.00  0.00    +0.165 C 
ATOM      7  O   UNL     1       8.534   0.093  -1.920  0.00  0.00    -0.454 OA
ATOM      8  O   UNL     1       8.698  -1.796  -0.814  0.00  0.00    -0.454 OA
ATOM      9  C   UNL     1       8.655  -1.305  -2.138  0.00  0.00    +0.468 C 
ENDROOT
BRANCH   1  10
ATOM     10  C   UNL     1       5.626   2.365   1.501  0.00  0.00    +0.043 C 
BRANCH  10  11
ATOM     11  C   UNL     1       6.328   3.652   1.689  0.00  0.00    +0.080 C 
BRANCH  11  12
ATOM     12  C   UNL     1       6.938   3.872   3.013  0.00  0.00    +0.130 C 
ATOM     13  C   UNL     1       6.974   5.317   3.481  0.00  0.00    +0.087 C 
ATOM     14  O   UNL     1       7.403   3.053   3.754  0.00  0.00    -0.300 OA
ENDBRANCH  11  12
ENDBRANCH  10  11
ENDBRANCH   1  10
TORSDOF 3
ENDMDL
MODEL        6
REMARK  Name = /home/cewinharhar/GITHUB/reincatalyze/data/wasteBin/vinaTmp.pdbqt
REMARK  3 active torsions:
REMARK  status: ('A' for Active; 'I' for Inactive)
REMARK    1  A    between atoms: C_1  and  C_2
REMARK    2  A    between atoms: C_1  and  C_5
REMARK    3  A    between atoms: C_5  and  C_6
REMARK                            x       y       z     vdW  Elec       q    Type
REMARK                         _______ _______ _______ _____ _____    ______ ____
ROOT
ATOM      1  C   UNL     1       7.483   0.762   0.852  0.00  0.00    -0.044 C 
ATOM      2  C   UNL     1       6.882   1.881   0.274  0.00  0.00    +0.008 C 
ATOM      3  C   UNL     1       6.935   0.270   2.014  0.00  0.00    +0.054 C 
ATOM      4  C   UNL     1       5.786   2.437   0.881  0.00  0.00    +0.051 C 
ATOM      5  C   UNL     1       5.812   0.859   2.614  0.00  0.00    +0.166 C 
ATOM      6  C   UNL     1       5.220   1.964   2.044  0.00  0.00    +0.165 C 
ATOM      7  O   UNL     1       5.064   0.588   3.753  0.00  0.00    -0.454 OA
ATOM      8  O   UNL     1       4.129   2.349   2.834  0.00  0.00    -0.454 OA
ATOM      9  C   UNL     1       3.795   1.204   3.592  0.00  0.00    +0.468 C 
ENDROOT
BRANCH   1  10
ATOM     10  C   UNL     1       8.640   0.096   0.247  0.00  0.00    +0.043 C 
BRANCH  10  11
ATOM     11  C   UNL     1       9.207   0.704  -0.975  0.00  0.00    +0.080 C 
BRANCH  11  12
ATOM     12  C   UNL     1       8.941  -0.008  -2.238  0.00  0.00    +0.130 C 
ATOM     13  C   UNL     1       8.596  -1.480  -2.095  0.00  0.00    +0.087 C 
ATOM     14  O   UNL     1       8.964   0.436  -3.351  0.00  0.00    -0.300 OA
ENDBRANCH  11  12
ENDBRANCH  10  11
ENDBRANCH   1  10
TORSDOF 3
ENDMDL
MODEL        7
REMARK  Name = /home/cewinharhar/GITHUB/reincatalyze/data/wasteBin/vinaTmp.pdbqt
REMARK  3 active torsions:
REMARK  status: ('A' for Active; 'I' for Inactive)
REMARK    1  A    between atoms: C_1  and  C_2
REMARK    2  A    between atoms: C_1  and  C_5
REMARK    3  A    between atoms: C_5  and  C_6
REMARK                            x       y       z     vdW  Elec       q    Type
REMARK                         _______ _______ _______ _____ _____    ______ ____
ROOT
ATOM      1  C   UNL     1       6.596   1.038   1.942  0.00  0.00    -0.044 C 
ATOM      2  C   UNL     1       6.111   1.840   0.907  0.00  0.00    +0.008 C 
ATOM      3  C   UNL     1       7.101   1.667   3.056  0.00  0.00    +0.054 C 
ATOM      4  C   UNL     1       6.158   3.203   1.043  0.00  0.00    +0.051 C 
ATOM      5  C   UNL     1       7.136   3.065   3.168  0.00  0.00    +0.166 C 
ATOM      6  C   UNL     1       6.658   3.856   2.147  0.00  0.00    +0.165 C 
ATOM      7  O   UNL     1       7.575   3.951   4.145  0.00  0.00    -0.454 OA
ATOM      8  O   UNL     1       6.810   5.201   2.510  0.00  0.00    -0.454 OA
ATOM      9  C   UNL     1       6.931   5.196   3.918  0.00  0.00    +0.468 C 
ENDROOT
BRANCH   1  10
ATOM     10  C   UNL     1       6.553  -0.425   1.882  0.00  0.00    +0.043 C 
BRANCH  10  11
ATOM     11  C   UNL     1       7.500  -1.092   0.965  0.00  0.00    +0.080 C 
BRANCH  11  12
ATOM     12  C   UNL     1       8.501  -1.974   1.593  0.00  0.00    +0.130 C 
ATOM     13  C   UNL     1       8.891  -1.605   3.014  0.00  0.00    +0.087 C 
ATOM     14  O   UNL     1       9.036  -2.935   1.118  0.00  0.00    -0.300 OA
ENDBRANCH  11  12
ENDBRANCH  10  11
ENDBRANCH   1  10
TORSDOF 3
ENDMDL
MODEL        8
REMARK  Name = /home/cewinharhar/GITHUB/reincatalyze/data/wasteBin/vinaTmp.pdbqt
REMARK  3 active torsions:
REMARK  status: ('A' for Active; 'I' for Inactive)
REMARK    1  A    between atoms: C_1  and  C_2
REMARK    2  A    between atoms: C_1  and  C_5
REMARK    3  A    between atoms: C_5  and  C_6
REMARK                            x       y       z     vdW  Elec       q    Type
REMARK                         _______ _______ _______ _____ _____    ______ ____
ROOT
ATOM      1  C   UNL     1       6.561   1.469   1.489  0.00  0.00    -0.044 C 
ATOM      2  C   UNL     1       6.428   0.188   2.026  0.00  0.00    +0.008 C 
ATOM      3  C   UNL     1       7.286   1.603   0.327  0.00  0.00    +0.054 C 
ATOM      4  C   UNL     1       7.017  -0.870   1.383  0.00  0.00    +0.051 C 
ATOM      5  C   UNL     1       7.878   0.503  -0.311  0.00  0.00    +0.166 C 
ATOM      6  C   UNL     1       7.747  -0.761   0.220  0.00  0.00    +0.165 C 
ATOM      7  O   UNL     1       8.644   0.342  -1.459  0.00  0.00    -0.454 OA
ATOM      8  O   UNL     1       8.427  -1.668  -0.603  0.00  0.00    -0.454 OA
ATOM      9  C   UNL     1       8.549  -1.019  -1.852  0.00  0.00    +0.468 C 
ENDROOT
BRANCH   1  10
ATOM     10  C   UNL     1       5.936   2.643   2.104  0.00  0.00    +0.043 C 
BRANCH  10  11
ATOM     11  C   UNL     1       6.683   3.917   2.041  0.00  0.00    +0.080 C 
BRANCH  11  12
ATOM     12  C   UNL     1       6.771   4.680   3.299  0.00  0.00    +0.130 C 
ATOM     13  C   UNL     1       7.707   4.101   4.347  0.00  0.00    +0.087 C 
ATOM     14  O   UNL     1       6.199   5.693   3.587  0.00  0.00    -0.300 OA
ENDBRANCH  11  12
ENDBRANCH  10  11
ENDBRANCH   1  10
TORSDOF 3
ENDMDL
MODEL        9
REMARK  Name = /home/cewinharhar/GITHUB/reincatalyze/data/wasteBin/vinaTmp.pdbqt
REMARK  3 active torsions:
REMARK  status: ('A' for Active; 'I' for Inactive)
REMARK    1  A    between atoms: C_1  and  C_2
REMARK    2  A    between atoms: C_1  and  C_5
REMARK    3  A    between atoms: C_5  and  C_6
REMARK                            x       y       z     vdW  Elec       q    Type
REMARK                         _______ _______ _______ _____ _____    ______ ____
ROOT
ATOM      1  C   UNL     1       7.476   0.809   0.958  0.00  0.00    -0.044 C 
ATOM      2  C   UNL     1       6.888   1.934   0.377  0.00  0.00    +0.008 C 
ATOM      3  C   UNL     1       6.900   0.304   2.100  0.00  0.00    +0.054 C 
ATOM      4  C   UNL     1       5.777   2.483   0.963  0.00  0.00    +0.051 C 
ATOM      5  C   UNL     1       5.762   0.885   2.679  0.00  0.00    +0.166 C 
ATOM      6  C   UNL     1       5.183   1.996   2.106  0.00  0.00    +0.165 C 
ATOM      7  O   UNL     1       4.987   0.601   3.797  0.00  0.00    -0.454 OA
ATOM      8  O   UNL     1       4.073   2.371   2.874  0.00  0.00    -0.454 OA
ATOM      9  C   UNL     1       3.722   1.219   3.611  0.00  0.00    +0.468 C 
ENDROOT
BRANCH   1  10
ATOM     10  C   UNL     1       8.648   0.150   0.374  0.00  0.00    +0.043 C 
BRANCH  10  11
ATOM     11  C   UNL     1       8.430  -1.152  -0.291  0.00  0.00    +0.080 C 
BRANCH  11  12
ATOM     12  C   UNL     1       8.393  -1.131  -1.764  0.00  0.00    +0.130 C 
ATOM     13  C   UNL     1       8.902   0.146  -2.410  0.00  0.00    +0.087 C 
ATOM     14  O   UNL     1       8.012  -1.995  -2.502  0.00  0.00    -0.300 OA
ENDBRANCH  11  12
ENDBRANCH  10  11
ENDBRANCH   1  10
TORSDOF 3
ENDMDL
MODEL       10
REMARK  Name = /home/cewinharhar/GITHUB/reincatalyze/data/wasteBin/vinaTmp.pdbqt
REMARK  2 active torsions:
REMARK  status: ('A' for Active; 'I' for Inactive)
REMARK    1  A    between atoms: C_1  and  C_2
REMARK    2  A    between atoms: C_5  and  C_6
REMARK                            x       y       z     vdW  Elec       q    Type
REMARK                         _______ _______ _______ _____ _____    ______ ____
ROOT
ATOM      1  C   UNL     1       6.755   3.098   2.122  0.00  0.00    -0.044 C 
ATOM      2  C   UNL     1       6.441   2.673   0.830  0.00  0.00    +0.008 C 
ATOM      3  C   UNL     1       7.045   2.136   3.061  0.00  0.00    +0.054 C 
ATOM      4  C   UNL     1       6.435   1.330   0.554  0.00  0.00    +0.051 C 
ATOM      5  C   UNL     1       7.031   0.767   2.750  0.00  0.00    +0.166 C 
ATOM      6  C   UNL     1       6.721   0.347   1.476  0.00  0.00    +0.165 C 
ATOM      7  O   UNL     1       7.274  -0.395   3.472  0.00  0.00    -0.454 OA
ATOM      8  O   UNL     1       6.779  -1.052   1.436  0.00  0.00    -0.454 OA
ATOM      9  C   UNL     1       7.577  -1.424   2.541  0.00  0.00    +0.468 C 
ENDROOT
BRANCH   1  11
ATOM     10  C   UNL     1       7.141   4.843   3.888  0.00  0.00    +0.080 C 
ATOM     11  C   UNL     1       6.809   4.517   2.485  0.00  0.00    +0.043 C 
BRANCH  10  12
ATOM     12  C   UNL     1       6.756   6.189   4.350  0.00  0.00    +0.130 C 
ATOM     13  C   UNL     1       7.909   7.092   4.754  0.00  0.00    +0.087 C 
ATOM     14  O   UNL     1       5.653   6.648   4.443  0.00  0.00    -0.300 OA
ENDBRANCH  10  12
ENDBRANCH   1  11
TORSDOF 2
ENDMDL
