REMARK  Name = /home/cewinharhar/GITHUB/reincatalyze/data/wasteBin/vinaTmp.pdbqt
REMARK  3 active torsions:
REMARK  status: ('A' for Active; 'I' for Inactive)
REMARK    1  A    between atoms: C_1  and  C_2
REMARK    2  A    between atoms: C_1  and  C_5
REMARK    3  A    between atoms: C_5  and  C_6
REMARK                            x       y       z     vdW  Elec       q    Type
REMARK                         _______ _______ _______ _____ _____    ______ ____
ROOT
ATOM      1  C   UNL     1       6.590   1.182   0.872  0.00  0.00    -0.044 C 
ATOM      2  C   UNL     1       7.163   1.088  -0.378  0.00  0.00    +0.008 C 
ATOM      3  C   UNL     1       6.778   0.131   1.784  0.00  0.00    +0.054 C 
ATOM      4  C   UNL     1       7.907  -0.038  -0.705  0.00  0.00    +0.051 C 
ATOM      5  C   UNL     1       7.514  -0.978   1.451  0.00  0.00    +0.166 C 
ATOM      6  C   UNL     1       8.081  -1.061   0.199  0.00  0.00    +0.165 C 
ATOM      7  O   UNL     1       7.859  -2.154   2.146  0.00  0.00    -0.454 OA
ATOM      8  O   UNL     1       8.760  -2.291   0.161  0.00  0.00    -0.454 OA
ATOM      9  C   UNL     1       9.049  -2.615   1.511  0.00  0.00    +0.468 C 
ENDROOT
BRANCH   1  10
ATOM     10  C   UNL     1       5.768   2.354   1.248  0.00  0.00    +0.043 C 
BRANCH  10  11
ATOM     11  C   UNL     1       6.545   3.601   1.443  0.00  0.00    +0.080 C 
BRANCH  11  12
ATOM     12  C   UNL     1       6.656   4.095   2.811  0.00  0.00    +0.130 C 
ATOM     13  C   UNL     1       7.384   3.228   3.798  0.00  0.00    +0.087 C 
ATOM     14  O   UNL     1       6.204   5.133   3.169  0.00  0.00    -0.300 OA
ENDBRANCH  11  12
ENDBRANCH  10  11
ENDBRANCH   1  10
TORSDOF 3
