MODEL 1
REMARK VINA RESULT:      -7.6      0.000      0.000
REMARK SMILES CC(=O)CCc1ccc2c(c1)OCO2
REMARK SMILES IDX 4 1 2 2 1 3 3 4 5 5 6 6 7 7 11 8 8 9 10 10 9 11 12 12 14 13
REMARK SMILES IDX 13 14
REMARK H PARENT
REMARK Flexibility Score: inf
ROOT
ATOM      1  C   UNL     1       6.545   3.601   1.443  1.00  0.00     0.080 C 
ENDROOT
BRANCH   1   2
ATOM      2  C   UNL     1       6.656   4.095   2.811  1.00  0.00     0.130 C 
ATOM      3  C   UNL     1       7.384   3.228   3.798  1.00  0.00     0.087 C 
ATOM      4  O   UNL     1       6.204   5.133   3.169  1.00  0.00    -0.300 OA
ENDBRANCH   1   2
BRANCH   1   5
ATOM      5  C   UNL     1       5.768   2.354   1.248  1.00  0.00     0.043 C 
BRANCH   5   6
ATOM      6  C   UNL     1       6.590   1.182   0.872  1.00  0.00    -0.044 A 
ATOM      7  C   UNL     1       7.163   1.088  -0.378  1.00  0.00     0.008 A 
ATOM      8  C   UNL     1       6.778   0.131   1.784  1.00  0.00     0.054 A 
ATOM      9  C   UNL     1       7.907  -0.038  -0.705  1.00  0.00     0.051 A 
ATOM     10  C   UNL     1       7.514  -0.978   1.451  1.00  0.00     0.166 A 
ATOM     11  C   UNL     1       8.081  -1.061   0.199  1.00  0.00     0.165 A 
ATOM     12  O   UNL     1       7.859  -2.154   2.146  1.00  0.00    -0.454 OA
ATOM     13  O   UNL     1       8.760  -2.291   0.161  1.00  0.00    -0.454 OA
ATOM     14  C   UNL     1       9.049  -2.615   1.511  1.00  0.00     0.468 C 
ENDBRANCH   5   6
ENDBRANCH   1   5
TORSDOF 3
ENDMDL
MODEL 2
REMARK VINA RESULT:      -7.4      1.096      2.086
REMARK SMILES CC(=O)CCc1ccc2c(c1)OCO2
REMARK SMILES IDX 4 1 2 2 1 3 3 4 5 5 6 6 7 7 11 8 8 9 10 10 9 11 12 12 14 13
REMARK SMILES IDX 13 14
REMARK H PARENT
REMARK Flexibility Score: inf
ROOT
ATOM      1  C   UNL     1       6.463   3.651   1.603  1.00  0.00     0.080 C 
ENDROOT
BRANCH   1   2
ATOM      2  C   UNL     1       6.693   4.170   2.946  1.00  0.00     0.130 C 
ATOM      3  C   UNL     1       7.454   3.294   3.900  1.00  0.00     0.087 C 
ATOM      4  O   UNL     1       6.312   5.234   3.310  1.00  0.00    -0.300 OA
ENDBRANCH   1   2
BRANCH   1   5
ATOM      5  C   UNL     1       5.668   2.404   1.499  1.00  0.00     0.043 C 
BRANCH   5   6
ATOM      6  C   UNL     1       6.431   1.242   0.990  1.00  0.00    -0.044 A 
ATOM      7  C   UNL     1       6.533   0.083   1.726  1.00  0.00     0.008 A 
ATOM      8  C   UNL     1       7.084   1.317  -0.250  1.00  0.00     0.054 A 
ATOM      9  C   UNL     1       7.278  -0.979   1.229  1.00  0.00     0.051 A 
ATOM     10  C   UNL     1       7.818   0.263  -0.734  1.00  0.00     0.166 A 
ATOM     11  C   UNL     1       7.914  -0.891   0.012  1.00  0.00     0.165 A 
ATOM     12  O   UNL     1       8.561   0.062  -1.914  1.00  0.00    -0.454 OA
ATOM     13  O   UNL     1       8.717  -1.770  -0.735  1.00  0.00    -0.454 OA
ATOM     14  C   UNL     1       8.595  -1.352  -2.084  1.00  0.00     0.468 C 
ENDBRANCH   5   6
ENDBRANCH   1   5
TORSDOF 3
ENDMDL
MODEL 3
REMARK VINA RESULT:      -7.3      2.462      5.124
REMARK SMILES CC(=O)CCc1ccc2c(c1)OCO2
REMARK SMILES IDX 4 1 2 2 1 3 3 4 5 5 6 6 7 7 11 8 8 9 10 10 9 11 12 12 14 13
REMARK SMILES IDX 13 14
REMARK H PARENT
REMARK Flexibility Score: inf
ROOT
ATOM      1  C   UNL     1       9.177   0.706  -0.918  1.00  0.00     0.080 C 
ENDROOT
BRANCH   1   2
ATOM      2  C   UNL     1       8.929   0.000  -2.170  1.00  0.00     0.130 C 
ATOM      3  C   UNL     1       8.633  -1.470  -2.082  1.00  0.00     0.087 C 
ATOM      4  O   UNL     1       8.950   0.528  -3.233  1.00  0.00    -0.300 OA
ENDBRANCH   1   2
BRANCH   1   5
ATOM      5  C   UNL     1       8.667   0.067   0.318  1.00  0.00     0.043 C 
BRANCH   5   6
ATOM      6  C   UNL     1       7.472   0.726   0.891  1.00  0.00    -0.044 A 
ATOM      7  C   UNL     1       6.901   1.819   0.276  1.00  0.00     0.008 A 
ATOM      8  C   UNL     1       6.916   0.257   2.091  1.00  0.00     0.054 A 
ATOM      9  C   UNL     1       5.795   2.428   0.855  1.00  0.00     0.051 A 
ATOM     10  C   UNL     1       5.824   0.865   2.657  1.00  0.00     0.166 A 
ATOM     11  C   UNL     1       5.262   1.957   2.034  1.00  0.00     0.165 A 
ATOM     12  O   UNL     1       5.074   0.618   3.824  1.00  0.00    -0.454 OA
ATOM     13  O   UNL     1       4.180   2.350   2.840  1.00  0.00    -0.454 OA
ATOM     14  C   UNL     1       3.797   1.193   3.564  1.00  0.00     0.468 C 
ENDBRANCH   5   6
ENDBRANCH   1   5
TORSDOF 3
ENDMDL
MODEL 4
REMARK VINA RESULT:      -7.3      1.169      1.913
REMARK SMILES CC(=O)CCc1ccc2c(c1)OCO2
REMARK SMILES IDX 4 1 2 2 1 3 3 4 5 5 6 6 7 7 11 8 8 9 10 10 9 11 12 12 14 13
REMARK SMILES IDX 13 14
REMARK H PARENT
REMARK Flexibility Score: inf
ROOT
ATOM      1  C   UNL     1       7.066   4.343   1.808  1.00  0.00     0.080 C 
ENDROOT
BRANCH   1   2
ATOM      2  C   UNL     1       6.853   4.743   3.195  1.00  0.00     0.130 C 
ATOM      3  C   UNL     1       7.708   4.083   4.239  1.00  0.00     0.087 C 
ATOM      4  O   UNL     1       6.049   5.552   3.526  1.00  0.00    -0.300 OA
ENDBRANCH   1   2
BRANCH   1   5
ATOM      5  C   UNL     1       6.132   3.334   1.258  1.00  0.00     0.043 C 
BRANCH   5   6
ATOM      6  C   UNL     1       6.480   1.936   1.601  1.00  0.00    -0.044 A 
ATOM      7  C   UNL     1       5.691   1.197   2.454  1.00  0.00     0.008 A 
ATOM      8  C   UNL     1       7.643   1.351   1.075  1.00  0.00     0.054 A 
ATOM      9  C   UNL     1       6.063  -0.103   2.774  1.00  0.00     0.051 A 
ATOM     10  C   UNL     1       8.002   0.066   1.396  1.00  0.00     0.166 A 
ATOM     11  C   UNL     1       7.206  -0.663   2.251  1.00  0.00     0.165 A 
ATOM     12  O   UNL     1       9.085  -0.757   1.029  1.00  0.00    -0.454 OA
ATOM     13  O   UNL     1       7.826  -1.917   2.384  1.00  0.00    -0.454 OA
ATOM     14  C   UNL     1       8.610  -2.087   1.215  1.00  0.00     0.468 C 
ENDBRANCH   5   6
ENDBRANCH   1   5
TORSDOF 3
ENDMDL
MODEL 5
REMARK VINA RESULT:      -7.2      0.999      1.135
REMARK SMILES CC(=O)CCc1ccc2c(c1)OCO2
REMARK SMILES IDX 4 1 2 2 1 3 3 4 5 5 6 6 7 7 11 8 8 9 10 10 9 11 12 12 14 13
REMARK SMILES IDX 13 14
REMARK H PARENT
REMARK Flexibility Score: inf
ROOT
ATOM      1  C   UNL     1       6.939   4.334   2.277  1.00  0.00     0.080 C 
ENDROOT
BRANCH   1   2
ATOM      2  C   UNL     1       6.858   5.059   3.540  1.00  0.00     0.130 C 
ATOM      3  C   UNL     1       7.893   4.742   4.582  1.00  0.00     0.087 C 
ATOM      4  O   UNL     1       6.026   5.873   3.774  1.00  0.00    -0.300 OA
ENDBRANCH   1   2
BRANCH   1   5
ATOM      5  C   UNL     1       5.912   3.293   2.042  1.00  0.00     0.043 C 
BRANCH   5   6
ATOM      6  C   UNL     1       6.458   2.002   1.564  1.00  0.00    -0.044 A 
ATOM      7  C   UNL     1       6.674   1.775   0.223  1.00  0.00     0.008 A 
ATOM      8  C   UNL     1       6.742   0.976   2.479  1.00  0.00     0.054 A 
ATOM      9  C   UNL     1       7.163   0.543  -0.192  1.00  0.00     0.051 A 
ATOM     10  C   UNL     1       7.226  -0.238   2.061  1.00  0.00     0.166 A 
ATOM     11  C   UNL     1       7.436  -0.454   0.717  1.00  0.00     0.165 A 
ATOM     12  O   UNL     1       7.590  -1.420   2.736  1.00  0.00    -0.454 OA
ATOM     13  O   UNL     1       7.925  -1.767   0.606  1.00  0.00    -0.454 OA
ATOM     14  C   UNL     1       8.509  -2.069   1.862  1.00  0.00     0.468 C 
ENDBRANCH   5   6
ENDBRANCH   1   5
TORSDOF 3
ENDMDL
MODEL 6
REMARK VINA RESULT:      -7.2      2.226      5.263
REMARK SMILES CC(=O)CCc1ccc2c(c1)OCO2
REMARK SMILES IDX 4 1 2 2 1 3 3 4 5 5 6 6 7 7 11 8 8 9 10 10 9 11 12 12 14 13
REMARK SMILES IDX 13 14
REMARK H PARENT
REMARK Flexibility Score: inf
ROOT
ATOM      1  C   UNL     1       8.459  -1.173  -0.296  1.00  0.00     0.080 C 
ENDROOT
BRANCH   1   2
ATOM      2  C   UNL     1       8.380  -1.085  -1.750  1.00  0.00     0.130 C 
ATOM      3  C   UNL     1       8.927   0.156  -2.394  1.00  0.00     0.087 C 
ATOM      4  O   UNL     1       7.911  -1.938  -2.431  1.00  0.00    -0.300 OA
ENDBRANCH   1   2
BRANCH   1   5
ATOM      5  C   UNL     1       8.720   0.091   0.432  1.00  0.00     0.043 C 
BRANCH   5   6
ATOM      6  C   UNL     1       7.504   0.741   0.970  1.00  0.00    -0.044 A 
ATOM      7  C   UNL     1       6.928   1.814   0.327  1.00  0.00     0.008 A 
ATOM      8  C   UNL     1       6.932   0.283   2.168  1.00  0.00     0.054 A 
ATOM      9  C   UNL     1       5.802   2.416   0.874  1.00  0.00     0.051 A 
ATOM     10  C   UNL     1       5.819   0.883   2.701  1.00  0.00     0.166 A 
ATOM     11  C   UNL     1       5.253   1.956   2.049  1.00  0.00     0.165 A 
ATOM     12  O   UNL     1       5.050   0.644   3.858  1.00  0.00    -0.454 OA
ATOM     13  O   UNL     1       4.149   2.345   2.828  1.00  0.00    -0.454 OA
ATOM     14  C   UNL     1       3.770   1.194   3.563  1.00  0.00     0.468 C 
ENDBRANCH   5   6
ENDBRANCH   1   5
TORSDOF 3
ENDMDL
MODEL 7
REMARK VINA RESULT:      -7.1      1.160      5.518
REMARK SMILES CC(=O)CCc1ccc2c(c1)OCO2
REMARK SMILES IDX 4 1 2 2 1 3 3 4 5 5 6 6 7 7 11 8 8 9 10 10 9 11 12 12 14 13
REMARK SMILES IDX 13 14
REMARK H PARENT
REMARK Flexibility Score: inf
ROOT
ATOM      1  C   UNL     1       7.237  -1.049   1.065  1.00  0.00     0.080 C 
ENDROOT
BRANCH   1   2
ATOM      2  C   UNL     1       8.373  -1.838   1.528  1.00  0.00     0.130 C 
ATOM      3  C   UNL     1       8.846  -1.603   2.934  1.00  0.00     0.087 C 
ATOM      4  O   UNL     1       8.927  -2.644   0.855  1.00  0.00    -0.300 OA
ENDBRANCH   1   2
BRANCH   1   5
ATOM      5  C   UNL     1       6.412  -0.397   2.109  1.00  0.00     0.043 C 
BRANCH   5   6
ATOM      6  C   UNL     1       6.488   1.081   2.104  1.00  0.00    -0.044 A 
ATOM      7  C   UNL     1       6.066   1.810   1.014  1.00  0.00     0.008 A 
ATOM      8  C   UNL     1       7.017   1.763   3.212  1.00  0.00     0.054 A 
ATOM      9  C   UNL     1       6.176   3.195   1.034  1.00  0.00     0.051 A 
ATOM     10  C   UNL     1       7.122   3.131   3.223  1.00  0.00     0.166 A 
ATOM     11  C   UNL     1       6.698   3.849   2.127  1.00  0.00     0.165 A 
ATOM     12  O   UNL     1       7.601   4.058   4.170  1.00  0.00    -0.454 OA
ATOM     13  O   UNL     1       6.930   5.201   2.434  1.00  0.00    -0.454 OA
ATOM     14  C   UNL     1       6.940   5.279   3.850  1.00  0.00     0.468 C 
ENDBRANCH   5   6
ENDBRANCH   1   5
TORSDOF 3
ENDMDL
MODEL 8
REMARK VINA RESULT:      -7.0      1.725      2.524
REMARK SMILES CC(=O)CCc1ccc2c(c1)OCO2
REMARK SMILES IDX 4 1 2 2 1 3 3 4 5 5 6 6 7 7 11 8 8 9 10 10 9 11 12 12 14 13
REMARK SMILES IDX 13 14
REMARK H PARENT
REMARK Flexibility Score: inf
ROOT
ATOM      1  C   UNL     1       7.170   4.782   3.836  1.00  0.00     0.080 C 
ENDROOT
BRANCH   1   2
ATOM      2  C   UNL     1       6.815   6.112   4.319  1.00  0.00     0.130 C 
ATOM      3  C   UNL     1       7.928   6.972   4.846  1.00  0.00     0.087 C 
ATOM      4  O   UNL     1       5.705   6.536   4.311  1.00  0.00    -0.300 OA
ENDBRANCH   1   2
BRANCH   1   5
ATOM      5  C   UNL     1       6.829   4.474   2.428  1.00  0.00     0.043 C 
BRANCH   5   6
ATOM      6  C   UNL     1       6.809   3.027   2.114  1.00  0.00    -0.044 A 
ATOM      7  C   UNL     1       6.549   2.582   0.837  1.00  0.00     0.008 A 
ATOM      8  C   UNL     1       7.032   2.083   3.129  1.00  0.00     0.054 A 
ATOM      9  C   UNL     1       6.512   1.216   0.583  1.00  0.00     0.051 A 
ATOM     10  C   UNL     1       6.994   0.736   2.869  1.00  0.00     0.166 A 
ATOM     11  C   UNL     1       6.733   0.302   1.589  1.00  0.00     0.165 A 
ATOM     12  O   UNL     1       7.175  -0.409   3.670  1.00  0.00    -0.454 OA
ATOM     13  O   UNL     1       6.760  -1.102   1.641  1.00  0.00    -0.454 OA
ATOM     14  C   UNL     1       7.568  -1.431   2.758  1.00  0.00     0.468 C 
ENDBRANCH   5   6
ENDBRANCH   1   5
TORSDOF 3
ENDMDL
MODEL 9
REMARK VINA RESULT:      -7.0      1.134      1.960
REMARK SMILES CC(=O)CCc1ccc2c(c1)OCO2
REMARK SMILES IDX 4 1 2 2 1 3 3 4 5 5 6 6 7 7 11 8 8 9 10 10 9 11 12 12 14 13
REMARK SMILES IDX 13 14
REMARK H PARENT
REMARK Flexibility Score: inf
ROOT
ATOM      1  C   UNL     1       5.544   3.379   1.768  1.00  0.00     0.080 C 
ENDROOT
BRANCH   1   2
ATOM      2  C   UNL     1       6.720   4.184   2.077  1.00  0.00     0.130 C 
ATOM      3  C   UNL     1       7.039   4.406   3.528  1.00  0.00     0.087 C 
ATOM      4  O   UNL     1       7.421   4.662   1.247  1.00  0.00    -0.300 OA
ENDBRANCH   1   2
BRANCH   1   5
ATOM      5  C   UNL     1       5.732   2.273   0.800  1.00  0.00     0.043 C 
BRANCH   5   6
ATOM      6  C   UNL     1       6.407   1.083   1.365  1.00  0.00    -0.044 A 
ATOM      7  C   UNL     1       6.013   0.551   2.573  1.00  0.00     0.008 A 
ATOM      8  C   UNL     1       7.481   0.491   0.682  1.00  0.00     0.054 A 
ATOM      9  C   UNL     1       6.685  -0.551   3.086  1.00  0.00     0.051 A 
ATOM     10  C   UNL     1       8.139  -0.598   1.196  1.00  0.00     0.166 A 
ATOM     11  C   UNL     1       7.737  -1.121   2.405  1.00  0.00     0.165 A 
ATOM     12  O   UNL     1       9.222  -1.377   0.743  1.00  0.00    -0.454 OA
ATOM     13  O   UNL     1       8.589  -2.209   2.660  1.00  0.00    -0.454 OA
ATOM     14  C   UNL     1       9.062  -2.635   1.394  1.00  0.00     0.468 C 
ENDBRANCH   5   6
ENDBRANCH   1   5
TORSDOF 3
ENDMDL
MODEL 10
REMARK VINA RESULT:      -6.9      3.331      5.279
REMARK SMILES CC(=O)CCc1ccc2c(c1)OCO2
REMARK SMILES IDX 4 1 2 2 1 3 3 4 5 5 6 6 7 7 11 8 8 9 10 10 9 11 12 12 14 13
REMARK SMILES IDX 13 14
REMARK H PARENT
REMARK Flexibility Score: inf
ROOT
ATOM      1  C   UNL     1       6.991   7.129   4.153  1.00  0.00     0.080 C 
ENDROOT
BRANCH   1   2
ATOM      2  C   UNL     1       5.769   7.507   4.854  1.00  0.00     0.130 C 
ATOM      3  C   UNL     1       5.453   8.972   4.944  1.00  0.00     0.087 C 
ATOM      4  O   UNL     1       5.028   6.720   5.347  1.00  0.00    -0.300 OA
ENDBRANCH   1   2
BRANCH   1   5
ATOM      5  C   UNL     1       8.028   6.436   4.953  1.00  0.00     0.043 C 
BRANCH   5   6
ATOM      6  C   UNL     1       7.989   4.960   4.844  1.00  0.00    -0.044 A 
ATOM      7  C   UNL     1       8.653   4.164   5.751  1.00  0.00     0.008 A 
ATOM      8  C   UNL     1       7.289   4.349   3.792  1.00  0.00     0.054 A 
ATOM      9  C   UNL     1       8.616   2.783   5.604  1.00  0.00     0.051 A 
ATOM     10  C   UNL     1       7.257   2.984   3.654  1.00  0.00     0.166 A 
ATOM     11  C   UNL     1       7.925   2.198   4.567  1.00  0.00     0.165 A 
ATOM     12  O   UNL     1       6.652   2.119   2.721  1.00  0.00    -0.454 OA
ATOM     13  O   UNL     1       7.710   0.869   4.165  1.00  0.00    -0.454 OA
ATOM     14  C   UNL     1       6.509   0.882   3.413  1.00  0.00     0.468 C 
ENDBRANCH   5   6
ENDBRANCH   1   5
TORSDOF 3
ENDMDL
