MODEL 1
REMARK VINA RESULT:      -7.4      0.000      0.000
REMARK SMILES CC(=O)CCc1ccc2c(c1)OCO2
REMARK SMILES IDX 4 1 2 2 1 3 3 4 5 5 6 6 7 7 11 8 8 9 10 10 9 11 12 12 14 13
REMARK SMILES IDX 13 14
REMARK H PARENT
REMARK Flexibility Score: inf
ROOT
ATOM      1  C   UNL     1       6.696   3.767   1.508  1.00  0.00     0.080 C 
ENDROOT
BRANCH   1   2
ATOM      2  C   UNL     1       6.758   4.212   2.928  1.00  0.00     0.130 C 
ATOM      3  C   UNL     1       7.463   3.415   3.967  1.00  0.00     0.087 C 
ATOM      4  O   UNL     1       6.227   5.253   3.282  1.00  0.00    -0.300 OA
ENDBRANCH   1   2
BRANCH   1   5
ATOM      5  C   UNL     1       5.819   2.541   1.354  1.00  0.00     0.043 C 
BRANCH   5   6
ATOM      6  C   UNL     1       6.598   1.359   0.942  1.00  0.00    -0.044 A 
ATOM      7  C   UNL     1       6.966   1.153  -0.393  1.00  0.00     0.008 A 
ATOM      8  C   UNL     1       6.980   0.432   1.884  1.00  0.00     0.054 A 
ATOM      9  C   UNL     1       7.698   0.026  -0.720  1.00  0.00     0.051 A 
ATOM     10  C   UNL     1       7.720  -0.706   1.548  1.00  0.00     0.166 A 
ATOM     11  C   UNL     1       8.082  -0.910   0.235  1.00  0.00     0.165 A 
ATOM     12  O   UNL     1       8.213  -1.759   2.289  1.00  0.00    -0.454 OA
ATOM     13  O   UNL     1       8.798  -2.096   0.197  1.00  0.00    -0.454 OA
ATOM     14  C   UNL     1       8.983  -2.621   1.490  1.00  0.00     0.468 C 
ENDBRANCH   5   6
ENDBRANCH   1   5
TORSDOF 3
ENDMDL
