MODEL 1
REMARK VINA RESULT:      -7.6      0.000      0.000
REMARK SMILES CC(=O)CCc1ccc2c(c1)OCO2
REMARK SMILES IDX 4 1 2 2 1 3 3 4 5 5 6 6 7 7 11 8 8 9 10 10 9 11 12 12 14 13
REMARK SMILES IDX 13 14
REMARK H PARENT
REMARK Flexibility Score: inf
ROOT
ATOM      1  C   UNL     1       6.530   3.618   1.446  1.00  0.00     0.080 C 
ENDROOT
BRANCH   1   2
ATOM      2  C   UNL     1       6.647   4.135   2.822  1.00  0.00     0.130 C 
ATOM      3  C   UNL     1       7.373   3.226   3.799  1.00  0.00     0.087 C 
ATOM      4  O   UNL     1       6.241   5.177   3.253  1.00  0.00    -0.300 OA
ENDBRANCH   1   2
BRANCH   1   5
ATOM      5  C   UNL     1       5.801   2.342   1.290  1.00  0.00     0.043 C 
BRANCH   5   6
ATOM      6  C   UNL     1       6.584   1.168   0.893  1.00  0.00    -0.044 A 
ATOM      7  C   UNL     1       7.175   1.059  -0.367  1.00  0.00     0.008 A 
ATOM      8  C   UNL     1       6.779   0.137   1.783  1.00  0.00     0.054 A 
ATOM      9  C   UNL     1       7.917  -0.056  -0.661  1.00  0.00     0.051 A 
ATOM     10  C   UNL     1       7.543  -0.993   1.455  1.00  0.00     0.166 A 
ATOM     11  C   UNL     1       8.127  -1.100   0.211  1.00  0.00     0.165 A 
ATOM     12  O   UNL     1       7.901  -2.153   2.130  1.00  0.00    -0.454 OA
ATOM     13  O   UNL     1       8.826  -2.312   0.145  1.00  0.00    -0.454 OA
ATOM     14  C   UNL     1       9.050  -2.688   1.488  1.00  0.00     0.468 C 
ENDBRANCH   5   6
ENDBRANCH   1   5
TORSDOF 3
ENDMDL
MODEL 2
REMARK VINA RESULT:      -7.3      1.227      2.263
REMARK SMILES CC(=O)CCc1ccc2c(c1)OCO2
REMARK SMILES IDX 4 1 2 2 1 3 3 4 5 5 6 6 7 7 11 8 8 9 10 10 9 11 12 12 14 13
REMARK SMILES IDX 13 14
REMARK H PARENT
REMARK Flexibility Score: inf
ROOT
ATOM      1  C   UNL     1       6.449   2.810   2.979  1.00  0.00     0.080 C 
ENDROOT
BRANCH   1   2
ATOM      2  C   UNL     1       6.595   4.255   2.732  1.00  0.00     0.130 C 
ATOM      3  C   UNL     1       7.358   4.626   1.472  1.00  0.00     0.087 C 
ATOM      4  O   UNL     1       6.187   5.161   3.402  1.00  0.00    -0.300 OA
ENDBRANCH   1   2
BRANCH   1   5
ATOM      5  C   UNL     1       5.770   2.033   1.920  1.00  0.00     0.043 C 
BRANCH   5   6
ATOM      6  C   UNL     1       6.540   0.966   1.274  1.00  0.00    -0.044 A 
ATOM      7  C   UNL     1       6.704  -0.291   1.858  1.00  0.00     0.008 A 
ATOM      8  C   UNL     1       7.105   1.177   0.038  1.00  0.00     0.054 A 
ATOM      9  C   UNL     1       7.414  -1.251   1.184  1.00  0.00     0.051 A 
ATOM     10  C   UNL     1       7.826   0.176  -0.630  1.00  0.00     0.166 A 
ATOM     11  C   UNL     1       7.989  -1.065  -0.053  1.00  0.00     0.165 A 
ATOM     12  O   UNL     1       8.488   0.104  -1.850  1.00  0.00    -0.454 OA
ATOM     13  O   UNL     1       8.741  -1.869  -0.920  1.00  0.00    -0.454 OA
ATOM     14  C   UNL     1       8.612  -1.269  -2.192  1.00  0.00     0.468 C 
ENDBRANCH   5   6
ENDBRANCH   1   5
TORSDOF 3
ENDMDL
MODEL 3
REMARK VINA RESULT:      -7.2      1.189      1.917
REMARK SMILES CC(=O)CCc1ccc2c(c1)OCO2
REMARK SMILES IDX 4 1 2 2 1 3 3 4 5 5 6 6 7 7 11 8 8 9 10 10 9 11 12 12 14 13
REMARK SMILES IDX 13 14
REMARK H PARENT
REMARK Flexibility Score: inf
ROOT
ATOM      1  C   UNL     1       7.124   4.449   1.849  1.00  0.00     0.080 C 
ENDROOT
BRANCH   1   2
ATOM      2  C   UNL     1       6.849   4.838   3.244  1.00  0.00     0.130 C 
ATOM      3  C   UNL     1       7.726   4.171   4.289  1.00  0.00     0.087 C 
ATOM      4  O   UNL     1       6.024   5.610   3.643  1.00  0.00    -0.300 OA
ENDBRANCH   1   2
BRANCH   1   5
ATOM      5  C   UNL     1       6.252   3.399   1.281  1.00  0.00     0.043 C 
BRANCH   5   6
ATOM      6  C   UNL     1       6.560   2.010   1.632  1.00  0.00    -0.044 A 
ATOM      7  C   UNL     1       5.720   1.242   2.440  1.00  0.00     0.008 A 
ATOM      8  C   UNL     1       7.696   1.411   1.138  1.00  0.00     0.054 A 
ATOM      9  C   UNL     1       6.057  -0.060   2.705  1.00  0.00     0.051 A 
ATOM     10  C   UNL     1       8.017   0.076   1.425  1.00  0.00     0.166 A 
ATOM     11  C   UNL     1       7.188  -0.682   2.223  1.00  0.00     0.165 A 
ATOM     12  O   UNL     1       9.065  -0.768   1.077  1.00  0.00    -0.454 OA
ATOM     13  O   UNL     1       7.735  -1.965   2.350  1.00  0.00    -0.454 OA
ATOM     14  C   UNL     1       8.618  -2.105   1.256  1.00  0.00     0.468 C 
ENDBRANCH   5   6
ENDBRANCH   1   5
TORSDOF 3
ENDMDL
MODEL 4
REMARK VINA RESULT:      -7.2      0.942      1.026
REMARK SMILES CC(=O)CCc1ccc2c(c1)OCO2
REMARK SMILES IDX 4 1 2 2 1 3 3 4 5 5 6 6 7 7 11 8 8 9 10 10 9 11 12 12 14 13
REMARK SMILES IDX 13 14
REMARK H PARENT
REMARK Flexibility Score: inf
ROOT
ATOM      1  C   UNL     1       6.780   4.195   2.319  1.00  0.00     0.080 C 
ENDROOT
BRANCH   1   2
ATOM      2  C   UNL     1       6.843   5.033   3.530  1.00  0.00     0.130 C 
ATOM      3  C   UNL     1       7.863   4.599   4.569  1.00  0.00     0.087 C 
ATOM      4  O   UNL     1       6.191   6.005   3.787  1.00  0.00    -0.300 OA
ENDBRANCH   1   2
BRANCH   1   5
ATOM      5  C   UNL     1       5.981   2.956   2.425  1.00  0.00     0.043 C 
BRANCH   5   6
ATOM      6  C   UNL     1       6.522   1.752   1.789  1.00  0.00    -0.044 A 
ATOM      7  C   UNL     1       6.716   1.663   0.409  1.00  0.00     0.008 A 
ATOM      8  C   UNL     1       6.886   0.671   2.558  1.00  0.00     0.054 A 
ATOM      9  C   UNL     1       7.252   0.516  -0.115  1.00  0.00     0.051 A 
ATOM     10  C   UNL     1       7.434  -0.491   1.994  1.00  0.00     0.166 A 
ATOM     11  C   UNL     1       7.624  -0.580   0.633  1.00  0.00     0.165 A 
ATOM     12  O   UNL     1       7.880  -1.703   2.508  1.00  0.00    -0.454 OA
ATOM     13  O   UNL     1       8.178  -1.831   0.336  1.00  0.00    -0.454 OA
ATOM     14  C   UNL     1       8.750  -2.283   1.546  1.00  0.00     0.468 C 
ENDBRANCH   5   6
ENDBRANCH   1   5
TORSDOF 3
ENDMDL
MODEL 5
REMARK VINA RESULT:      -7.2      1.343      2.267
REMARK SMILES CC(=O)CCc1ccc2c(c1)OCO2
REMARK SMILES IDX 4 1 2 2 1 3 3 4 5 5 6 6 7 7 11 8 8 9 10 10 9 11 12 12 14 13
REMARK SMILES IDX 13 14
REMARK H PARENT
REMARK Flexibility Score: inf
ROOT
ATOM      1  C   UNL     1       6.328   3.652   1.689  1.00  0.00     0.080 C 
ENDROOT
BRANCH   1   2
ATOM      2  C   UNL     1       6.938   3.872   3.013  1.00  0.00     0.130 C 
ATOM      3  C   UNL     1       6.974   5.317   3.481  1.00  0.00     0.087 C 
ATOM      4  O   UNL     1       7.403   3.053   3.754  1.00  0.00    -0.300 OA
ENDBRANCH   1   2
BRANCH   1   5
ATOM      5  C   UNL     1       5.626   2.365   1.501  1.00  0.00     0.043 C 
BRANCH   5   6
ATOM      6  C   UNL     1       6.416   1.239   0.995  1.00  0.00    -0.044 A 
ATOM      7  C   UNL     1       6.525   0.034   1.692  1.00  0.00     0.008 A 
ATOM      8  C   UNL     1       7.057   1.337  -0.218  1.00  0.00     0.054 A 
ATOM      9  C   UNL     1       7.258  -0.988   1.145  1.00  0.00     0.051 A 
ATOM     10  C   UNL     1       7.801   0.275  -0.754  1.00  0.00     0.166 A 
ATOM     11  C   UNL     1       7.909  -0.913  -0.066  1.00  0.00     0.165 A 
ATOM     12  O   UNL     1       8.534   0.093  -1.920  1.00  0.00    -0.454 OA
ATOM     13  O   UNL     1       8.698  -1.796  -0.814  1.00  0.00    -0.454 OA
ATOM     14  C   UNL     1       8.655  -1.305  -2.138  1.00  0.00     0.468 C 
ENDBRANCH   5   6
ENDBRANCH   1   5
TORSDOF 3
ENDMDL
MODEL 6
REMARK VINA RESULT:      -7.2      2.490      5.185
REMARK SMILES CC(=O)CCc1ccc2c(c1)OCO2
REMARK SMILES IDX 4 1 2 2 1 3 3 4 5 5 6 6 7 7 11 8 8 9 10 10 9 11 12 12 14 13
REMARK SMILES IDX 13 14
REMARK H PARENT
REMARK Flexibility Score: inf
ROOT
ATOM      1  C   UNL     1       9.207   0.704  -0.975  1.00  0.00     0.080 C 
ENDROOT
BRANCH   1   2
ATOM      2  C   UNL     1       8.941  -0.008  -2.238  1.00  0.00     0.130 C 
ATOM      3  C   UNL     1       8.596  -1.480  -2.095  1.00  0.00     0.087 C 
ATOM      4  O   UNL     1       8.964   0.436  -3.351  1.00  0.00    -0.300 OA
ENDBRANCH   1   2
BRANCH   1   5
ATOM      5  C   UNL     1       8.640   0.096   0.247  1.00  0.00     0.043 C 
BRANCH   5   6
ATOM      6  C   UNL     1       7.483   0.762   0.852  1.00  0.00    -0.044 A 
ATOM      7  C   UNL     1       6.882   1.881   0.274  1.00  0.00     0.008 A 
ATOM      8  C   UNL     1       6.935   0.270   2.014  1.00  0.00     0.054 A 
ATOM      9  C   UNL     1       5.786   2.437   0.881  1.00  0.00     0.051 A 
ATOM     10  C   UNL     1       5.812   0.859   2.614  1.00  0.00     0.166 A 
ATOM     11  C   UNL     1       5.220   1.964   2.044  1.00  0.00     0.165 A 
ATOM     12  O   UNL     1       5.064   0.588   3.753  1.00  0.00    -0.454 OA
ATOM     13  O   UNL     1       4.129   2.349   2.834  1.00  0.00    -0.454 OA
ATOM     14  C   UNL     1       3.795   1.204   3.592  1.00  0.00     0.468 C 
ENDBRANCH   5   6
ENDBRANCH   1   5
TORSDOF 3
ENDMDL
MODEL 7
REMARK VINA RESULT:      -7.1      1.184      5.567
REMARK SMILES CC(=O)CCc1ccc2c(c1)OCO2
REMARK SMILES IDX 4 1 2 2 1 3 3 4 5 5 6 6 7 7 11 8 8 9 10 10 9 11 12 12 14 13
REMARK SMILES IDX 13 14
REMARK H PARENT
REMARK Flexibility Score: inf
ROOT
ATOM      1  C   UNL     1       7.500  -1.092   0.965  1.00  0.00     0.080 C 
ENDROOT
BRANCH   1   2
ATOM      2  C   UNL     1       8.501  -1.974   1.593  1.00  0.00     0.130 C 
ATOM      3  C   UNL     1       8.891  -1.605   3.014  1.00  0.00     0.087 C 
ATOM      4  O   UNL     1       9.036  -2.935   1.118  1.00  0.00    -0.300 OA
ENDBRANCH   1   2
BRANCH   1   5
ATOM      5  C   UNL     1       6.553  -0.425   1.882  1.00  0.00     0.043 C 
BRANCH   5   6
ATOM      6  C   UNL     1       6.596   1.038   1.942  1.00  0.00    -0.044 A 
ATOM      7  C   UNL     1       6.111   1.840   0.907  1.00  0.00     0.008 A 
ATOM      8  C   UNL     1       7.101   1.667   3.056  1.00  0.00     0.054 A 
ATOM      9  C   UNL     1       6.158   3.203   1.043  1.00  0.00     0.051 A 
ATOM     10  C   UNL     1       7.136   3.065   3.168  1.00  0.00     0.166 A 
ATOM     11  C   UNL     1       6.658   3.856   2.147  1.00  0.00     0.165 A 
ATOM     12  O   UNL     1       7.575   3.951   4.145  1.00  0.00    -0.454 OA
ATOM     13  O   UNL     1       6.810   5.201   2.510  1.00  0.00    -0.454 OA
ATOM     14  C   UNL     1       6.931   5.196   3.918  1.00  0.00     0.468 C 
ENDBRANCH   5   6
ENDBRANCH   1   5
TORSDOF 3
ENDMDL
MODEL 8
REMARK VINA RESULT:      -7.1      1.250      2.100
REMARK SMILES CC(=O)CCc1ccc2c(c1)OCO2
REMARK SMILES IDX 4 1 2 2 1 3 3 4 5 5 6 6 7 7 11 8 8 9 10 10 9 11 12 12 14 13
REMARK SMILES IDX 13 14
REMARK H PARENT
REMARK Flexibility Score: inf
ROOT
ATOM      1  C   UNL     1       6.683   3.917   2.041  1.00  0.00     0.080 C 
ENDROOT
BRANCH   1   2
ATOM      2  C   UNL     1       6.771   4.680   3.299  1.00  0.00     0.130 C 
ATOM      3  C   UNL     1       7.707   4.101   4.347  1.00  0.00     0.087 C 
ATOM      4  O   UNL     1       6.199   5.693   3.587  1.00  0.00    -0.300 OA
ENDBRANCH   1   2
BRANCH   1   5
ATOM      5  C   UNL     1       5.936   2.643   2.104  1.00  0.00     0.043 C 
BRANCH   5   6
ATOM      6  C   UNL     1       6.561   1.469   1.489  1.00  0.00    -0.044 A 
ATOM      7  C   UNL     1       6.428   0.188   2.026  1.00  0.00     0.008 A 
ATOM      8  C   UNL     1       7.286   1.603   0.327  1.00  0.00     0.054 A 
ATOM      9  C   UNL     1       7.017  -0.870   1.383  1.00  0.00     0.051 A 
ATOM     10  C   UNL     1       7.878   0.503  -0.311  1.00  0.00     0.166 A 
ATOM     11  C   UNL     1       7.747  -0.761   0.220  1.00  0.00     0.165 A 
ATOM     12  O   UNL     1       8.644   0.342  -1.459  1.00  0.00    -0.454 OA
ATOM     13  O   UNL     1       8.427  -1.668  -0.603  1.00  0.00    -0.454 OA
ATOM     14  C   UNL     1       8.549  -1.019  -1.852  1.00  0.00     0.468 C 
ENDBRANCH   5   6
ENDBRANCH   1   5
TORSDOF 3
ENDMDL
MODEL 9
REMARK VINA RESULT:      -7.1      2.244      5.333
REMARK SMILES CC(=O)CCc1ccc2c(c1)OCO2
REMARK SMILES IDX 4 1 2 2 1 3 3 4 5 5 6 6 7 7 11 8 8 9 10 10 9 11 12 12 14 13
REMARK SMILES IDX 13 14
REMARK H PARENT
REMARK Flexibility Score: inf
ROOT
ATOM      1  C   UNL     1       8.430  -1.152  -0.291  1.00  0.00     0.080 C 
ENDROOT
BRANCH   1   2
ATOM      2  C   UNL     1       8.393  -1.131  -1.764  1.00  0.00     0.130 C 
ATOM      3  C   UNL     1       8.902   0.146  -2.410  1.00  0.00     0.087 C 
ATOM      4  O   UNL     1       8.012  -1.995  -2.502  1.00  0.00    -0.300 OA
ENDBRANCH   1   2
BRANCH   1   5
ATOM      5  C   UNL     1       8.648   0.150   0.374  1.00  0.00     0.043 C 
BRANCH   5   6
ATOM      6  C   UNL     1       7.476   0.809   0.958  1.00  0.00    -0.044 A 
ATOM      7  C   UNL     1       6.888   1.934   0.377  1.00  0.00     0.008 A 
ATOM      8  C   UNL     1       6.900   0.304   2.100  1.00  0.00     0.054 A 
ATOM      9  C   UNL     1       5.777   2.483   0.963  1.00  0.00     0.051 A 
ATOM     10  C   UNL     1       5.762   0.885   2.679  1.00  0.00     0.166 A 
ATOM     11  C   UNL     1       5.183   1.996   2.106  1.00  0.00     0.165 A 
ATOM     12  O   UNL     1       4.987   0.601   3.797  1.00  0.00    -0.454 OA
ATOM     13  O   UNL     1       4.073   2.371   2.874  1.00  0.00    -0.454 OA
ATOM     14  C   UNL     1       3.722   1.219   3.611  1.00  0.00     0.468 C 
ENDBRANCH   5   6
ENDBRANCH   1   5
TORSDOF 3
ENDMDL
MODEL 10
REMARK VINA RESULT:      -7.0      1.719      2.551
REMARK SMILES CC(=O)CCc1ccc2c(c1)OCO2
REMARK SMILES IDX 4 1 2 2 1 3 3 4 5 5 6 6 7 7 11 8 8 9 10 10 9 11 12 12 14 13
REMARK SMILES IDX 13 14
REMARK H PARENT
REMARK Flexibility Score: inf
ROOT
ATOM      1  C   UNL     1       7.141   4.843   3.888  1.00  0.00     0.080 C 
ENDROOT
BRANCH   1   2
ATOM      2  C   UNL     1       6.756   6.189   4.350  1.00  0.00     0.130 C 
ATOM      3  C   UNL     1       7.909   7.092   4.754  1.00  0.00     0.087 C 
ATOM      4  O   UNL     1       5.653   6.648   4.443  1.00  0.00    -0.300 OA
ENDBRANCH   1   2
BRANCH   1   5
ATOM      5  C   UNL     1       6.809   4.517   2.485  1.00  0.00     0.043 C 
BRANCH   5   6
ATOM      6  C   UNL     1       6.755   3.098   2.122  1.00  0.00    -0.044 A 
ATOM      7  C   UNL     1       6.441   2.673   0.830  1.00  0.00     0.008 A 
ATOM      8  C   UNL     1       7.045   2.136   3.061  1.00  0.00     0.054 A 
ATOM      9  C   UNL     1       6.435   1.330   0.554  1.00  0.00     0.051 A 
ATOM     10  C   UNL     1       7.031   0.767   2.750  1.00  0.00     0.166 A 
ATOM     11  C   UNL     1       6.721   0.347   1.476  1.00  0.00     0.165 A 
ATOM     12  O   UNL     1       7.274  -0.395   3.472  1.00  0.00    -0.454 OA
ATOM     13  O   UNL     1       6.779  -1.052   1.436  1.00  0.00    -0.454 OA
ATOM     14  C   UNL     1       7.577  -1.424   2.541  1.00  0.00     0.468 C 
ENDBRANCH   5   6
ENDBRANCH   1   5
TORSDOF 3
ENDMDL
