MODEL 1
REMARK VINA RESULT:      -7.3      0.000      0.000
REMARK SMILES CC(=O)CCc1ccc2c(c1)OCO2
REMARK SMILES IDX 4 1 2 2 1 3 3 4 5 5 6 6 7 7 11 8 8 9 10 10 9 11 12 12 14 13
REMARK SMILES IDX 13 14
REMARK H PARENT
REMARK Flexibility Score: inf
ROOT
ATOM      1  C   UNL     1       6.798   3.864   1.648  1.00  0.00     0.080 C 
ENDROOT
BRANCH   1   2
ATOM      2  C   UNL     1       6.810   4.383   3.030  1.00  0.00     0.130 C 
ATOM      3  C   UNL     1       7.545   3.639   4.073  1.00  0.00     0.087 C 
ATOM      4  O   UNL     1       6.219   5.404   3.280  1.00  0.00    -0.300 OA
ENDBRANCH   1   2
BRANCH   1   5
ATOM      5  C   UNL     1       5.889   2.660   1.521  1.00  0.00     0.043 C 
BRANCH   5   6
ATOM      6  C   UNL     1       6.655   1.476   1.123  1.00  0.00    -0.044 A 
ATOM      7  C   UNL     1       6.839   1.182  -0.213  1.00  0.00     0.008 A 
ATOM      8  C   UNL     1       7.213   0.618   2.054  1.00  0.00     0.054 A 
ATOM      9  C   UNL     1       7.559   0.067  -0.632  1.00  0.00     0.051 A 
ATOM     10  C   UNL     1       7.939  -0.506   1.664  1.00  0.00     0.166 A 
ATOM     11  C   UNL     1       8.106  -0.772   0.321  1.00  0.00     0.165 A 
ATOM     12  O   UNL     1       8.600  -1.522   2.353  1.00  0.00    -0.454 OA
ATOM     13  O   UNL     1       8.857  -1.933   0.211  1.00  0.00    -0.454 OA
ATOM     14  C   UNL     1       8.947  -2.568   1.483  1.00  0.00     0.468 C 
ENDBRANCH   5   6
ENDBRANCH   1   5
TORSDOF 3
ENDMDL
MODEL 2
REMARK VINA RESULT:      -7.3      1.063      1.889
REMARK SMILES CC(=O)CCc1ccc2c(c1)OCO2
REMARK SMILES IDX 4 1 2 2 1 3 3 4 5 5 6 6 7 7 11 8 8 9 10 10 9 11 12 12 14 13
REMARK SMILES IDX 13 14
REMARK H PARENT
REMARK Flexibility Score: inf
ROOT
ATOM      1  C   UNL     1       5.530   3.313   1.854  1.00  0.00     0.080 C 
ENDROOT
BRANCH   1   2
ATOM      2  C   UNL     1       6.700   4.178   2.105  1.00  0.00     0.130 C 
ATOM      3  C   UNL     1       7.051   4.530   3.495  1.00  0.00     0.087 C 
ATOM      4  O   UNL     1       7.346   4.580   1.168  1.00  0.00    -0.300 OA
ENDBRANCH   1   2
BRANCH   1   5
ATOM      5  C   UNL     1       5.776   2.383   0.684  1.00  0.00     0.043 C 
BRANCH   5   6
ATOM      6  C   UNL     1       6.380   1.129   1.142  1.00  0.00    -0.044 A 
ATOM      7  C   UNL     1       6.127   0.657   2.413  1.00  0.00     0.008 A 
ATOM      8  C   UNL     1       7.215   0.379   0.332  1.00  0.00     0.054 A 
ATOM      9  C   UNL     1       6.681  -0.529   2.887  1.00  0.00     0.051 A 
ATOM     10  C   UNL     1       7.784  -0.811   0.777  1.00  0.00     0.166 A 
ATOM     11  C   UNL     1       7.511  -1.256   2.054  1.00  0.00     0.165 A 
ATOM     12  O   UNL     1       8.638  -1.753   0.205  1.00  0.00    -0.454 OA
ATOM     13  O   UNL     1       8.195  -2.449   2.241  1.00  0.00    -0.454 OA
ATOM     14  C   UNL     1       9.127  -2.638   1.179  1.00  0.00     0.468 C 
ENDBRANCH   5   6
ENDBRANCH   1   5
TORSDOF 3
ENDMDL
MODEL 3
REMARK VINA RESULT:      -7.2      1.005      1.764
REMARK SMILES CC(=O)CCc1ccc2c(c1)OCO2
REMARK SMILES IDX 4 1 2 2 1 3 3 4 5 5 6 6 7 7 11 8 8 9 10 10 9 11 12 12 14 13
REMARK SMILES IDX 13 14
REMARK H PARENT
REMARK Flexibility Score: inf
ROOT
ATOM      1  C   UNL     1       7.063   4.368   1.880  1.00  0.00     0.080 C 
ENDROOT
BRANCH   1   2
ATOM      2  C   UNL     1       6.890   4.742   3.298  1.00  0.00     0.130 C 
ATOM      3  C   UNL     1       7.729   4.089   4.323  1.00  0.00     0.087 C 
ATOM      4  O   UNL     1       6.066   5.573   3.590  1.00  0.00    -0.300 OA
ENDBRANCH   1   2
BRANCH   1   5
ATOM      5  C   UNL     1       5.947   3.457   1.413  1.00  0.00     0.043 C 
BRANCH   5   6
ATOM      6  C   UNL     1       6.295   2.053   1.649  1.00  0.00    -0.044 A 
ATOM      7  C   UNL     1       5.609   1.314   2.590  1.00  0.00     0.008 A 
ATOM      8  C   UNL     1       7.310   1.422   0.951  1.00  0.00     0.054 A 
ATOM      9  C   UNL     1       5.909  -0.021   2.846  1.00  0.00     0.051 A 
ATOM     10  C   UNL     1       7.633   0.088   1.185  1.00  0.00     0.166 A 
ATOM     11  C   UNL     1       6.928  -0.624   2.133  1.00  0.00     0.165 A 
ATOM     12  O   UNL     1       8.577  -0.790   0.653  1.00  0.00    -0.454 OA
ATOM     13  O   UNL     1       7.445  -1.911   2.166  1.00  0.00    -0.454 OA
ATOM     14  C   UNL     1       8.665  -1.956   1.431  1.00  0.00     0.468 C 
ENDBRANCH   5   6
ENDBRANCH   1   5
TORSDOF 3
ENDMDL
MODEL 4
REMARK VINA RESULT:      -7.1      1.636      5.405
REMARK SMILES CC(=O)CCc1ccc2c(c1)OCO2
REMARK SMILES IDX 4 1 2 2 1 3 3 4 5 5 6 6 7 7 11 8 8 9 10 10 9 11 12 12 14 13
REMARK SMILES IDX 13 14
REMARK H PARENT
REMARK Flexibility Score: inf
ROOT
ATOM      1  C   UNL     1       8.312  -0.597   0.457  1.00  0.00     0.080 C 
ENDROOT
BRANCH   1   2
ATOM      2  C   UNL     1       8.204  -0.566  -1.015  1.00  0.00     0.130 C 
ATOM      3  C   UNL     1       9.009   0.410  -1.777  1.00  0.00     0.087 C 
ATOM      4  O   UNL     1       7.460  -1.339  -1.567  1.00  0.00    -0.300 OA
ENDBRANCH   1   2
BRANCH   1   5
ATOM      5  C   UNL     1       6.956  -0.424   1.110  1.00  0.00     0.043 C 
BRANCH   5   6
ATOM      6  C   UNL     1       6.754   0.969   1.517  1.00  0.00    -0.044 A 
ATOM      7  C   UNL     1       6.010   1.823   0.730  1.00  0.00     0.008 A 
ATOM      8  C   UNL     1       7.293   1.477   2.686  1.00  0.00     0.054 A 
ATOM      9  C   UNL     1       5.795   3.154   1.080  1.00  0.00     0.051 A 
ATOM     10  C   UNL     1       7.095   2.803   3.062  1.00  0.00     0.166 A 
ATOM     11  C   UNL     1       6.346   3.632   2.254  1.00  0.00     0.165 A 
ATOM     12  O   UNL     1       7.501   3.574   4.151  1.00  0.00    -0.454 OA
ATOM     13  O   UNL     1       6.306   4.883   2.853  1.00  0.00    -0.454 OA
ATOM     14  C   UNL     1       7.255   4.937   3.914  1.00  0.00     0.468 C 
ENDBRANCH   5   6
ENDBRANCH   1   5
TORSDOF 3
ENDMDL
MODEL 5
REMARK VINA RESULT:      -7.1      1.208      5.412
REMARK SMILES CC(=O)CCc1ccc2c(c1)OCO2
REMARK SMILES IDX 4 1 2 2 1 3 3 4 5 5 6 6 7 7 11 8 8 9 10 10 9 11 12 12 14 13
REMARK SMILES IDX 13 14
REMARK H PARENT
REMARK Flexibility Score: inf
ROOT
ATOM      1  C   UNL     1       8.301  -0.821   0.931  1.00  0.00     0.080 C 
ENDROOT
BRANCH   1   2
ATOM      2  C   UNL     1       8.814  -1.954   1.728  1.00  0.00     0.130 C 
ATOM      3  C   UNL     1       8.985  -1.790   3.186  1.00  0.00     0.087 C 
ATOM      4  O   UNL     1       9.082  -2.990   1.172  1.00  0.00    -0.300 OA
ENDBRANCH   1   2
BRANCH   1   5
ATOM      5  C   UNL     1       6.855  -0.523   1.269  1.00  0.00     0.043 C 
BRANCH   5   6
ATOM      6  C   UNL     1       6.687   0.893   1.607  1.00  0.00    -0.044 A 
ATOM      7  C   UNL     1       5.988   1.733   0.765  1.00  0.00     0.008 A 
ATOM      8  C   UNL     1       7.214   1.437   2.765  1.00  0.00     0.054 A 
ATOM      9  C   UNL     1       5.807   3.084   1.049  1.00  0.00     0.051 A 
ATOM     10  C   UNL     1       7.049   2.784   3.077  1.00  0.00     0.166 A 
ATOM     11  C   UNL     1       6.344   3.598   2.214  1.00  0.00     0.165 A 
ATOM     12  O   UNL     1       7.453   3.592   4.140  1.00  0.00    -0.454 OA
ATOM     13  O   UNL     1       6.329   4.875   2.755  1.00  0.00    -0.454 OA
ATOM     14  C   UNL     1       7.255   4.949   3.836  1.00  0.00     0.468 C 
ENDBRANCH   5   6
ENDBRANCH   1   5
TORSDOF 3
ENDMDL
MODEL 6
REMARK VINA RESULT:      -7.1      1.342      2.042
REMARK SMILES CC(=O)CCc1ccc2c(c1)OCO2
REMARK SMILES IDX 4 1 2 2 1 3 3 4 5 5 6 6 7 7 11 8 8 9 10 10 9 11 12 12 14 13
REMARK SMILES IDX 13 14
REMARK H PARENT
REMARK Flexibility Score: inf
ROOT
ATOM      1  C   UNL     1       6.825   4.186   2.240  1.00  0.00     0.080 C 
ENDROOT
BRANCH   1   2
ATOM      2  C   UNL     1       6.890   4.904   3.529  1.00  0.00     0.130 C 
ATOM      3  C   UNL     1       7.873   4.475   4.544  1.00  0.00     0.087 C 
ATOM      4  O   UNL     1       6.138   5.826   3.727  1.00  0.00    -0.300 OA
ENDBRANCH   1   2
BRANCH   1   5
ATOM      5  C   UNL     1       5.750   3.119   2.259  1.00  0.00     0.043 C 
BRANCH   5   6
ATOM      6  C   UNL     1       6.254   1.870   1.679  1.00  0.00    -0.044 A 
ATOM      7  C   UNL     1       6.195   0.694   2.398  1.00  0.00     0.008 A 
ATOM      8  C   UNL     1       6.801   1.821   0.409  1.00  0.00     0.054 A 
ATOM      9  C   UNL     1       6.663  -0.512   1.884  1.00  0.00     0.051 A 
ATOM     10  C   UNL     1       7.277   0.630  -0.132  1.00  0.00     0.166 A 
ATOM     11  C   UNL     1       7.204  -0.529   0.612  1.00  0.00     0.165 A 
ATOM     12  O   UNL     1       7.863   0.282  -1.349  1.00  0.00    -0.454 OA
ATOM     13  O   UNL     1       7.740  -1.556  -0.152  1.00  0.00    -0.454 OA
ATOM     14  C   UNL     1       8.408  -1.011  -1.286  1.00  0.00     0.468 C 
ENDBRANCH   5   6
ENDBRANCH   1   5
TORSDOF 3
ENDMDL
MODEL 7
REMARK VINA RESULT:      -7.0      2.460      3.335
REMARK SMILES CC(=O)CCc1ccc2c(c1)OCO2
REMARK SMILES IDX 4 1 2 2 1 3 3 4 5 5 6 6 7 7 11 8 8 9 10 10 9 11 12 12 14 13
REMARK SMILES IDX 13 14
REMARK H PARENT
REMARK Flexibility Score: inf
ROOT
ATOM      1  C   UNL     1       7.150  -0.678   4.161  1.00  0.00     0.080 C 
ENDROOT
BRANCH   1   2
ATOM      2  C   UNL     1       8.314   0.195   4.409  1.00  0.00     0.130 C 
ATOM      3  C   UNL     1       8.091   1.611   4.761  1.00  0.00     0.087 C 
ATOM      4  O   UNL     1       9.425  -0.268   4.319  1.00  0.00    -0.300 OA
ENDBRANCH   1   2
BRANCH   1   5
ATOM      5  C   UNL     1       6.159  -0.019   3.225  1.00  0.00     0.043 C 
BRANCH   5   6
ATOM      6  C   UNL     1       6.703   0.051   1.865  1.00  0.00    -0.044 A 
ATOM      7  C   UNL     1       6.526   1.186   1.101  1.00  0.00     0.008 A 
ATOM      8  C   UNL     1       7.404  -1.001   1.302  1.00  0.00     0.054 A 
ATOM      9  C   UNL     1       7.026   1.292  -0.194  1.00  0.00     0.051 A 
ATOM     10  C   UNL     1       7.916  -0.924   0.009  1.00  0.00     0.166 A 
ATOM     11  C   UNL     1       7.722   0.225  -0.729  1.00  0.00     0.165 A 
ATOM     12  O   UNL     1       8.643  -1.796  -0.801  1.00  0.00    -0.454 OA
ATOM     13  O   UNL     1       8.325   0.040  -1.965  1.00  0.00    -0.454 OA
ATOM     14  C   UNL     1       8.677  -1.332  -2.126  1.00  0.00     0.468 C 
ENDBRANCH   5   6
ENDBRANCH   1   5
TORSDOF 3
ENDMDL
MODEL 8
REMARK VINA RESULT:      -7.0      1.507      2.479
REMARK SMILES CC(=O)CCc1ccc2c(c1)OCO2
REMARK SMILES IDX 4 1 2 2 1 3 3 4 5 5 6 6 7 7 11 8 8 9 10 10 9 11 12 12 14 13
REMARK SMILES IDX 13 14
REMARK H PARENT
REMARK Flexibility Score: inf
ROOT
ATOM      1  C   UNL     1       5.191   2.591   1.772  1.00  0.00     0.080 C 
ENDROOT
BRANCH   1   2
ATOM      2  C   UNL     1       6.149   3.656   2.133  1.00  0.00     0.130 C 
ATOM      3  C   UNL     1       7.154   4.087   1.140  1.00  0.00     0.087 C 
ATOM      4  O   UNL     1       6.091   4.151   3.231  1.00  0.00    -0.300 OA
ENDBRANCH   1   2
BRANCH   1   5
ATOM      5  C   UNL     1       4.979   1.630   2.924  1.00  0.00     0.043 C 
BRANCH   5   6
ATOM      6  C   UNL     1       5.995   0.574   2.907  1.00  0.00    -0.044 A 
ATOM      7  C   UNL     1       6.592   0.162   4.080  1.00  0.00     0.008 A 
ATOM      8  C   UNL     1       6.391  -0.042   1.732  1.00  0.00     0.054 A 
ATOM      9  C   UNL     1       7.561  -0.837   4.107  1.00  0.00     0.051 A 
ATOM     10  C   UNL     1       7.358  -1.045   1.728  1.00  0.00     0.166 A 
ATOM     11  C   UNL     1       7.936  -1.435   2.918  1.00  0.00     0.165 A 
ATOM     12  O   UNL     1       7.943  -1.826   0.731  1.00  0.00    -0.454 OA
ATOM     13  O   UNL     1       8.854  -2.435   2.634  1.00  0.00    -0.454 OA
ATOM     14  C   UNL     1       9.067  -2.506   1.227  1.00  0.00     0.468 C 
ENDBRANCH   5   6
ENDBRANCH   1   5
TORSDOF 3
ENDMDL
MODEL 9
REMARK VINA RESULT:      -7.0      1.316      2.180
REMARK SMILES CC(=O)CCc1ccc2c(c1)OCO2
REMARK SMILES IDX 4 1 2 2 1 3 3 4 5 5 6 6 7 7 11 8 8 9 10 10 9 11 12 12 14 13
REMARK SMILES IDX 13 14
REMARK H PARENT
REMARK Flexibility Score: inf
ROOT
ATOM      1  C   UNL     1       5.959   3.367   1.545  1.00  0.00     0.080 C 
ENDROOT
BRANCH   1   2
ATOM      2  C   UNL     1       6.832   4.078   2.501  1.00  0.00     0.130 C 
ATOM      3  C   UNL     1       7.248   3.395   3.742  1.00  0.00     0.087 C 
ATOM      4  O   UNL     1       7.188   5.202   2.247  1.00  0.00    -0.300 OA
ENDBRANCH   1   2
BRANCH   1   5
ATOM      5  C   UNL     1       5.646   1.965   2.025  1.00  0.00     0.043 C 
BRANCH   5   6
ATOM      6  C   UNL     1       6.422   0.977   1.271  1.00  0.00    -0.044 A 
ATOM      7  C   UNL     1       6.694  -0.260   1.819  1.00  0.00     0.008 A 
ATOM      8  C   UNL     1       6.906   1.240   0.002  1.00  0.00     0.054 A 
ATOM      9  C   UNL     1       7.428  -1.226   1.136  1.00  0.00     0.051 A 
ATOM     10  C   UNL     1       7.644   0.293  -0.705  1.00  0.00     0.166 A 
ATOM     11  C   UNL     1       7.899  -0.935  -0.131  1.00  0.00     0.165 A 
ATOM     12  O   UNL     1       8.244   0.272  -1.964  1.00  0.00    -0.454 OA
ATOM     13  O   UNL     1       8.642  -1.678  -1.036  1.00  0.00    -0.454 OA
ATOM     14  C   UNL     1       9.100  -0.834  -2.088  1.00  0.00     0.468 C 
ENDBRANCH   5   6
ENDBRANCH   1   5
TORSDOF 3
ENDMDL
MODEL 10
REMARK VINA RESULT:      -6.9      1.456      1.875
REMARK SMILES CC(=O)CCc1ccc2c(c1)OCO2
REMARK SMILES IDX 4 1 2 2 1 3 3 4 5 5 6 6 7 7 11 8 8 9 10 10 9 11 12 12 14 13
REMARK SMILES IDX 13 14
REMARK H PARENT
REMARK Flexibility Score: inf
ROOT
ATOM      1  C   UNL     1       7.263   4.530   3.770  1.00  0.00     0.080 C 
ENDROOT
BRANCH   1   2
ATOM      2  C   UNL     1       7.007   5.902   4.253  1.00  0.00     0.130 C 
ATOM      3  C   UNL     1       8.098   6.651   4.908  1.00  0.00     0.087 C 
ATOM      4  O   UNL     1       5.911   6.382   4.104  1.00  0.00    -0.300 OA
ENDBRANCH   1   2
BRANCH   1   5
ATOM      5  C   UNL     1       6.470   4.234   2.514  1.00  0.00     0.043 C 
BRANCH   5   6
ATOM      6  C   UNL     1       6.694   2.852   2.077  1.00  0.00    -0.044 A 
ATOM      7  C   UNL     1       6.383   2.470   0.789  1.00  0.00     0.008 A 
ATOM      8  C   UNL     1       7.217   1.892   2.925  1.00  0.00     0.054 A 
ATOM      9  C   UNL     1       6.580   1.168   0.335  1.00  0.00     0.051 A 
ATOM     10  C   UNL     1       7.426   0.582   2.500  1.00  0.00     0.166 A 
ATOM     11  C   UNL     1       7.104   0.231   1.205  1.00  0.00     0.165 A 
ATOM     12  O   UNL     1       7.924  -0.569   3.109  1.00  0.00    -0.454 OA
ATOM     13  O   UNL     1       7.406  -1.113   1.045  1.00  0.00    -0.454 OA
ATOM     14  C   UNL     1       7.671  -1.700   2.316  1.00  0.00     0.468 C 
ENDBRANCH   5   6
ENDBRANCH   1   5
TORSDOF 3
ENDMDL
