MODEL 1
REMARK VINA RESULT:      -7.4      0.000      0.000
REMARK SMILES CC(=O)CCc1ccc2c(c1)OCO2
REMARK SMILES IDX 4 1 2 2 1 3 3 4 5 5 6 6 7 7 11 8 8 9 10 10 9 11 12 12 14 13
REMARK SMILES IDX 13 14
REMARK H PARENT
REMARK Flexibility Score: inf
ROOT
ATOM      1  C   UNL     1       6.696   3.767   1.508  1.00  0.00     0.080 C 
ENDROOT
BRANCH   1   2
ATOM      2  C   UNL     1       6.758   4.212   2.928  1.00  0.00     0.130 C 
ATOM      3  C   UNL     1       7.463   3.415   3.967  1.00  0.00     0.087 C 
ATOM      4  O   UNL     1       6.227   5.253   3.282  1.00  0.00    -0.300 OA
ENDBRANCH   1   2
BRANCH   1   5
ATOM      5  C   UNL     1       5.819   2.541   1.354  1.00  0.00     0.043 C 
BRANCH   5   6
ATOM      6  C   UNL     1       6.598   1.359   0.942  1.00  0.00    -0.044 A 
ATOM      7  C   UNL     1       6.966   1.153  -0.393  1.00  0.00     0.008 A 
ATOM      8  C   UNL     1       6.980   0.432   1.884  1.00  0.00     0.054 A 
ATOM      9  C   UNL     1       7.698   0.026  -0.720  1.00  0.00     0.051 A 
ATOM     10  C   UNL     1       7.720  -0.706   1.548  1.00  0.00     0.166 A 
ATOM     11  C   UNL     1       8.082  -0.910   0.235  1.00  0.00     0.165 A 
ATOM     12  O   UNL     1       8.213  -1.759   2.289  1.00  0.00    -0.454 OA
ATOM     13  O   UNL     1       8.798  -2.096   0.197  1.00  0.00    -0.454 OA
ATOM     14  C   UNL     1       8.983  -2.621   1.490  1.00  0.00     0.468 C 
ENDBRANCH   5   6
ENDBRANCH   1   5
TORSDOF 3
ENDMDL
MODEL 2
REMARK VINA RESULT:      -7.4      0.979      1.761
REMARK SMILES CC(=O)CCc1ccc2c(c1)OCO2
REMARK SMILES IDX 4 1 2 2 1 3 3 4 5 5 6 6 7 7 11 8 8 9 10 10 9 11 12 12 14 13
REMARK SMILES IDX 13 14
REMARK H PARENT
REMARK Flexibility Score: inf
ROOT
ATOM      1  C   UNL     1       7.001   4.176   1.602  1.00  0.00     0.080 C 
ENDROOT
BRANCH   1   2
ATOM      2  C   UNL     1       6.841   4.559   3.032  1.00  0.00     0.130 C 
ATOM      3  C   UNL     1       7.563   3.843   4.118  1.00  0.00     0.087 C 
ATOM      4  O   UNL     1       6.106   5.478   3.356  1.00  0.00    -0.300 OA
ENDBRANCH   1   2
BRANCH   1   5
ATOM      5  C   UNL     1       5.952   3.166   1.181  1.00  0.00     0.043 C 
BRANCH   5   6
ATOM      6  C   UNL     1       6.339   1.792   1.548  1.00  0.00    -0.044 A 
ATOM      7  C   UNL     1       5.638   1.068   2.520  1.00  0.00     0.008 A 
ATOM      8  C   UNL     1       7.411   1.195   0.924  1.00  0.00     0.054 A 
ATOM      9  C   UNL     1       6.046  -0.218   2.823  1.00  0.00     0.051 A 
ATOM     10  C   UNL     1       7.819  -0.106   1.233  1.00  0.00     0.166 A 
ATOM     11  C   UNL     1       7.131  -0.818   2.191  1.00  0.00     0.165 A 
ATOM     12  O   UNL     1       8.836  -0.908   0.762  1.00  0.00    -0.454 OA
ATOM     13  O   UNL     1       7.747  -2.057   2.288  1.00  0.00    -0.454 OA
ATOM     14  C   UNL     1       8.775  -2.189   1.336  1.00  0.00     0.468 C 
ENDBRANCH   5   6
ENDBRANCH   1   5
TORSDOF 3
ENDMDL
MODEL 3
REMARK VINA RESULT:      -7.3      1.109      2.049
REMARK SMILES CC(=O)CCc1ccc2c(c1)OCO2
REMARK SMILES IDX 4 1 2 2 1 3 3 4 5 5 6 6 7 7 11 8 8 9 10 10 9 11 12 12 14 13
REMARK SMILES IDX 13 14
REMARK H PARENT
REMARK Flexibility Score: inf
ROOT
ATOM      1  C   UNL     1       6.503   3.724   1.574  1.00  0.00     0.080 C 
ENDROOT
BRANCH   1   2
ATOM      2  C   UNL     1       6.734   4.197   2.968  1.00  0.00     0.130 C 
ATOM      3  C   UNL     1       7.450   3.361   3.968  1.00  0.00     0.087 C 
ATOM      4  O   UNL     1       6.337   5.293   3.331  1.00  0.00    -0.300 OA
ENDBRANCH   1   2
BRANCH   1   5
ATOM      5  C   UNL     1       5.633   2.483   1.551  1.00  0.00     0.043 C 
BRANCH   5   6
ATOM      6  C   UNL     1       6.370   1.307   1.056  1.00  0.00    -0.044 A 
ATOM      7  C   UNL     1       6.510   0.150   1.831  1.00  0.00     0.008 A 
ATOM      8  C   UNL     1       6.937   1.336  -0.197  1.00  0.00     0.054 A 
ATOM      9  C   UNL     1       7.212  -0.923   1.314  1.00  0.00     0.051 A 
ATOM     10  C   UNL     1       7.646   0.248  -0.716  1.00  0.00     0.166 A 
ATOM     11  C   UNL     1       7.785  -0.891   0.046  1.00  0.00     0.165 A 
ATOM     12  O   UNL     1       8.294   0.033  -1.914  1.00  0.00    -0.454 OA
ATOM     13  O   UNL     1       8.521  -1.791  -0.708  1.00  0.00    -0.454 OA
ATOM     14  C   UNL     1       8.787  -1.280  -1.993  1.00  0.00     0.468 C 
ENDBRANCH   5   6
ENDBRANCH   1   5
TORSDOF 3
ENDMDL
MODEL 4
REMARK VINA RESULT:      -7.3      0.878      1.138
REMARK SMILES CC(=O)CCc1ccc2c(c1)OCO2
REMARK SMILES IDX 4 1 2 2 1 3 3 4 5 5 6 6 7 7 11 8 8 9 10 10 9 11 12 12 14 13
REMARK SMILES IDX 13 14
REMARK H PARENT
REMARK Flexibility Score: inf
ROOT
ATOM      1  C   UNL     1       5.323   2.972   1.672  1.00  0.00     0.080 C 
ENDROOT
BRANCH   1   2
ATOM      2  C   UNL     1       6.260   4.010   2.185  1.00  0.00     0.130 C 
ATOM      3  C   UNL     1       7.376   4.535   1.352  1.00  0.00     0.087 C 
ATOM      4  O   UNL     1       6.139   4.462   3.312  1.00  0.00    -0.300 OA
ENDBRANCH   1   2
BRANCH   1   5
ATOM      5  C   UNL     1       5.491   1.663   2.417  1.00  0.00     0.043 C 
BRANCH   5   6
ATOM      6  C   UNL     1       6.395   0.741   1.706  1.00  0.00    -0.044 A 
ATOM      7  C   UNL     1       6.774   0.966   0.377  1.00  0.00     0.008 A 
ATOM      8  C   UNL     1       6.887  -0.368   2.355  1.00  0.00     0.054 A 
ATOM      9  C   UNL     1       7.626   0.068  -0.239  1.00  0.00     0.051 A 
ATOM     10  C   UNL     1       7.749  -1.273   1.728  1.00  0.00     0.166 A 
ATOM     11  C   UNL     1       8.121  -1.053   0.421  1.00  0.00     0.165 A 
ATOM     12  O   UNL     1       8.364  -2.432   2.151  1.00  0.00    -0.454 OA
ATOM     13  O   UNL     1       8.967  -2.093   0.065  1.00  0.00    -0.454 OA
ATOM     14  C   UNL     1       9.220  -2.940   1.160  1.00  0.00     0.468 C 
ENDBRANCH   5   6
ENDBRANCH   1   5
TORSDOF 3
ENDMDL
MODEL 5
REMARK VINA RESULT:      -7.2      1.061      1.939
REMARK SMILES CC(=O)CCc1ccc2c(c1)OCO2
REMARK SMILES IDX 4 1 2 2 1 3 3 4 5 5 6 6 7 7 11 8 8 9 10 10 9 11 12 12 14 13
REMARK SMILES IDX 13 14
REMARK H PARENT
REMARK Flexibility Score: inf
ROOT
ATOM      1  C   UNL     1       5.542   3.031   1.822  1.00  0.00     0.080 C 
ENDROOT
BRANCH   1   2
ATOM      2  C   UNL     1       6.618   4.035   2.050  1.00  0.00     0.130 C 
ATOM      3  C   UNL     1       6.997   4.476   3.419  1.00  0.00     0.087 C 
ATOM      4  O   UNL     1       7.223   4.529   1.113  1.00  0.00    -0.300 OA
ENDBRANCH   1   2
BRANCH   1   5
ATOM      5  C   UNL     1       5.912   2.071   0.709  1.00  0.00     0.043 C 
BRANCH   5   6
ATOM      6  C   UNL     1       6.597   0.873   1.226  1.00  0.00    -0.044 A 
ATOM      7  C   UNL     1       6.463   0.470   2.560  1.00  0.00     0.008 A 
ATOM      8  C   UNL     1       7.387   0.122   0.385  1.00  0.00     0.054 A 
ATOM      9  C   UNL     1       7.128  -0.664   2.989  1.00  0.00     0.051 A 
ATOM     10  C   UNL     1       8.057  -1.024   0.824  1.00  0.00     0.166 A 
ATOM     11  C   UNL     1       7.927  -1.420   2.136  1.00  0.00     0.165 A 
ATOM     12  O   UNL     1       8.889  -1.925   0.194  1.00  0.00    -0.454 OA
ATOM     13  O   UNL     1       8.689  -2.568   2.286  1.00  0.00    -0.454 OA
ATOM     14  C   UNL     1       9.243  -2.974   1.057  1.00  0.00     0.468 C 
ENDBRANCH   5   6
ENDBRANCH   1   5
TORSDOF 3
ENDMDL
MODEL 6
REMARK VINA RESULT:      -7.1      1.247      5.465
REMARK SMILES CC(=O)CCc1ccc2c(c1)OCO2
REMARK SMILES IDX 4 1 2 2 1 3 3 4 5 5 6 6 7 7 11 8 8 9 10 10 9 11 12 12 14 13
REMARK SMILES IDX 13 14
REMARK H PARENT
REMARK Flexibility Score: inf
ROOT
ATOM      1  C   UNL     1       7.704  -0.945   1.036  1.00  0.00     0.080 C 
ENDROOT
BRANCH   1   2
ATOM      2  C   UNL     1       8.527  -1.901   1.829  1.00  0.00     0.130 C 
ATOM      3  C   UNL     1       8.946  -1.600   3.224  1.00  0.00     0.087 C 
ATOM      4  O   UNL     1       8.883  -2.966   1.352  1.00  0.00    -0.300 OA
ENDBRANCH   1   2
BRANCH   1   5
ATOM      5  C   UNL     1       6.523  -0.438   1.840  1.00  0.00     0.043 C 
BRANCH   5   6
ATOM      6  C   UNL     1       6.526   1.032   1.946  1.00  0.00    -0.044 A 
ATOM      7  C   UNL     1       5.985   1.841   0.940  1.00  0.00     0.008 A 
ATOM      8  C   UNL     1       7.068   1.635   3.059  1.00  0.00     0.054 A 
ATOM      9  C   UNL     1       6.015   3.215   1.095  1.00  0.00     0.051 A 
ATOM     10  C   UNL     1       7.095   3.024   3.211  1.00  0.00     0.166 A 
ATOM     11  C   UNL     1       6.564   3.821   2.221  1.00  0.00     0.165 A 
ATOM     12  O   UNL     1       7.570   3.851   4.207  1.00  0.00    -0.454 OA
ATOM     13  O   UNL     1       6.726   5.134   2.634  1.00  0.00    -0.454 OA
ATOM     14  C   UNL     1       7.277   5.196   3.927  1.00  0.00     0.468 C 
ENDBRANCH   5   6
ENDBRANCH   1   5
TORSDOF 3
ENDMDL
MODEL 7
REMARK VINA RESULT:      -7.1      1.097      1.265
REMARK SMILES CC(=O)CCc1ccc2c(c1)OCO2
REMARK SMILES IDX 4 1 2 2 1 3 3 4 5 5 6 6 7 7 11 8 8 9 10 10 9 11 12 12 14 13
REMARK SMILES IDX 13 14
REMARK H PARENT
REMARK Flexibility Score: inf
ROOT
ATOM      1  C   UNL     1       7.161   4.586   2.275  1.00  0.00     0.080 C 
ENDROOT
BRANCH   1   2
ATOM      2  C   UNL     1       6.956   5.178   3.627  1.00  0.00     0.130 C 
ATOM      3  C   UNL     1       7.900   4.914   4.746  1.00  0.00     0.087 C 
ATOM      4  O   UNL     1       6.000   5.901   3.856  1.00  0.00    -0.300 OA
ENDBRANCH   1   2
BRANCH   1   5
ATOM      5  C   UNL     1       6.061   3.600   1.934  1.00  0.00     0.043 C 
BRANCH   5   6
ATOM      6  C   UNL     1       6.601   2.261   1.635  1.00  0.00    -0.044 A 
ATOM      7  C   UNL     1       6.495   1.697   0.358  1.00  0.00     0.008 A 
ATOM      8  C   UNL     1       7.227   1.541   2.626  1.00  0.00     0.054 A 
ATOM      9  C   UNL     1       7.021   0.438   0.136  1.00  0.00     0.051 A 
ATOM     10  C   UNL     1       7.758   0.268   2.396  1.00  0.00     0.166 A 
ATOM     11  C   UNL     1       7.654  -0.288   1.141  1.00  0.00     0.165 A 
ATOM     12  O   UNL     1       8.416  -0.635   3.203  1.00  0.00    -0.454 OA
ATOM     13  O   UNL     1       8.257  -1.534   1.203  1.00  0.00    -0.454 OA
ATOM     14  C   UNL     1       8.834  -1.757   2.468  1.00  0.00     0.468 C 
ENDBRANCH   5   6
ENDBRANCH   1   5
TORSDOF 3
ENDMDL
MODEL 8
REMARK VINA RESULT:      -7.0      1.569      5.414
REMARK SMILES CC(=O)CCc1ccc2c(c1)OCO2
REMARK SMILES IDX 4 1 2 2 1 3 3 4 5 5 6 6 7 7 11 8 8 9 10 10 9 11 12 12 14 13
REMARK SMILES IDX 13 14
REMARK H PARENT
REMARK Flexibility Score: inf
ROOT
ATOM      1  C   UNL     1       8.222  -0.686   0.648  1.00  0.00     0.080 C 
ENDROOT
BRANCH   1   2
ATOM      2  C   UNL     1       8.170  -0.566  -0.836  1.00  0.00     0.130 C 
ATOM      3  C   UNL     1       8.967   0.455  -1.566  1.00  0.00     0.087 C 
ATOM      4  O   UNL     1       7.464  -1.309  -1.500  1.00  0.00    -0.300 OA
ENDBRANCH   1   2
BRANCH   1   5
ATOM      5  C   UNL     1       6.869  -0.404   1.271  1.00  0.00     0.043 C 
BRANCH   5   6
ATOM      6  C   UNL     1       6.698   1.027   1.581  1.00  0.00    -0.044 A 
ATOM      7  C   UNL     1       5.976   1.878   0.737  1.00  0.00     0.008 A 
ATOM      8  C   UNL     1       7.255   1.548   2.727  1.00  0.00     0.054 A 
ATOM      9  C   UNL     1       5.847   3.212   1.080  1.00  0.00     0.051 A 
ATOM     10  C   UNL     1       7.121   2.897   3.069  1.00  0.00     0.166 A 
ATOM     11  C   UNL     1       6.412   3.735   2.239  1.00  0.00     0.165 A 
ATOM     12  O   UNL     1       7.575   3.645   4.135  1.00  0.00    -0.454 OA
ATOM     13  O   UNL     1       6.444   4.994   2.819  1.00  0.00    -0.454 OA
ATOM     14  C   UNL     1       7.093   4.962   4.068  1.00  0.00     0.468 C 
ENDBRANCH   5   6
ENDBRANCH   1   5
TORSDOF 3
ENDMDL
MODEL 9
REMARK VINA RESULT:      -6.9      2.427      3.324
REMARK SMILES CC(=O)CCc1ccc2c(c1)OCO2
REMARK SMILES IDX 4 1 2 2 1 3 3 4 5 5 6 6 7 7 11 8 8 9 10 10 9 11 12 12 14 13
REMARK SMILES IDX 13 14
REMARK H PARENT
REMARK Flexibility Score: inf
ROOT
ATOM      1  C   UNL     1       7.214  -0.709   4.170  1.00  0.00     0.080 C 
ENDROOT
BRANCH   1   2
ATOM      2  C   UNL     1       8.347   0.212   4.464  1.00  0.00     0.130 C 
ATOM      3  C   UNL     1       8.122   1.637   4.823  1.00  0.00     0.087 C 
ATOM      4  O   UNL     1       9.502  -0.181   4.417  1.00  0.00    -0.300 OA
ENDBRANCH   1   2
BRANCH   1   5
ATOM      5  C   UNL     1       6.180  -0.043   3.284  1.00  0.00     0.043 C 
BRANCH   5   6
ATOM      6  C   UNL     1       6.659   0.103   1.898  1.00  0.00    -0.044 A 
ATOM      7  C   UNL     1       6.449   1.280   1.171  1.00  0.00     0.008 A 
ATOM      8  C   UNL     1       7.333  -0.935   1.296  1.00  0.00     0.054 A 
ATOM      9  C   UNL     1       6.923   1.361  -0.126  1.00  0.00     0.051 A 
ATOM     10  C   UNL     1       7.810  -0.848  -0.015  1.00  0.00     0.166 A 
ATOM     11  C   UNL     1       7.603   0.309  -0.732  1.00  0.00     0.165 A 
ATOM     12  O   UNL     1       8.498  -1.727  -0.825  1.00  0.00    -0.454 OA
ATOM     13  O   UNL     1       8.175   0.115  -1.980  1.00  0.00    -0.454 OA
ATOM     14  C   UNL     1       8.832  -1.128  -2.050  1.00  0.00     0.468 C 
ENDBRANCH   5   6
ENDBRANCH   1   5
TORSDOF 3
ENDMDL
MODEL 10
REMARK VINA RESULT:      -6.9      1.352      5.291
REMARK SMILES CC(=O)CCc1ccc2c(c1)OCO2
REMARK SMILES IDX 4 1 2 2 1 3 3 4 5 5 6 6 7 7 11 8 8 9 10 10 9 11 12 12 14 13
REMARK SMILES IDX 13 14
REMARK H PARENT
REMARK Flexibility Score: inf
ROOT
ATOM      1  C   UNL     1       7.160  -0.730   0.524  1.00  0.00     0.080 C 
ENDROOT
BRANCH   1   2
ATOM      2  C   UNL     1       8.590  -0.332   0.396  1.00  0.00     0.130 C 
ATOM      3  C   UNL     1       9.052   0.582  -0.684  1.00  0.00     0.087 C 
ATOM      4  O   UNL     1       9.429  -0.747   1.178  1.00  0.00    -0.300 OA
ENDBRANCH   1   2
BRANCH   1   5
ATOM      5  C   UNL     1       6.589  -0.308   1.863  1.00  0.00     0.043 C 
BRANCH   5   6
ATOM      6  C   UNL     1       6.567   1.158   2.010  1.00  0.00    -0.044 A 
ATOM      7  C   UNL     1       5.971   1.982   1.048  1.00  0.00     0.008 A 
ATOM      8  C   UNL     1       7.140   1.742   3.116  1.00  0.00     0.054 A 
ATOM      9  C   UNL     1       5.979   3.352   1.240  1.00  0.00     0.051 A 
ATOM     10  C   UNL     1       7.145   3.127   3.306  1.00  0.00     0.166 A 
ATOM     11  C   UNL     1       6.560   3.939   2.359  1.00  0.00     0.165 A 
ATOM     12  O   UNL     1       7.642   3.938   4.304  1.00  0.00    -0.454 OA
ATOM     13  O   UNL     1       6.711   5.244   2.802  1.00  0.00    -0.454 OA
ATOM     14  C   UNL     1       7.311   5.283   4.074  1.00  0.00     0.468 C 
ENDBRANCH   5   6
ENDBRANCH   1   5
TORSDOF 3
ENDMDL
