MODEL 1
REMARK VINA RESULT:      -7.6      0.000      0.000
REMARK SMILES CC(=O)CCc1ccc2c(c1)OCO2
REMARK SMILES IDX 4 1 2 2 1 3 3 4 5 5 6 6 7 7 11 8 8 9 10 10 9 11 12 12 14 13
REMARK SMILES IDX 13 14
REMARK H PARENT
REMARK Flexibility Score: inf
ROOT
ATOM      1  C   UNL     1       6.545   3.601   1.443  1.00  0.00     0.080 C 
ENDROOT
BRANCH   1   2
ATOM      2  C   UNL     1       6.656   4.095   2.811  1.00  0.00     0.130 C 
ATOM      3  C   UNL     1       7.384   3.228   3.798  1.00  0.00     0.087 C 
ATOM      4  O   UNL     1       6.204   5.133   3.169  1.00  0.00    -0.300 OA
ENDBRANCH   1   2
BRANCH   1   5
ATOM      5  C   UNL     1       5.768   2.354   1.248  1.00  0.00     0.043 C 
BRANCH   5   6
ATOM      6  C   UNL     1       6.590   1.182   0.872  1.00  0.00    -0.044 A 
ATOM      7  C   UNL     1       7.163   1.088  -0.378  1.00  0.00     0.008 A 
ATOM      8  C   UNL     1       6.778   0.131   1.784  1.00  0.00     0.054 A 
ATOM      9  C   UNL     1       7.907  -0.038  -0.705  1.00  0.00     0.051 A 
ATOM     10  C   UNL     1       7.514  -0.978   1.451  1.00  0.00     0.166 A 
ATOM     11  C   UNL     1       8.081  -1.061   0.199  1.00  0.00     0.165 A 
ATOM     12  O   UNL     1       7.859  -2.154   2.146  1.00  0.00    -0.454 OA
ATOM     13  O   UNL     1       8.760  -2.291   0.161  1.00  0.00    -0.454 OA
ATOM     14  C   UNL     1       9.049  -2.615   1.511  1.00  0.00     0.468 C 
ENDBRANCH   5   6
ENDBRANCH   1   5
TORSDOF 3
ENDMDL
