@<TRIPOS>MOLECULE
/home/cewinharhar/GITHUB/reincatalyze/data/processed/docking_pred/2023-Apr-25-1829_maxeplen10_maxtrainstep200_exh32_gamma099_lrac3e-4_lrcr1e-3/00fabcb6e86abbd64330e8a307762c5d347247e8_ligand_2.pdbqt
 12 12 0 0 0
SMALL
GASTEIGER

@<TRIPOS>ATOM
      1  C          8.1850    0.1750   -2.2160 C.3     1  UNL1        0.1270
      2  C          9.5430    0.0010   -1.6720 C.2     1  UNL1        0.3030
      3  O         10.0570   -1.1420   -1.6820 O.2     1  UNL1       -0.2520
      4  O         10.2540    1.0680   -1.1580 O.3     1  UNL1       -0.4810
      5  H         10.4010    1.2230   -0.1430 H       1  UNL1        0.2960
      6  C          7.2900   -0.8460   -1.5210 C.3     1  UNL1        0.0470
      7  C          6.5400   -0.2550   -0.3990 C.2     1  UNL1       -0.0470
      8  C          5.9990    1.0130   -0.5690 C.2     1  UNL1        0.0040
      9  C          6.3360   -0.8610    0.8140 C.2     1  UNL1        0.0040
     10  C          5.2890    1.6080    0.4720 C.2     1  UNL1        0.0000
     11  C          5.6370   -0.2990    1.8640 C.2     1  UNL1        0.0000
     12  C          5.1120    0.9630    1.6660 C.2     1  UNL1        0.0000
@<TRIPOS>BOND
     1     1     2    1
     2     1     6    1
     3     3     2    2
     4     2     4    1
     5     6     7    1
     6     4     5    1
     7     8     7    2
     8     8    10    1
     9     7     9    1
    10    10    12    2
    11     9    11    2
    12    12    11    1
