@<TRIPOS>MOLECULE
/home/cewinharhar/GITHUB/reincatalyze/data/processed/docking_pred/2023-Apr-25-1829_maxeplen10_maxtrainstep200_exh32_gamma099_lrac3e-4_lrcr1e-3/00fabcb6e86abbd64330e8a307762c5d347247e8_ligand_2.pdbqt
 12 12 0 0 0
SMALL
GASTEIGER

@<TRIPOS>ATOM
      1  C          8.4360    0.1780   -2.1890 C.3     1  UNL1        0.1270
      2  C          9.6270   -0.1880   -1.4020 C.2     1  UNL1        0.3030
      3  O          9.7880   -1.3850   -1.0680 O.2     1  UNL1       -0.2520
      4  O         10.5620    0.7590   -1.0300 O.3     1  UNL1       -0.4810
      5  H         11.1140    0.7060   -0.1540 H       1  UNL1        0.2960
      6  C          7.2970   -0.7210   -1.7210 C.3     1  UNL1        0.0470
      7  C          6.5680   -0.1450   -0.5770 C.2     1  UNL1       -0.0470
      8  C          6.4880   -0.8940    0.5910 C.2     1  UNL1        0.0040
      9  C          5.9520    1.0790   -0.5750 C.2     1  UNL1        0.0040
     10  C          5.8020   -0.3860    1.6920 C.2     1  UNL1        0.0000
     11  C          5.2650    1.6100    0.4990 C.2     1  UNL1        0.0000
     12  C          5.2020    0.8430    1.6450 C.2     1  UNL1        0.0000
@<TRIPOS>BOND
     1     1     6    1
     2     1     2    1
     3     6     7    1
     4     2     3    2
     5     2     4    1
     6     4     5    1
     7     7     9    2
     8     7     8    1
     9     9    11    1
    10    11    12    2
    11     8    10    2
    12    12    10    1
