@<TRIPOS>MOLECULE
/home/cewinharhar/GITHUB/reincatalyze/data/processed/docking_pred/2023-Apr-25-1829_maxeplen10_maxtrainstep200_exh32_gamma099_lrac3e-4_lrcr1e-3/00fabcb6e86abbd64330e8a307762c5d347247e8_ligand_2.pdbqt
 12 12 0 0 0
SMALL
GASTEIGER

@<TRIPOS>ATOM
      1  C          8.5110   -0.7510   -1.9960 C.3     1  UNL1        0.1270
      2  C          8.5180   -1.9660   -2.8290 C.2     1  UNL1        0.3030
      3  O          9.6020   -2.5670   -3.0150 O.2     1  UNL1       -0.2520
      4  O          7.3590   -2.4520   -3.4040 O.3     1  UNL1       -0.4810
      5  H          6.4190   -2.0510   -3.2250 H       1  UNL1        0.2960
      6  C          7.1110   -0.1550   -2.0840 C.3     1  UNL1        0.0470
      7  C          6.5110    0.0540   -0.7540 C.2     1  UNL1       -0.0470
      8  C          6.6140   -0.9710    0.1780 C.2     1  UNL1        0.0040
      9  C          5.8490    1.1880   -0.3610 C.2     1  UNL1        0.0040
     10  C          6.0540   -0.8130    1.4440 C.2     1  UNL1        0.0000
     11  C          5.2840    1.3750    0.8850 C.2     1  UNL1        0.0000
     12  C          5.4010    0.3380    1.7900 C.2     1  UNL1        0.0000
@<TRIPOS>BOND
     1     4     5    1
     2     4     2    1
     3     3     2    2
     4     2     1    1
     5     6     1    1
     6     6     7    1
     7     7     9    2
     8     7     8    1
     9     9    11    1
    10     8    10    2
    11    11    12    2
    12    10    12    1
