MODEL 1
REMARK VINA RESULT:      -7.0      0.000      0.000
REMARK SMILES O=C(O)CCc1ccccc1
REMARK SMILES IDX 4 1 2 2 1 3 3 4 5 6 6 7 7 8 11 9 8 10 10 11 9 12
REMARK H PARENT 3 5
REMARK Flexibility Score: inf
ROOT
ATOM      1  C   UNL     1       8.511  -0.751  -1.996  1.00  0.00     0.127 C 
ENDROOT
BRANCH   1   2
ATOM      2  C   UNL     1       8.518  -1.966  -2.829  1.00  0.00     0.303 C 
ATOM      3  O   UNL     1       9.602  -2.567  -3.015  1.00  0.00    -0.252 OA
BRANCH   2   4
ATOM      4  O   UNL     1       7.359  -2.452  -3.404  1.00  0.00    -0.481 OA
ATOM      5  H   UNL     1       6.419  -2.051  -3.225  1.00  0.00     0.296 HD
ENDBRANCH   2   4
ENDBRANCH   1   2
BRANCH   1   6
ATOM      6  C   UNL     1       7.111  -0.155  -2.084  1.00  0.00     0.047 C 
BRANCH   6   7
ATOM      7  C   UNL     1       6.511   0.054  -0.754  1.00  0.00    -0.047 A 
ATOM      8  C   UNL     1       6.614  -0.971   0.178  1.00  0.00     0.004 A 
ATOM      9  C   UNL     1       5.849   1.188  -0.361  1.00  0.00     0.004 A 
ATOM     10  C   UNL     1       6.054  -0.813   1.444  1.00  0.00     0.000 A 
ATOM     11  C   UNL     1       5.284   1.375   0.885  1.00  0.00     0.000 A 
ATOM     12  C   UNL     1       5.401   0.338   1.790  1.00  0.00     0.000 A 
ENDBRANCH   6   7
ENDBRANCH   1   6
TORSDOF 4
ENDMDL
MODEL 2
REMARK VINA RESULT:      -6.8      0.242      1.450
REMARK SMILES O=C(O)CCc1ccccc1
REMARK SMILES IDX 4 1 2 2 1 3 3 4 5 6 6 7 7 8 11 9 8 10 10 11 9 12
REMARK H PARENT 3 5
REMARK Flexibility Score: inf
ROOT
ATOM      1  C   UNL     1       8.575  -0.460  -1.992  1.00  0.00     0.127 C 
ENDROOT
BRANCH   1   2
ATOM      2  C   UNL     1       8.712  -1.736  -2.716  1.00  0.00     0.303 C 
ATOM      3  O   UNL     1       9.844  -2.269  -2.796  1.00  0.00    -0.252 OA
BRANCH   2   4
ATOM      4  O   UNL     1       7.622  -2.352  -3.301  1.00  0.00    -0.481 OA
ATOM      5  H   UNL     1       6.641  -2.165  -3.023  1.00  0.00     0.296 HD
ENDBRANCH   2   4
ENDBRANCH   1   2
BRANCH   1   6
ATOM      6  C   UNL     1       7.094  -0.101  -1.992  1.00  0.00     0.047 C 
BRANCH   6   7
ATOM      7  C   UNL     1       6.545  -0.011  -0.627  1.00  0.00    -0.047 A 
ATOM      8  C   UNL     1       5.888   1.159  -0.263  1.00  0.00     0.004 A 
ATOM      9  C   UNL     1       6.636  -0.995   0.323  1.00  0.00     0.004 A 
ATOM     10  C   UNL     1       5.360   1.285   1.021  1.00  0.00     0.000 A 
ATOM     11  C   UNL     1       6.124  -0.900   1.602  1.00  0.00     0.000 A 
ATOM     12  C   UNL     1       5.478   0.274   1.935  1.00  0.00     0.000 A 
ENDBRANCH   6   7
ENDBRANCH   1   6
TORSDOF 4
ENDMDL
MODEL 3
REMARK VINA RESULT:      -6.6      3.394      5.098
REMARK SMILES O=C(O)CCc1ccccc1
REMARK SMILES IDX 4 1 2 2 1 3 3 4 5 6 6 7 7 8 11 9 8 10 10 11 9 12
REMARK H PARENT 3 5
REMARK Flexibility Score: inf
ROOT
ATOM      1  C   UNL     1       4.986   1.761   0.739  1.00  0.00     0.127 C 
ENDROOT
BRANCH   1   2
ATOM      2  C   UNL     1       4.454   1.097   1.942  1.00  0.00     0.303 C 
ATOM      3  O   UNL     1       5.133   0.195   2.486  1.00  0.00    -0.252 OA
BRANCH   2   4
ATOM      4  O   UNL     1       3.230   1.451   2.478  1.00  0.00    -0.481 OA
ATOM      5  H   UNL     1       2.967   2.427   2.710  1.00  0.00     0.296 HD
ENDBRANCH   2   4
ENDBRANCH   1   2
BRANCH   1   6
ATOM      6  C   UNL     1       6.505   1.755   0.859  1.00  0.00     0.047 C 
BRANCH   6   7
ATOM      7  C   UNL     1       7.150   1.079  -0.280  1.00  0.00    -0.047 A 
ATOM      8  C   UNL     1       6.380   0.217  -1.050  1.00  0.00     0.004 A 
ATOM      9  C   UNL     1       8.464   1.231  -0.641  1.00  0.00     0.004 A 
ATOM     10  C   UNL     1       6.956  -0.446  -2.132  1.00  0.00     0.000 A 
ATOM     11  C   UNL     1       9.064   0.589  -1.707  1.00  0.00     0.000 A 
ATOM     12  C   UNL     1       8.273  -0.263  -2.453  1.00  0.00     0.000 A 
ENDBRANCH   6   7
ENDBRANCH   1   6
TORSDOF 4
ENDMDL
MODEL 4
REMARK VINA RESULT:      -6.6      1.557      2.348
REMARK SMILES O=C(O)CCc1ccccc1
REMARK SMILES IDX 4 1 2 2 1 3 3 4 5 6 6 7 7 8 11 9 8 10 10 11 9 12
REMARK H PARENT 3 5
REMARK Flexibility Score: inf
ROOT
ATOM      1  C   UNL     1       8.185   0.175  -2.216  1.00  0.00     0.127 C 
ENDROOT
BRANCH   1   2
ATOM      2  C   UNL     1       9.543   0.001  -1.672  1.00  0.00     0.303 C 
ATOM      3  O   UNL     1      10.057  -1.142  -1.682  1.00  0.00    -0.252 OA
BRANCH   2   4
ATOM      4  O   UNL     1      10.254   1.068  -1.158  1.00  0.00    -0.481 OA
ATOM      5  H   UNL     1      10.401   1.223  -0.143  1.00  0.00     0.296 HD
ENDBRANCH   2   4
ENDBRANCH   1   2
BRANCH   1   6
ATOM      6  C   UNL     1       7.290  -0.846  -1.521  1.00  0.00     0.047 C 
BRANCH   6   7
ATOM      7  C   UNL     1       6.540  -0.255  -0.399  1.00  0.00    -0.047 A 
ATOM      8  C   UNL     1       5.999   1.013  -0.569  1.00  0.00     0.004 A 
ATOM      9  C   UNL     1       6.336  -0.861   0.814  1.00  0.00     0.004 A 
ATOM     10  C   UNL     1       5.289   1.608   0.472  1.00  0.00     0.000 A 
ATOM     11  C   UNL     1       5.637  -0.299   1.864  1.00  0.00     0.000 A 
ATOM     12  C   UNL     1       5.112   0.963   1.666  1.00  0.00     0.000 A 
ENDBRANCH   6   7
ENDBRANCH   1   6
TORSDOF 4
ENDMDL
MODEL 5
REMARK VINA RESULT:      -6.5      1.526      1.917
REMARK SMILES O=C(O)CCc1ccccc1
REMARK SMILES IDX 4 1 2 2 1 3 3 4 5 6 6 7 7 8 11 9 8 10 10 11 9 12
REMARK H PARENT 3 5
REMARK Flexibility Score: inf
ROOT
ATOM      1  C   UNL     1       8.436   0.178  -2.189  1.00  0.00     0.127 C 
ENDROOT
BRANCH   1   2
ATOM      2  C   UNL     1       9.627  -0.188  -1.402  1.00  0.00     0.303 C 
ATOM      3  O   UNL     1       9.788  -1.385  -1.068  1.00  0.00    -0.252 OA
BRANCH   2   4
ATOM      4  O   UNL     1      10.562   0.759  -1.030  1.00  0.00    -0.481 OA
ATOM      5  H   UNL     1      11.114   0.706  -0.154  1.00  0.00     0.296 HD
ENDBRANCH   2   4
ENDBRANCH   1   2
BRANCH   1   6
ATOM      6  C   UNL     1       7.297  -0.721  -1.721  1.00  0.00     0.047 C 
BRANCH   6   7
ATOM      7  C   UNL     1       6.568  -0.145  -0.577  1.00  0.00    -0.047 A 
ATOM      8  C   UNL     1       6.488  -0.894   0.591  1.00  0.00     0.004 A 
ATOM      9  C   UNL     1       5.952   1.079  -0.575  1.00  0.00     0.004 A 
ATOM     10  C   UNL     1       5.802  -0.386   1.692  1.00  0.00     0.000 A 
ATOM     11  C   UNL     1       5.265   1.610   0.499  1.00  0.00     0.000 A 
ATOM     12  C   UNL     1       5.202   0.843   1.645  1.00  0.00     0.000 A 
ENDBRANCH   6   7
ENDBRANCH   1   6
TORSDOF 4
ENDMDL
