@<TRIPOS>MOLECULE
/home/cewinharhar/GITHUB/reincatalyze/data/processed/docking_pred/2023-Apr-25-1829_maxeplen10_maxtrainstep200_exh32_gamma099_lrac3e-4_lrcr1e-3/00fabcb6e86abbd64330e8a307762c5d347247e8_ligand_2.pdbqt
 12 12 0 0 0
SMALL
GASTEIGER

@<TRIPOS>ATOM
      1  C          8.5750   -0.4600   -1.9920 C.3     1  UNL1        0.1270
      2  C          8.7120   -1.7360   -2.7160 C.2     1  UNL1        0.3030
      3  O          9.8440   -2.2690   -2.7960 O.2     1  UNL1       -0.2520
      4  O          7.6220   -2.3520   -3.3010 O.3     1  UNL1       -0.4810
      5  H          6.6410   -2.1650   -3.0230 H       1  UNL1        0.2960
      6  C          7.0940   -0.1010   -1.9920 C.3     1  UNL1        0.0470
      7  C          6.5450   -0.0110   -0.6270 C.2     1  UNL1       -0.0470
      8  C          5.8880    1.1590   -0.2630 C.2     1  UNL1        0.0040
      9  C          6.6360   -0.9950    0.3230 C.2     1  UNL1        0.0040
     10  C          5.3600    1.2850    1.0210 C.2     1  UNL1        0.0000
     11  C          6.1240   -0.9000    1.6020 C.2     1  UNL1        0.0000
     12  C          5.4780    0.2740    1.9350 C.2     1  UNL1        0.0000
@<TRIPOS>BOND
     1     4     5    1
     2     4     2    1
     3     3     2    2
     4     2     1    1
     5     1     6    1
     6     6     7    1
     7     7     8    2
     8     7     9    1
     9     8    10    1
    10     9    11    2
    11    10    12    2
    12    11    12    1
