@<TRIPOS>MOLECULE
/home/cewinharhar/GITHUB/reincatalyze/data/processed/docking_pred/2023-Apr-25-1829_maxeplen10_maxtrainstep200_exh32_gamma099_lrac3e-4_lrcr1e-3/00fabcb6e86abbd64330e8a307762c5d347247e8_ligand_2.pdbqt
 12 12 0 0 0
SMALL
GASTEIGER

@<TRIPOS>ATOM
      1  C          4.9860    1.7610    0.7390 C.3     1  UNL1        0.1270
      2  C          4.4540    1.0970    1.9420 C.2     1  UNL1        0.3030
      3  O          5.1330    0.1950    2.4860 O.2     1  UNL1       -0.2520
      4  O          3.2300    1.4510    2.4780 O.3     1  UNL1       -0.4810
      5  H          2.9670    2.4270    2.7100 H       1  UNL1        0.2960
      6  C          6.5050    1.7550    0.8590 C.3     1  UNL1        0.0470
      7  C          7.1500    1.0790   -0.2800 C.2     1  UNL1       -0.0470
      8  C          6.3800    0.2170   -1.0500 C.2     1  UNL1        0.0040
      9  C          8.4640    1.2310   -0.6410 C.2     1  UNL1        0.0040
     10  C          6.9560   -0.4460   -2.1320 C.2     1  UNL1        0.0000
     11  C          9.0640    0.5890   -1.7070 C.2     1  UNL1        0.0000
     12  C          8.2730   -0.2630   -2.4530 C.2     1  UNL1        0.0000
@<TRIPOS>BOND
     1    12    10    2
     2    12    11    1
     3    10     8    1
     4    11     9    2
     5     8     7    2
     6     9     7    1
     7     7     6    1
     8     1     6    1
     9     1     2    1
    10     2     4    1
    11     2     3    2
    12     4     5    1
