@<TRIPOS>MOLECULE
/home/cewinharhar/GITHUB/reincatalyze/data/processed/docking_pred/2023-Apr-25-1829_maxeplen10_maxtrainstep200_exh32_gamma099_lrac3e-4_lrcr1e-3/01f25cbd7413d58f388abe94d9cfceb48e05f66f_ligand_2.pdbqt
 12 12 0 0 0
SMALL
GASTEIGER

@<TRIPOS>ATOM
      1  C          4.9790    1.7980    0.7260 C.3     1  UNL1        0.1270
      2  C          4.4640    1.1210    1.9290 C.2     1  UNL1        0.3030
      3  O          5.1590    0.2260    2.4650 O.2     1  UNL1       -0.2520
      4  O          3.2380    1.4530    2.4730 O.3     1  UNL1       -0.4810
      5  H          2.8120    2.3950    2.3930 H       1  UNL1        0.2960
      6  C          6.4990    1.8210    0.8410 C.3     1  UNL1        0.0470
      7  C          7.1520    1.1240   -0.2810 C.2     1  UNL1       -0.0470
      8  C          6.3690    0.3060   -1.0870 C.2     1  UNL1        0.0040
      9  C          8.4840    1.2130   -0.5930 C.2     1  UNL1        0.0040
     10  C          6.9510   -0.3750   -2.1540 C.2     1  UNL1        0.0000
     11  C          9.0900    0.5520   -1.6420 C.2     1  UNL1        0.0000
     12  C          8.2860   -0.2540   -2.4250 C.2     1  UNL1        0.0000
@<TRIPOS>BOND
     1    12    10    2
     2    12    11    1
     3    10     8    1
     4    11     9    2
     5     8     7    2
     6     9     7    1
     7     7     6    1
     8     1     6    1
     9     1     2    1
    10     2     3    2
    11     2     4    1
    12     5     4    1
