MODEL 1
REMARK VINA RESULT:      -7.3      0.000      0.000
REMARK SMILES O=C(O)CCc1ccccc1
REMARK SMILES IDX 4 1 2 2 1 3 3 4 5 6 6 7 7 8 11 9 8 10 10 11 9 12
REMARK H PARENT 3 5
REMARK Flexibility Score: inf
ROOT
ATOM      1  C   UNL     1       8.470  -0.631  -2.151  1.00  0.00     0.127 C 
ENDROOT
BRANCH   1   2
ATOM      2  C   UNL     1       8.466  -1.893  -2.912  1.00  0.00     0.303 C 
ATOM      3  O   UNL     1       9.551  -2.492  -3.096  1.00  0.00    -0.252 OA
BRANCH   2   4
ATOM      4  O   UNL     1       7.295  -2.424  -3.420  1.00  0.00    -0.481 OA
ATOM      5  H   UNL     1       6.689  -1.928  -4.099  1.00  0.00     0.296 HD
ENDBRANCH   2   4
ENDBRANCH   1   2
BRANCH   1   6
ATOM      6  C   UNL     1       7.035  -0.116  -2.130  1.00  0.00     0.047 C 
BRANCH   6   7
ATOM      7  C   UNL     1       6.500  -0.017  -0.761  1.00  0.00    -0.047 A 
ATOM      8  C   UNL     1       5.865   1.162  -0.391  1.00  0.00     0.004 A 
ATOM      9  C   UNL     1       6.584  -1.003   0.189  1.00  0.00     0.004 A 
ATOM     10  C   UNL     1       5.351   1.297   0.898  1.00  0.00     0.000 A 
ATOM     11  C   UNL     1       6.086  -0.900   1.472  1.00  0.00     0.000 A 
ATOM     12  C   UNL     1       5.461   0.284   1.811  1.00  0.00     0.000 A 
ENDBRANCH   6   7
ENDBRANCH   1   6
TORSDOF 4
ENDMDL
MODEL 2
REMARK VINA RESULT:      -7.2      0.649      1.620
REMARK SMILES O=C(O)CCc1ccccc1
REMARK SMILES IDX 4 1 2 2 1 3 3 4 5 6 6 7 7 8 11 9 8 10 10 11 9 12
REMARK H PARENT 3 5
REMARK Flexibility Score: inf
ROOT
ATOM      1  C   UNL     1       8.299  -0.911  -1.895  1.00  0.00     0.127 C 
ENDROOT
BRANCH   1   2
ATOM      2  C   UNL     1       8.391  -2.014  -2.868  1.00  0.00     0.303 C 
ATOM      3  O   UNL     1       9.515  -2.511  -3.115  1.00  0.00    -0.252 OA
BRANCH   2   4
ATOM      4  O   UNL     1       7.269  -2.506  -3.506  1.00  0.00    -0.481 OA
ATOM      5  H   UNL     1       6.884  -2.104  -4.381  1.00  0.00     0.296 HD
ENDBRANCH   2   4
ENDBRANCH   1   2
BRANCH   1   6
ATOM      6  C   UNL     1       7.431  -1.403  -0.741  1.00  0.00     0.047 C 
BRANCH   6   7
ATOM      7  C   UNL     1       6.599  -0.327  -0.175  1.00  0.00    -0.047 A 
ATOM      8  C   UNL     1       6.139  -0.474   1.128  1.00  0.00     0.004 A 
ATOM      9  C   UNL     1       6.233   0.816  -0.839  1.00  0.00     0.004 A 
ATOM     10  C   UNL     1       5.343   0.519   1.697  1.00  0.00     0.000 A 
ATOM     11  C   UNL     1       5.448   1.817  -0.303  1.00  0.00     0.000 A 
ATOM     12  C   UNL     1       5.005   1.643   0.993  1.00  0.00     0.000 A 
ENDBRANCH   6   7
ENDBRANCH   1   6
TORSDOF 4
ENDMDL
MODEL 3
REMARK VINA RESULT:      -7.2      0.115      1.729
REMARK SMILES O=C(O)CCc1ccccc1
REMARK SMILES IDX 4 1 2 2 1 3 3 4 5 6 6 7 7 8 11 9 8 10 10 11 9 12
REMARK H PARENT 3 5
REMARK Flexibility Score: inf
ROOT
ATOM      1  C   UNL     1       8.418  -0.671  -2.110  1.00  0.00     0.127 C 
ENDROOT
BRANCH   1   2
ATOM      2  C   UNL     1       8.392  -1.928  -2.878  1.00  0.00     0.303 C 
ATOM      3  O   UNL     1       7.285  -2.393  -3.241  1.00  0.00    -0.252 OA
BRANCH   2   4
ATOM      4  O   UNL     1       9.556  -2.597  -3.205  1.00  0.00    -0.481 OA
ATOM      5  H   UNL     1       9.889  -2.725  -4.178  1.00  0.00     0.296 HD
ENDBRANCH   2   4
ENDBRANCH   1   2
BRANCH   1   6
ATOM      6  C   UNL     1       7.005  -0.098  -2.140  1.00  0.00     0.047 C 
BRANCH   6   7
ATOM      7  C   UNL     1       6.457   0.101  -0.787  1.00  0.00    -0.047 A 
ATOM      8  C   UNL     1       6.607  -0.926   0.137  1.00  0.00     0.004 A 
ATOM      9  C   UNL     1       5.799   1.227  -0.365  1.00  0.00     0.004 A 
ATOM     10  C   UNL     1       6.096  -0.778   1.425  1.00  0.00     0.000 A 
ATOM     11  C   UNL     1       5.283   1.405   0.903  1.00  0.00     0.000 A 
ATOM     12  C   UNL     1       5.446   0.366   1.800  1.00  0.00     0.000 A 
ENDBRANCH   6   7
ENDBRANCH   1   6
TORSDOF 4
ENDMDL
MODEL 4
REMARK VINA RESULT:      -7.2      0.638      1.134
REMARK SMILES O=C(O)CCc1ccccc1
REMARK SMILES IDX 4 1 2 2 1 3 3 4 5 6 6 7 7 8 11 9 8 10 10 11 9 12
REMARK H PARENT 3 5
REMARK Flexibility Score: inf
ROOT
ATOM      1  C   UNL     1       8.156  -0.879  -1.935  1.00  0.00     0.127 C 
ENDROOT
BRANCH   1   2
ATOM      2  C   UNL     1       8.349  -2.011  -2.858  1.00  0.00     0.303 C 
ATOM      3  O   UNL     1       9.505  -2.467  -3.022  1.00  0.00    -0.252 OA
BRANCH   2   4
ATOM      4  O   UNL     1       7.287  -2.574  -3.538  1.00  0.00    -0.481 OA
ATOM      5  H   UNL     1       6.532  -3.114  -3.075  1.00  0.00     0.296 HD
ENDBRANCH   2   4
ENDBRANCH   1   2
BRANCH   1   6
ATOM      6  C   UNL     1       7.370  -1.404  -0.739  1.00  0.00     0.047 C 
BRANCH   6   7
ATOM      7  C   UNL     1       6.544  -0.357  -0.113  1.00  0.00    -0.047 A 
ATOM      8  C   UNL     1       6.249   0.777  -0.860  1.00  0.00     0.004 A 
ATOM      9  C   UNL     1       6.042  -0.410   1.162  1.00  0.00     0.004 A 
ATOM     10  C   UNL     1       5.475   1.792  -0.300  1.00  0.00     0.000 A 
ATOM     11  C   UNL     1       5.274   0.578   1.744  1.00  0.00     0.000 A 
ATOM     12  C   UNL     1       4.998   1.694   0.978  1.00  0.00     0.000 A 
ENDBRANCH   6   7
ENDBRANCH   1   6
TORSDOF 4
ENDMDL
MODEL 5
REMARK VINA RESULT:      -6.8      3.383      5.098
REMARK SMILES O=C(O)CCc1ccccc1
REMARK SMILES IDX 4 1 2 2 1 3 3 4 5 6 6 7 7 8 11 9 8 10 10 11 9 12
REMARK H PARENT 3 5
REMARK Flexibility Score: inf
ROOT
ATOM      1  C   UNL     1       4.979   1.798   0.726  1.00  0.00     0.127 C 
ENDROOT
BRANCH   1   2
ATOM      2  C   UNL     1       4.464   1.121   1.929  1.00  0.00     0.303 C 
ATOM      3  O   UNL     1       5.159   0.226   2.465  1.00  0.00    -0.252 OA
BRANCH   2   4
ATOM      4  O   UNL     1       3.238   1.453   2.473  1.00  0.00    -0.481 OA
ATOM      5  H   UNL     1       2.812   2.395   2.393  1.00  0.00     0.296 HD
ENDBRANCH   2   4
ENDBRANCH   1   2
BRANCH   1   6
ATOM      6  C   UNL     1       6.499   1.821   0.841  1.00  0.00     0.047 C 
BRANCH   6   7
ATOM      7  C   UNL     1       7.152   1.124  -0.281  1.00  0.00    -0.047 A 
ATOM      8  C   UNL     1       6.369   0.306  -1.087  1.00  0.00     0.004 A 
ATOM      9  C   UNL     1       8.484   1.213  -0.593  1.00  0.00     0.004 A 
ATOM     10  C   UNL     1       6.951  -0.375  -2.154  1.00  0.00     0.000 A 
ATOM     11  C   UNL     1       9.090   0.552  -1.642  1.00  0.00     0.000 A 
ATOM     12  C   UNL     1       8.286  -0.254  -2.425  1.00  0.00     0.000 A 
ENDBRANCH   6   7
ENDBRANCH   1   6
TORSDOF 4
ENDMDL
