@<TRIPOS>MOLECULE
/home/cewinharhar/GITHUB/reincatalyze/data/processed/docking_pred/2023-Apr-25-1829_maxeplen10_maxtrainstep200_exh32_gamma099_lrac3e-4_lrcr1e-3/01f25cbd7413d58f388abe94d9cfceb48e05f66f_ligand_2.pdbqt
 12 12 0 0 0
SMALL
GASTEIGER

@<TRIPOS>ATOM
      1  C          8.2990   -0.9110   -1.8950 C.3     1  UNL1        0.1270
      2  C          8.3910   -2.0140   -2.8680 C.2     1  UNL1        0.3030
      3  O          9.5150   -2.5110   -3.1150 O.2     1  UNL1       -0.2520
      4  O          7.2690   -2.5060   -3.5060 O.3     1  UNL1       -0.4810
      5  H          6.8840   -2.1040   -4.3810 H       1  UNL1        0.2960
      6  C          7.4310   -1.4030   -0.7410 C.3     1  UNL1        0.0470
      7  C          6.5990   -0.3270   -0.1750 C.2     1  UNL1       -0.0470
      8  C          6.1390   -0.4740    1.1280 C.2     1  UNL1        0.0040
      9  C          6.2330    0.8160   -0.8390 C.2     1  UNL1        0.0040
     10  C          5.3430    0.5190    1.6970 C.2     1  UNL1        0.0000
     11  C          5.4480    1.8170   -0.3030 C.2     1  UNL1        0.0000
     12  C          5.0050    1.6430    0.9930 C.2     1  UNL1        0.0000
@<TRIPOS>BOND
     1     5     4    1
     2     4     2    1
     3     3     2    2
     4     2     1    1
     5     1     6    1
     6     9    11    1
     7     9     7    2
     8     6     7    1
     9    11    12    2
    10     7     8    1
    11    12    10    1
    12     8    10    2
