@<TRIPOS>MOLECULE
/home/cewinharhar/GITHUB/reincatalyze/data/processed/docking_pred/2023-Apr-25-1829_maxeplen10_maxtrainstep200_exh32_gamma099_lrac3e-4_lrcr1e-3/01f25cbd7413d58f388abe94d9cfceb48e05f66f_ligand_2.pdbqt
 12 12 0 0 0
SMALL
GASTEIGER

@<TRIPOS>ATOM
      1  C          8.4700   -0.6310   -2.1510 C.3     1  UNL1        0.1270
      2  C          8.4660   -1.8930   -2.9120 C.2     1  UNL1        0.3030
      3  O          9.5510   -2.4920   -3.0960 O.2     1  UNL1       -0.2520
      4  O          7.2950   -2.4240   -3.4200 O.3     1  UNL1       -0.4810
      5  H          6.6890   -1.9280   -4.0990 H       1  UNL1        0.2960
      6  C          7.0350   -0.1160   -2.1300 C.3     1  UNL1        0.0470
      7  C          6.5000   -0.0170   -0.7610 C.2     1  UNL1       -0.0470
      8  C          5.8650    1.1620   -0.3910 C.2     1  UNL1        0.0040
      9  C          6.5840   -1.0030    0.1890 C.2     1  UNL1        0.0040
     10  C          5.3510    1.2970    0.8980 C.2     1  UNL1        0.0000
     11  C          6.0860   -0.9000    1.4720 C.2     1  UNL1        0.0000
     12  C          5.4610    0.2840    1.8110 C.2     1  UNL1        0.0000
@<TRIPOS>BOND
     1     5     4    1
     2     4     2    1
     3     3     2    2
     4     2     1    1
     5     1     6    1
     6     6     7    1
     7     7     8    2
     8     7     9    1
     9     8    10    1
    10     9    11    2
    11    10    12    2
    12    11    12    1
