@<TRIPOS>MOLECULE
/home/cewinharhar/GITHUB/reincatalyze/data/processed/docking_pred/2023-Apr-25-1829_maxeplen10_maxtrainstep200_exh32_gamma099_lrac3e-4_lrcr1e-3/01f25cbd7413d58f388abe94d9cfceb48e05f66f_ligand_2.pdbqt
 12 12 0 0 0
SMALL
GASTEIGER

@<TRIPOS>ATOM
      1  C          8.4180   -0.6710   -2.1100 C.3     1  UNL1        0.1270
      2  C          8.3920   -1.9280   -2.8780 C.2     1  UNL1        0.3030
      3  O          7.2850   -2.3930   -3.2410 O.2     1  UNL1       -0.2520
      4  O          9.5560   -2.5970   -3.2050 O.3     1  UNL1       -0.4810
      5  H          9.8890   -2.7250   -4.1780 H       1  UNL1        0.2960
      6  C          7.0050   -0.0980   -2.1400 C.3     1  UNL1        0.0470
      7  C          6.4570    0.1010   -0.7870 C.2     1  UNL1       -0.0470
      8  C          6.6070   -0.9260    0.1370 C.2     1  UNL1        0.0040
      9  C          5.7990    1.2270   -0.3650 C.2     1  UNL1        0.0040
     10  C          6.0960   -0.7780    1.4250 C.2     1  UNL1        0.0000
     11  C          5.2830    1.4050    0.9030 C.2     1  UNL1        0.0000
     12  C          5.4460    0.3660    1.8000 C.2     1  UNL1        0.0000
@<TRIPOS>BOND
     1     5     4    1
     2     3     2    2
     3     4     2    1
     4     2     1    1
     5     6     1    1
     6     6     7    1
     7     7     9    2
     8     7     8    1
     9     9    11    1
    10     8    10    2
    11    11    12    2
    12    10    12    1
