@<TRIPOS>MOLECULE
/home/cewinharhar/GITHUB/reincatalyze/data/processed/docking_pred/2023-Apr-25-1829_maxeplen10_maxtrainstep200_exh32_gamma099_lrac3e-4_lrcr1e-3/01f25cbd7413d58f388abe94d9cfceb48e05f66f_ligand_2.pdbqt
 12 12 0 0 0
SMALL
GASTEIGER

@<TRIPOS>ATOM
      1  C          8.1560   -0.8790   -1.9350 C.3     1  UNL1        0.1270
      2  C          8.3490   -2.0110   -2.8580 C.2     1  UNL1        0.3030
      3  O          9.5050   -2.4670   -3.0220 O.2     1  UNL1       -0.2520
      4  O          7.2870   -2.5740   -3.5380 O.3     1  UNL1       -0.4810
      5  H          6.5320   -3.1140   -3.0750 H       1  UNL1        0.2960
      6  C          7.3700   -1.4040   -0.7390 C.3     1  UNL1        0.0470
      7  C          6.5440   -0.3570   -0.1130 C.2     1  UNL1       -0.0470
      8  C          6.2490    0.7770   -0.8600 C.2     1  UNL1        0.0040
      9  C          6.0420   -0.4100    1.1620 C.2     1  UNL1        0.0040
     10  C          5.4750    1.7920   -0.3000 C.2     1  UNL1        0.0000
     11  C          5.2740    0.5780    1.7440 C.2     1  UNL1        0.0000
     12  C          4.9980    1.6940    0.9780 C.2     1  UNL1        0.0000
@<TRIPOS>BOND
     1     4     5    1
     2     4     2    1
     3     3     2    2
     4     2     1    1
     5     1     6    1
     6     8    10    1
     7     8     7    2
     8     6     7    1
     9    10    12    2
    10     7     9    1
    11    12    11    1
    12     9    11    2
