@<TRIPOS>MOLECULE
/home/cewinharhar/GITHUB/reincatalyze/data/processed/docking_pred/2023-Apr-25-1829_maxeplen10_maxtrainstep200_exh32_gamma099_lrac3e-4_lrcr1e-3/034cecc51265c6b10d0b2cc1c9f67b1ec6b5e3be_ligand_2.pdbqt
 12 12 0 0 0
SMALL
GASTEIGER

@<TRIPOS>ATOM
      1  C          4.9930    1.7830    0.7410 C.3     1  UNL1        0.1270
      2  C          4.4610    1.1090    1.9380 C.2     1  UNL1        0.3030
      3  O          5.1410    0.2040    2.4760 O.2     1  UNL1       -0.2520
      4  O          3.2350    1.4550    2.4740 O.3     1  UNL1       -0.4810
      5  H          3.1190    2.1440    3.2400 H       1  UNL1        0.2960
      6  C          6.5130    1.7750    0.8610 C.3     1  UNL1        0.0470
      7  C          7.1560    1.0850   -0.2710 C.2     1  UNL1       -0.0470
      8  C          6.3790    0.2300   -1.0420 C.2     1  UNL1        0.0040
      9  C          8.4750    1.2170   -0.6240 C.2     1  UNL1        0.0040
     10  C          6.9530   -0.4460   -2.1180 C.2     1  UNL1        0.0000
     11  C          9.0720    0.5620   -1.6830 C.2     1  UNL1        0.0000
     12  C          8.2750   -0.2820   -2.4310 C.2     1  UNL1        0.0000
@<TRIPOS>BOND
     1    12    10    2
     2    12    11    1
     3    10     8    1
     4    11     9    2
     5     8     7    2
     6     9     7    1
     7     7     6    1
     8     1     6    1
     9     1     2    1
    10     2     4    1
    11     2     3    2
    12     4     5    1
