MODEL 1
REMARK VINA RESULT:      -7.3      0.000      0.000
REMARK SMILES O=C(O)CCc1ccccc1
REMARK SMILES IDX 4 1 2 2 1 3 3 4 5 6 6 7 7 8 11 9 8 10 10 11 9 12
REMARK H PARENT 3 5
REMARK Flexibility Score: inf
ROOT
ATOM      1  C   UNL     1       8.451  -0.624  -2.158  1.00  0.00     0.127 C 
ENDROOT
BRANCH   1   2
ATOM      2  C   UNL     1       8.464  -1.888  -2.915  1.00  0.00     0.303 C 
ATOM      3  O   UNL     1       9.558  -2.476  -3.093  1.00  0.00    -0.252 OA
BRANCH   2   4
ATOM      4  O   UNL     1       7.302  -2.433  -3.427  1.00  0.00    -0.481 OA
ATOM      5  H   UNL     1       7.165  -3.450  -3.579  1.00  0.00     0.296 HD
ENDBRANCH   2   4
ENDBRANCH   1   2
BRANCH   1   6
ATOM      6  C   UNL     1       7.014  -0.116  -2.159  1.00  0.00     0.047 C 
BRANCH   6   7
ATOM      7  C   UNL     1       6.481   0.050  -0.795  1.00  0.00    -0.047 A 
ATOM      8  C   UNL     1       6.627  -1.006   0.096  1.00  0.00     0.004 A 
ATOM      9  C   UNL     1       5.842   1.171  -0.333  1.00  0.00     0.004 A 
ATOM     10  C   UNL     1       6.131  -0.889   1.393  1.00  0.00     0.000 A 
ATOM     11  C   UNL     1       5.340   1.317   0.945  1.00  0.00     0.000 A 
ATOM     12  C   UNL     1       5.499   0.251   1.808  1.00  0.00     0.000 A 
ENDBRANCH   6   7
ENDBRANCH   1   6
TORSDOF 4
ENDMDL
MODEL 2
REMARK VINA RESULT:      -7.2      0.653      1.133
REMARK SMILES O=C(O)CCc1ccccc1
REMARK SMILES IDX 4 1 2 2 1 3 3 4 5 6 6 7 7 8 11 9 8 10 10 11 9 12
REMARK H PARENT 3 5
REMARK Flexibility Score: inf
ROOT
ATOM      1  C   UNL     1       8.274  -0.897  -1.904  1.00  0.00     0.127 C 
ENDROOT
BRANCH   1   2
ATOM      2  C   UNL     1       8.386  -2.008  -2.866  1.00  0.00     0.303 C 
ATOM      3  O   UNL     1       9.518  -2.487  -3.109  1.00  0.00    -0.252 OA
BRANCH   2   4
ATOM      4  O   UNL     1       7.272  -2.527  -3.498  1.00  0.00    -0.481 OA
ATOM      5  H   UNL     1       6.435  -1.964  -3.738  1.00  0.00     0.296 HD
ENDBRANCH   2   4
ENDBRANCH   1   2
BRANCH   1   6
ATOM      6  C   UNL     1       7.406  -1.388  -0.751  1.00  0.00     0.047 C 
BRANCH   6   7
ATOM      7  C   UNL     1       6.578  -0.311  -0.181  1.00  0.00    -0.047 A 
ATOM      8  C   UNL     1       6.139  -0.448   1.130  1.00  0.00     0.004 A 
ATOM      9  C   UNL     1       6.198   0.825  -0.849  1.00  0.00     0.004 A 
ATOM     10  C   UNL     1       5.349   0.547   1.703  1.00  0.00     0.000 A 
ATOM     11  C   UNL     1       5.418   1.828  -0.309  1.00  0.00     0.000 A 
ATOM     12  C   UNL     1       4.995   1.663   0.995  1.00  0.00     0.000 A 
ENDBRANCH   6   7
ENDBRANCH   1   6
TORSDOF 4
ENDMDL
MODEL 3
REMARK VINA RESULT:      -7.2      0.108      1.727
REMARK SMILES O=C(O)CCc1ccccc1
REMARK SMILES IDX 4 1 2 2 1 3 3 4 5 6 6 7 7 8 11 9 8 10 10 11 9 12
REMARK H PARENT 3 5
REMARK Flexibility Score: inf
ROOT
ATOM      1  C   UNL     1       8.421  -0.625  -2.151  1.00  0.00     0.127 C 
ENDROOT
BRANCH   1   2
ATOM      2  C   UNL     1       8.393  -1.898  -2.894  1.00  0.00     0.303 C 
ATOM      3  O   UNL     1       7.284  -2.385  -3.217  1.00  0.00    -0.252 OA
BRANCH   2   4
ATOM      4  O   UNL     1       9.558  -2.556  -3.239  1.00  0.00    -0.481 OA
ATOM      5  H   UNL     1      10.503  -2.231  -2.962  1.00  0.00     0.296 HD
ENDBRANCH   2   4
ENDBRANCH   1   2
BRANCH   1   6
ATOM      6  C   UNL     1       6.993  -0.093  -2.120  1.00  0.00     0.047 C 
BRANCH   6   7
ATOM      7  C   UNL     1       6.468   0.009  -0.747  1.00  0.00    -0.047 A 
ATOM      8  C   UNL     1       5.840   1.191  -0.373  1.00  0.00     0.004 A 
ATOM      9  C   UNL     1       6.555  -0.976   0.203  1.00  0.00     0.004 A 
ATOM     10  C   UNL     1       5.336   1.328   0.919  1.00  0.00     0.000 A 
ATOM     11  C   UNL     1       6.066  -0.871   1.490  1.00  0.00     0.000 A 
ATOM     12  C   UNL     1       5.448   0.315   1.832  1.00  0.00     0.000 A 
ENDBRANCH   6   7
ENDBRANCH   1   6
TORSDOF 4
ENDMDL
MODEL 4
REMARK VINA RESULT:      -6.8      3.388      5.082
REMARK SMILES O=C(O)CCc1ccccc1
REMARK SMILES IDX 4 1 2 2 1 3 3 4 5 6 6 7 7 8 11 9 8 10 10 11 9 12
REMARK H PARENT 3 5
REMARK Flexibility Score: inf
ROOT
ATOM      1  C   UNL     1       4.993   1.783   0.741  1.00  0.00     0.127 C 
ENDROOT
BRANCH   1   2
ATOM      2  C   UNL     1       4.461   1.109   1.938  1.00  0.00     0.303 C 
ATOM      3  O   UNL     1       5.141   0.204   2.476  1.00  0.00    -0.252 OA
BRANCH   2   4
ATOM      4  O   UNL     1       3.235   1.455   2.474  1.00  0.00    -0.481 OA
ATOM      5  H   UNL     1       3.119   2.144   3.240  1.00  0.00     0.296 HD
ENDBRANCH   2   4
ENDBRANCH   1   2
BRANCH   1   6
ATOM      6  C   UNL     1       6.513   1.775   0.861  1.00  0.00     0.047 C 
BRANCH   6   7
ATOM      7  C   UNL     1       7.156   1.085  -0.271  1.00  0.00    -0.047 A 
ATOM      8  C   UNL     1       6.379   0.230  -1.042  1.00  0.00     0.004 A 
ATOM      9  C   UNL     1       8.475   1.217  -0.624  1.00  0.00     0.004 A 
ATOM     10  C   UNL     1       6.953  -0.446  -2.118  1.00  0.00     0.000 A 
ATOM     11  C   UNL     1       9.072   0.562  -1.683  1.00  0.00     0.000 A 
ATOM     12  C   UNL     1       8.275  -0.282  -2.431  1.00  0.00     0.000 A 
ENDBRANCH   6   7
ENDBRANCH   1   6
TORSDOF 4
ENDMDL
MODEL 5
REMARK VINA RESULT:      -6.8      3.377      5.089
REMARK SMILES O=C(O)CCc1ccccc1
REMARK SMILES IDX 4 1 2 2 1 3 3 4 5 6 6 7 7 8 11 9 8 10 10 11 9 12
REMARK H PARENT 3 5
REMARK Flexibility Score: inf
ROOT
ATOM      1  C   UNL     1       4.970   1.785   0.684  1.00  0.00     0.127 C 
ENDROOT
BRANCH   1   2
ATOM      2  C   UNL     1       4.478   1.129   1.908  1.00  0.00     0.303 C 
ATOM      3  O   UNL     1       5.191   0.257   2.457  1.00  0.00    -0.252 OA
BRANCH   2   4
ATOM      4  O   UNL     1       3.254   1.458   2.458  1.00  0.00    -0.481 OA
ATOM      5  H   UNL     1       3.046   2.381   2.884  1.00  0.00     0.296 HD
ENDBRANCH   2   4
ENDBRANCH   1   2
BRANCH   1   6
ATOM      6  C   UNL     1       6.493   1.787   0.759  1.00  0.00     0.047 C 
BRANCH   6   7
ATOM      7  C   UNL     1       7.104   1.009  -0.333  1.00  0.00    -0.047 A 
ATOM      8  C   UNL     1       8.443   1.239  -0.629  1.00  0.00     0.004 A 
ATOM      9  C   UNL     1       6.450   0.073  -1.092  1.00  0.00     0.004 A 
ATOM     10  C   UNL     1       9.055   0.527  -1.660  1.00  0.00     0.000 A 
ATOM     11  C   UNL     1       7.029  -0.648  -2.118  1.00  0.00     0.000 A 
ATOM     12  C   UNL     1       8.360  -0.398  -2.390  1.00  0.00     0.000 A 
ENDBRANCH   6   7
ENDBRANCH   1   6
TORSDOF 4
ENDMDL
