@<TRIPOS>MOLECULE
/home/cewinharhar/GITHUB/reincatalyze/data/processed/docking_pred/2023-Apr-25-1829_maxeplen10_maxtrainstep200_exh32_gamma099_lrac3e-4_lrcr1e-3/034cecc51265c6b10d0b2cc1c9f67b1ec6b5e3be_ligand_2.pdbqt
 12 12 0 0 0
SMALL
GASTEIGER

@<TRIPOS>ATOM
      1  C          8.2740   -0.8970   -1.9040 C.3     1  UNL1        0.1270
      2  C          8.3860   -2.0080   -2.8660 C.2     1  UNL1        0.3030
      3  O          9.5180   -2.4870   -3.1090 O.2     1  UNL1       -0.2520
      4  O          7.2720   -2.5270   -3.4980 O.3     1  UNL1       -0.4810
      5  H          6.4350   -1.9640   -3.7380 H       1  UNL1        0.2960
      6  C          7.4060   -1.3880   -0.7510 C.3     1  UNL1        0.0470
      7  C          6.5780   -0.3110   -0.1810 C.2     1  UNL1       -0.0470
      8  C          6.1390   -0.4480    1.1300 C.2     1  UNL1        0.0040
      9  C          6.1980    0.8250   -0.8490 C.2     1  UNL1        0.0040
     10  C          5.3490    0.5470    1.7030 C.2     1  UNL1        0.0000
     11  C          5.4180    1.8280   -0.3090 C.2     1  UNL1        0.0000
     12  C          4.9950    1.6630    0.9950 C.2     1  UNL1        0.0000
@<TRIPOS>BOND
     1     5     4    1
     2     4     2    1
     3     3     2    2
     4     2     1    1
     5     1     6    1
     6     9    11    1
     7     9     7    2
     8     6     7    1
     9    11    12    2
    10     7     8    1
    11    12    10    1
    12     8    10    2
