@<TRIPOS>MOLECULE
/home/cewinharhar/GITHUB/reincatalyze/data/processed/docking_pred/2023-Apr-25-1829_maxeplen10_maxtrainstep200_exh32_gamma099_lrac3e-4_lrcr1e-3/034cecc51265c6b10d0b2cc1c9f67b1ec6b5e3be_ligand_2.pdbqt
 12 12 0 0 0
SMALL
GASTEIGER

@<TRIPOS>ATOM
      1  C          8.4210   -0.6250   -2.1510 C.3     1  UNL1        0.1270
      2  C          8.3930   -1.8980   -2.8940 C.2     1  UNL1        0.3030
      3  O          7.2840   -2.3850   -3.2170 O.2     1  UNL1       -0.2520
      4  O          9.5580   -2.5560   -3.2390 O.3     1  UNL1       -0.4810
      5  H         10.5030   -2.2310   -2.9620 H       1  UNL1        0.2960
      6  C          6.9930   -0.0930   -2.1200 C.3     1  UNL1        0.0470
      7  C          6.4680    0.0090   -0.7470 C.2     1  UNL1       -0.0470
      8  C          5.8400    1.1910   -0.3730 C.2     1  UNL1        0.0040
      9  C          6.5550   -0.9760    0.2030 C.2     1  UNL1        0.0040
     10  C          5.3360    1.3280    0.9190 C.2     1  UNL1        0.0000
     11  C          6.0660   -0.8710    1.4900 C.2     1  UNL1        0.0000
     12  C          5.4480    0.3150    1.8320 C.2     1  UNL1        0.0000
@<TRIPOS>BOND
     1     4     5    1
     2     4     2    1
     3     3     2    2
     4     2     1    1
     5     1     6    1
     6     6     7    1
     7     7     8    2
     8     7     9    1
     9     8    10    1
    10     9    11    2
    11    10    12    2
    12    11    12    1
