@<TRIPOS>MOLECULE
/home/cewinharhar/GITHUB/reincatalyze/data/processed/docking_pred/2023-Apr-25-1829_maxeplen10_maxtrainstep200_exh32_gamma099_lrac3e-4_lrcr1e-3/034cecc51265c6b10d0b2cc1c9f67b1ec6b5e3be_ligand_2.pdbqt
 12 12 0 0 0
SMALL
GASTEIGER

@<TRIPOS>ATOM
      1  C          4.9700    1.7850    0.6840 C.3     1  UNL1        0.1270
      2  C          4.4780    1.1290    1.9080 C.2     1  UNL1        0.3030
      3  O          5.1910    0.2570    2.4570 O.2     1  UNL1       -0.2520
      4  O          3.2540    1.4580    2.4580 O.3     1  UNL1       -0.4810
      5  H          3.0460    2.3810    2.8840 H       1  UNL1        0.2960
      6  C          6.4930    1.7870    0.7590 C.3     1  UNL1        0.0470
      7  C          7.1040    1.0090   -0.3330 C.2     1  UNL1       -0.0470
      8  C          8.4430    1.2390   -0.6290 C.2     1  UNL1        0.0040
      9  C          6.4500    0.0730   -1.0920 C.2     1  UNL1        0.0040
     10  C          9.0550    0.5270   -1.6600 C.2     1  UNL1        0.0000
     11  C          7.0290   -0.6480   -2.1180 C.2     1  UNL1        0.0000
     12  C          8.3600   -0.3980   -2.3900 C.2     1  UNL1        0.0000
@<TRIPOS>BOND
     1    12    11    2
     2    12    10    1
     3    11     9    1
     4    10     8    2
     5     9     7    2
     6     8     7    1
     7     7     6    1
     8     1     6    1
     9     1     2    1
    10     2     3    2
    11     2     4    1
    12     4     5    1
