@<TRIPOS>MOLECULE
/home/cewinharhar/GITHUB/reincatalyze/data/processed/docking_pred/2023-Apr-25-1829_maxeplen10_maxtrainstep200_exh32_gamma099_lrac3e-4_lrcr1e-3/034cecc51265c6b10d0b2cc1c9f67b1ec6b5e3be_ligand_2.pdbqt
 12 12 0 0 0
SMALL
GASTEIGER

@<TRIPOS>ATOM
      1  C          8.4510   -0.6240   -2.1580 C.3     1  UNL1        0.1270
      2  C          8.4640   -1.8880   -2.9150 C.2     1  UNL1        0.3030
      3  O          9.5580   -2.4760   -3.0930 O.2     1  UNL1       -0.2520
      4  O          7.3020   -2.4330   -3.4270 O.3     1  UNL1       -0.4810
      5  H          7.1650   -3.4500   -3.5790 H       1  UNL1        0.2960
      6  C          7.0140   -0.1160   -2.1590 C.3     1  UNL1        0.0470
      7  C          6.4810    0.0500   -0.7950 C.2     1  UNL1       -0.0470
      8  C          6.6270   -1.0060    0.0960 C.2     1  UNL1        0.0040
      9  C          5.8420    1.1710   -0.3330 C.2     1  UNL1        0.0040
     10  C          6.1310   -0.8890    1.3930 C.2     1  UNL1        0.0000
     11  C          5.3400    1.3170    0.9450 C.2     1  UNL1        0.0000
     12  C          5.4990    0.2510    1.8080 C.2     1  UNL1        0.0000
@<TRIPOS>BOND
     1     5     4    1
     2     4     2    1
     3     3     2    2
     4     2     1    1
     5     6     1    1
     6     6     7    1
     7     7     9    2
     8     7     8    1
     9     9    11    1
    10     8    10    2
    11    11    12    2
    12    10    12    1
