MODEL 1
REMARK VINA RESULT:      -7.3      0.000      0.000
REMARK SMILES O=C(O)CCc1ccccc1
REMARK SMILES IDX 4 1 2 2 1 3 3 4 5 6 6 7 7 8 11 9 8 10 10 11 9 12
REMARK H PARENT 3 5
REMARK Flexibility Score: inf
ROOT
ATOM      1  C   UNL     1       8.437  -0.659  -2.106  1.00  0.00     0.127 C 
ENDROOT
BRANCH   1   2
ATOM      2  C   UNL     1       8.401  -1.911  -2.881  1.00  0.00     0.303 C 
ATOM      3  O   UNL     1       7.289  -2.389  -3.208  1.00  0.00    -0.252 OA
BRANCH   2   4
ATOM      4  O   UNL     1       9.563  -2.561  -3.253  1.00  0.00    -0.481 OA
ATOM      5  H   UNL     1       9.608  -3.261  -4.016  1.00  0.00     0.296 HD
ENDBRANCH   2   4
ENDBRANCH   1   2
BRANCH   1   6
ATOM      6  C   UNL     1       7.024  -0.087  -2.113  1.00  0.00     0.047 C 
BRANCH   6   7
ATOM      7  C   UNL     1       6.471   0.046  -0.753  1.00  0.00    -0.047 A 
ATOM      8  C   UNL     1       5.830   1.233  -0.422  1.00  0.00     0.004 A 
ATOM      9  C   UNL     1       6.545  -0.915   0.222  1.00  0.00     0.004 A 
ATOM     10  C   UNL     1       5.300   1.399   0.856  1.00  0.00     0.000 A 
ATOM     11  C   UNL     1       6.029  -0.781   1.496  1.00  0.00     0.000 A 
ATOM     12  C   UNL     1       5.399   0.410   1.797  1.00  0.00     0.000 A 
ENDBRANCH   6   7
ENDBRANCH   1   6
TORSDOF 4
ENDMDL
MODEL 2
REMARK VINA RESULT:      -7.2      0.059      1.430
REMARK SMILES O=C(O)CCc1ccccc1
REMARK SMILES IDX 4 1 2 2 1 3 3 4 5 6 6 7 7 8 11 9 8 10 10 11 9 12
REMARK H PARENT 3 5
REMARK Flexibility Score: inf
ROOT
ATOM      1  C   UNL     1       8.437  -0.688  -2.070  1.00  0.00     0.127 C 
ENDROOT
BRANCH   1   2
ATOM      2  C   UNL     1       8.413  -1.925  -2.870  1.00  0.00     0.303 C 
ATOM      3  O   UNL     1       7.305  -2.403  -3.211  1.00  0.00    -0.252 OA
BRANCH   2   4
ATOM      4  O   UNL     1       9.579  -2.561  -3.249  1.00  0.00    -0.481 OA
ATOM      5  H   UNL     1       9.659  -3.157  -4.093  1.00  0.00     0.296 HD
ENDBRANCH   2   4
ENDBRANCH   1   2
BRANCH   1   6
ATOM      6  C   UNL     1       7.038  -0.086  -2.132  1.00  0.00     0.047 C 
BRANCH   6   7
ATOM      7  C   UNL     1       6.464   0.127  -0.792  1.00  0.00    -0.047 A 
ATOM      8  C   UNL     1       6.602  -0.889   0.147  1.00  0.00     0.004 A 
ATOM      9  C   UNL     1       5.795   1.255  -0.395  1.00  0.00     0.004 A 
ATOM     10  C   UNL     1       6.067  -0.727   1.424  1.00  0.00     0.000 A 
ATOM     11  C   UNL     1       5.254   1.445   0.862  1.00  0.00     0.000 A 
ATOM     12  C   UNL     1       5.406   0.418   1.773  1.00  0.00     0.000 A 
ENDBRANCH   6   7
ENDBRANCH   1   6
TORSDOF 4
ENDMDL
MODEL 3
REMARK VINA RESULT:      -6.8      3.293      5.141
REMARK SMILES O=C(O)CCc1ccccc1
REMARK SMILES IDX 4 1 2 2 1 3 3 4 5 6 6 7 7 8 11 9 8 10 10 11 9 12
REMARK H PARENT 3 5
REMARK Flexibility Score: inf
ROOT
ATOM      1  C   UNL     1       4.981   1.788   0.688  1.00  0.00     0.127 C 
ENDROOT
BRANCH   1   2
ATOM      2  C   UNL     1       4.478   1.131   1.907  1.00  0.00     0.303 C 
ATOM      3  O   UNL     1       5.182   0.249   2.453  1.00  0.00    -0.252 OA
BRANCH   2   4
ATOM      4  O   UNL     1       3.255   1.468   2.454  1.00  0.00    -0.481 OA
ATOM      5  H   UNL     1       3.123   1.723   3.450  1.00  0.00     0.296 HD
ENDBRANCH   2   4
ENDBRANCH   1   2
BRANCH   1   6
ATOM      6  C   UNL     1       6.503   1.773   0.766  1.00  0.00     0.047 C 
BRANCH   6   7
ATOM      7  C   UNL     1       7.109   0.999  -0.332  1.00  0.00    -0.047 A 
ATOM      8  C   UNL     1       8.445   1.230  -0.636  1.00  0.00     0.004 A 
ATOM      9  C   UNL     1       6.451   0.064  -1.089  1.00  0.00     0.004 A 
ATOM     10  C   UNL     1       9.051   0.522  -1.672  1.00  0.00     0.000 A 
ATOM     11  C   UNL     1       7.023  -0.653  -2.121  1.00  0.00     0.000 A 
ATOM     12  C   UNL     1       8.352  -0.401  -2.400  1.00  0.00     0.000 A 
ENDBRANCH   6   7
ENDBRANCH   1   6
TORSDOF 4
ENDMDL
MODEL 4
REMARK VINA RESULT:      -6.6      3.810      4.992
REMARK SMILES O=C(O)CCc1ccccc1
REMARK SMILES IDX 4 1 2 2 1 3 3 4 5 6 6 7 7 8 11 9 8 10 10 11 9 12
REMARK H PARENT 3 5
REMARK Flexibility Score: inf
ROOT
ATOM      1  C   UNL     1       5.518   2.901  -0.021  1.00  0.00     0.127 C 
ENDROOT
BRANCH   1   2
ATOM      2  C   UNL     1       6.278   3.848   0.814  1.00  0.00     0.303 C 
ATOM      3  O   UNL     1       6.911   4.775   0.255  1.00  0.00    -0.252 OA
BRANCH   2   4
ATOM      4  O   UNL     1       6.305   3.733   2.190  1.00  0.00    -0.481 OA
ATOM      5  H   UNL     1       5.506   3.983   2.802  1.00  0.00     0.296 HD
ENDBRANCH   2   4
ENDBRANCH   1   2
BRANCH   1   6
ATOM      6  C   UNL     1       4.962   1.829   0.909  1.00  0.00     0.047 C 
BRANCH   6   7
ATOM      7  C   UNL     1       5.779   0.603   0.894  1.00  0.00    -0.047 A 
ATOM      8  C   UNL     1       5.771  -0.202   2.027  1.00  0.00     0.004 A 
ATOM      9  C   UNL     1       6.556   0.190  -0.157  1.00  0.00     0.004 A 
ATOM     10  C   UNL     1       6.536  -1.367   2.053  1.00  0.00     0.000 A 
ATOM     11  C   UNL     1       7.324  -0.958  -0.162  1.00  0.00     0.000 A 
ATOM     12  C   UNL     1       7.297  -1.736   0.979  1.00  0.00     0.000 A 
ENDBRANCH   6   7
ENDBRANCH   1   6
TORSDOF 4
ENDMDL
MODEL 5
REMARK VINA RESULT:      -6.6      1.929      2.610
REMARK SMILES O=C(O)CCc1ccccc1
REMARK SMILES IDX 4 1 2 2 1 3 3 4 5 6 6 7 7 8 11 9 8 10 10 11 9 12
REMARK H PARENT 3 5
REMARK Flexibility Score: inf
ROOT
ATOM      1  C   UNL     1       8.242   0.262  -2.193  1.00  0.00     0.127 C 
ENDROOT
BRANCH   1   2
ATOM      2  C   UNL     1       9.378   0.411  -1.267  1.00  0.00     0.303 C 
ATOM      3  O   UNL     1       9.485  -0.387  -0.306  1.00  0.00    -0.252 OA
BRANCH   2   4
ATOM      4  O   UNL     1      10.321   1.406  -1.439  1.00  0.00    -0.481 OA
ATOM      5  H   UNL     1      10.105   2.418  -1.375  1.00  0.00     0.296 HD
ENDBRANCH   2   4
ENDBRANCH   1   2
BRANCH   1   6
ATOM      6  C   UNL     1       7.175  -0.550  -1.466  1.00  0.00     0.047 C 
BRANCH   6   7
ATOM      7  C   UNL     1       6.359   0.283  -0.567  1.00  0.00    -0.047 A 
ATOM      8  C   UNL     1       6.134  -0.175   0.726  1.00  0.00     0.004 A 
ATOM      9  C   UNL     1       5.792   1.484  -0.908  1.00  0.00     0.004 A 
ATOM     10  C   UNL     1       5.361   0.582   1.604  1.00  0.00     0.000 A 
ATOM     11  C   UNL     1       5.023   2.258  -0.062  1.00  0.00     0.000 A 
ATOM     12  C   UNL     1       4.816   1.776   1.216  1.00  0.00     0.000 A 
ENDBRANCH   6   7
ENDBRANCH   1   6
TORSDOF 4
ENDMDL
