@<TRIPOS>MOLECULE
/home/cewinharhar/GITHUB/reincatalyze/data/processed/docking_pred/2023-Apr-25-1829_maxeplen10_maxtrainstep200_exh32_gamma099_lrac3e-4_lrcr1e-3/074f71e156faecc69724e62cc987f5104d3c940c_ligand_2.pdbqt
 12 12 0 0 0
SMALL
GASTEIGER

@<TRIPOS>ATOM
      1  C          8.4370   -0.6590   -2.1060 C.3     1  UNL1        0.1270
      2  C          8.4010   -1.9110   -2.8810 C.2     1  UNL1        0.3030
      3  O          7.2890   -2.3890   -3.2080 O.2     1  UNL1       -0.2520
      4  O          9.5630   -2.5610   -3.2530 O.3     1  UNL1       -0.4810
      5  H          9.6080   -3.2610   -4.0160 H       1  UNL1        0.2960
      6  C          7.0240   -0.0870   -2.1130 C.3     1  UNL1        0.0470
      7  C          6.4710    0.0460   -0.7530 C.2     1  UNL1       -0.0470
      8  C          5.8300    1.2330   -0.4220 C.2     1  UNL1        0.0040
      9  C          6.5450   -0.9150    0.2220 C.2     1  UNL1        0.0040
     10  C          5.3000    1.3990    0.8560 C.2     1  UNL1        0.0000
     11  C          6.0290   -0.7810    1.4960 C.2     1  UNL1        0.0000
     12  C          5.3990    0.4100    1.7970 C.2     1  UNL1        0.0000
@<TRIPOS>BOND
     1     5     4    1
     2     4     2    1
     3     3     2    2
     4     2     1    1
     5     6     1    1
     6     6     7    1
     7     7     8    2
     8     7     9    1
     9     8    10    1
    10     9    11    2
    11    10    12    2
    12    11    12    1
