@<TRIPOS>MOLECULE
/home/cewinharhar/GITHUB/reincatalyze/data/processed/docking_pred/2023-Apr-25-1829_maxeplen10_maxtrainstep200_exh32_gamma099_lrac3e-4_lrcr1e-3/074f71e156faecc69724e62cc987f5104d3c940c_ligand_2.pdbqt
 12 12 0 0 0
SMALL
GASTEIGER

@<TRIPOS>ATOM
      1  C          5.5180    2.9010   -0.0210 C.3     1  UNL1        0.1270
      2  C          6.2780    3.8480    0.8140 C.2     1  UNL1        0.3030
      3  O          6.9110    4.7750    0.2550 O.2     1  UNL1       -0.2520
      4  O          6.3050    3.7330    2.1900 O.3     1  UNL1       -0.4810
      5  H          5.5060    3.9830    2.8020 H       1  UNL1        0.2960
      6  C          4.9620    1.8290    0.9090 C.3     1  UNL1        0.0470
      7  C          5.7790    0.6030    0.8940 C.2     1  UNL1       -0.0470
      8  C          5.7710   -0.2020    2.0270 C.2     1  UNL1        0.0040
      9  C          6.5560    0.1900   -0.1570 C.2     1  UNL1        0.0040
     10  C          6.5360   -1.3670    2.0530 C.2     1  UNL1        0.0000
     11  C          7.3240   -0.9580   -0.1620 C.2     1  UNL1        0.0000
     12  C          7.2970   -1.7360    0.9790 C.2     1  UNL1        0.0000
@<TRIPOS>BOND
     1    11     9    1
     2    11    12    2
     3     9     7    2
     4     1     2    1
     5     1     6    1
     6     3     2    2
     7     2     4    1
     8     7     6    1
     9     7     8    1
    10    12    10    1
    11     8    10    2
    12     4     5    1
