@<TRIPOS>MOLECULE
/home/cewinharhar/GITHUB/reincatalyze/data/processed/docking_pred/2023-Apr-25-1829_maxeplen10_maxtrainstep200_exh32_gamma099_lrac3e-4_lrcr1e-3/074f71e156faecc69724e62cc987f5104d3c940c_ligand_2.pdbqt
 12 12 0 0 0
SMALL
GASTEIGER

@<TRIPOS>ATOM
      1  C          8.4370   -0.6880   -2.0700 C.3     1  UNL1        0.1270
      2  C          8.4130   -1.9250   -2.8700 C.2     1  UNL1        0.3030
      3  O          7.3050   -2.4030   -3.2110 O.2     1  UNL1       -0.2520
      4  O          9.5790   -2.5610   -3.2490 O.3     1  UNL1       -0.4810
      5  H          9.6590   -3.1570   -4.0930 H       1  UNL1        0.2960
      6  C          7.0380   -0.0860   -2.1320 C.3     1  UNL1        0.0470
      7  C          6.4640    0.1270   -0.7920 C.2     1  UNL1       -0.0470
      8  C          6.6020   -0.8890    0.1470 C.2     1  UNL1        0.0040
      9  C          5.7950    1.2550   -0.3950 C.2     1  UNL1        0.0040
     10  C          6.0670   -0.7270    1.4240 C.2     1  UNL1        0.0000
     11  C          5.2540    1.4450    0.8620 C.2     1  UNL1        0.0000
     12  C          5.4060    0.4180    1.7730 C.2     1  UNL1        0.0000
@<TRIPOS>BOND
     1     5     4    1
     2     4     2    1
     3     3     2    2
     4     2     1    1
     5     6     1    1
     6     6     7    1
     7     7     9    2
     8     7     8    1
     9     9    11    1
    10     8    10    2
    11    11    12    2
    12    10    12    1
