@<TRIPOS>MOLECULE
/home/cewinharhar/GITHUB/reincatalyze/data/processed/docking_pred/2023-Apr-25-1829_maxeplen10_maxtrainstep200_exh32_gamma099_lrac3e-4_lrcr1e-3/074f71e156faecc69724e62cc987f5104d3c940c_ligand_2.pdbqt
 12 12 0 0 0
SMALL
GASTEIGER

@<TRIPOS>ATOM
      1  C          8.2420    0.2620   -2.1930 C.3     1  UNL1        0.1270
      2  C          9.3780    0.4110   -1.2670 C.2     1  UNL1        0.3030
      3  O          9.4850   -0.3870   -0.3060 O.2     1  UNL1       -0.2520
      4  O         10.3210    1.4060   -1.4390 O.3     1  UNL1       -0.4810
      5  H         10.1050    2.4180   -1.3750 H       1  UNL1        0.2960
      6  C          7.1750   -0.5500   -1.4660 C.3     1  UNL1        0.0470
      7  C          6.3590    0.2830   -0.5670 C.2     1  UNL1       -0.0470
      8  C          6.1340   -0.1750    0.7260 C.2     1  UNL1        0.0040
      9  C          5.7920    1.4840   -0.9080 C.2     1  UNL1        0.0040
     10  C          5.3610    0.5820    1.6040 C.2     1  UNL1        0.0000
     11  C          5.0230    2.2580   -0.0620 C.2     1  UNL1        0.0000
     12  C          4.8160    1.7760    1.2160 C.2     1  UNL1        0.0000
@<TRIPOS>BOND
     1     1     6    1
     2     1     2    1
     3     6     7    1
     4     4     5    1
     5     4     2    1
     6     2     3    2
     7     9     7    2
     8     9    11    1
     9     7     8    1
    10    11    12    2
    11     8    10    2
    12    12    10    1
