@<TRIPOS>MOLECULE
/home/cewinharhar/GITHUB/reincatalyze/data/processed/docking_pred/2023-Apr-25-1829_maxeplen10_maxtrainstep200_exh32_gamma099_lrac3e-4_lrcr1e-3/08a74a7e320cd1ecb560e86b752820c061dfae11_ligand_2.pdbqt
 12 12 0 0 0
SMALL
GASTEIGER

@<TRIPOS>ATOM
      1  C          8.4260   -0.6490   -2.1200 C.3     1  UNL1        0.1270
      2  C          8.4030   -1.9080   -2.8860 C.2     1  UNL1        0.3030
      3  O          7.2970   -2.3990   -3.2110 O.2     1  UNL1       -0.2520
      4  O          9.5710   -2.5490   -3.2500 O.3     1  UNL1       -0.4810
      5  H          9.9320   -3.3970   -2.7740 H       1  UNL1        0.2960
      6  C          7.0130   -0.0770   -2.1560 C.3     1  UNL1        0.0470
      7  C          6.4600    0.1230   -0.8050 C.2     1  UNL1       -0.0470
      8  C          6.5900   -0.9090    0.1150 C.2     1  UNL1        0.0040
      9  C          5.8150    1.2570   -0.3810 C.2     1  UNL1        0.0040
     10  C          6.0750   -0.7590    1.4010 C.2     1  UNL1        0.0000
     11  C          5.2940    1.4360    0.8850 C.2     1  UNL1        0.0000
     12  C          5.4380    0.3920    1.7780 C.2     1  UNL1        0.0000
@<TRIPOS>BOND
     1     4     2    1
     2     4     5    1
     3     3     2    2
     4     2     1    1
     5     6     1    1
     6     6     7    1
     7     7     9    2
     8     7     8    1
     9     9    11    1
    10     8    10    2
    11    11    12    2
    12    10    12    1
