@<TRIPOS>MOLECULE
/home/cewinharhar/GITHUB/reincatalyze/data/processed/docking_pred/2023-Apr-25-1829_maxeplen10_maxtrainstep200_exh32_gamma099_lrac3e-4_lrcr1e-3/08a74a7e320cd1ecb560e86b752820c061dfae11_ligand_2.pdbqt
 12 12 0 0 0
SMALL
GASTEIGER

@<TRIPOS>ATOM
      1  C          8.2900   -0.9520   -1.8140 C.3     1  UNL1        0.1270
      2  C          8.3630   -2.0160   -2.8310 C.2     1  UNL1        0.3030
      3  O          7.2980   -2.4610   -3.3190 O.2     1  UNL1       -0.2520
      4  O          9.5760   -2.5250   -3.2540 O.3     1  UNL1       -0.4810
      5  H         10.1760   -2.0640   -3.9630 H       1  UNL1        0.2960
      6  C          7.3660   -1.4510   -0.7100 C.3     1  UNL1        0.0470
      7  C          6.5580   -0.3650   -0.1280 C.2     1  UNL1       -0.0470
      8  C          6.2530    0.7260   -0.9320 C.2     1  UNL1        0.0040
      9  C          6.0840   -0.3420    1.1590 C.2     1  UNL1        0.0040
     10  C          5.4970    1.7760   -0.4160 C.2     1  UNL1        0.0000
     11  C          5.3320    0.6830    1.6990 C.2     1  UNL1        0.0000
     12  C          5.0460    1.7540    0.8760 C.2     1  UNL1        0.0000
@<TRIPOS>BOND
     1     5     4    1
     2     3     2    2
     3     4     2    1
     4     2     1    1
     5     1     6    1
     6     8    10    1
     7     8     7    2
     8     6     7    1
     9    10    12    2
    10     7     9    1
    11    12    11    1
    12     9    11    2
