@<TRIPOS>MOLECULE
/home/cewinharhar/GITHUB/reincatalyze/data/processed/docking_pred/2023-Apr-25-1829_maxeplen10_maxtrainstep200_exh32_gamma099_lrac3e-4_lrcr1e-3/08a74a7e320cd1ecb560e86b752820c061dfae11_ligand_2.pdbqt
 12 12 0 0 0
SMALL
GASTEIGER

@<TRIPOS>ATOM
      1  C          8.2670   -0.8630   -1.9660 C.3     1  UNL1        0.1270
      2  C          8.3850   -2.0190   -2.8720 C.2     1  UNL1        0.3030
      3  O          9.5150   -2.5280   -3.0600 O.2     1  UNL1       -0.2520
      4  O          7.2810   -2.5490   -3.5120 O.3     1  UNL1       -0.4810
      5  H          7.0480   -3.5590   -3.5120 H       1  UNL1        0.2960
      6  C          7.5270   -1.3420   -0.7220 C.3     1  UNL1        0.0470
      7  C          6.6550   -0.2980   -0.1580 C.2     1  UNL1       -0.0470
      8  C          6.1940   -0.4630    1.1430 C.2     1  UNL1        0.0040
      9  C          6.2520    0.8330   -0.8210 C.2     1  UNL1        0.0040
     10  C          5.3620    0.5000    1.7100 C.2     1  UNL1        0.0000
     11  C          5.4300    1.8050   -0.2870 C.2     1  UNL1        0.0000
     12  C          4.9870    1.6120    1.0070 C.2     1  UNL1        0.0000
@<TRIPOS>BOND
     1     4     5    1
     2     4     2    1
     3     3     2    2
     4     2     1    1
     5     1     6    1
     6     9    11    1
     7     9     7    2
     8     6     7    1
     9    11    12    2
    10     7     8    1
    11    12    10    1
    12     8    10    2
