@<TRIPOS>MOLECULE
/home/cewinharhar/GITHUB/reincatalyze/data/processed/docking_pred/2023-Apr-25-1829_maxeplen10_maxtrainstep200_exh32_gamma099_lrac3e-4_lrcr1e-3/08a74a7e320cd1ecb560e86b752820c061dfae11_ligand_2.pdbqt
 12 12 0 0 0
SMALL
GASTEIGER

@<TRIPOS>ATOM
      1  C          5.0060    1.7700    0.7450 C.3     1  UNL1        0.1270
      2  C          4.4710    1.1060    1.9460 C.2     1  UNL1        0.3030
      3  O          5.1540    0.2100    2.4970 O.2     1  UNL1       -0.2520
      4  O          3.2410    1.4510    2.4730 O.3     1  UNL1       -0.4810
      5  H          2.8870    2.4250    2.5090 H       1  UNL1        0.2960
      6  C          6.5260    1.7540    0.8620 C.3     1  UNL1        0.0470
      7  C          7.1640    1.0700   -0.2760 C.2     1  UNL1       -0.0470
      8  C          6.3820    0.2220   -1.0510 C.2     1  UNL1        0.0040
      9  C          8.4820    1.2000   -0.6310 C.2     1  UNL1        0.0040
     10  C          6.9520   -0.4470   -2.1330 C.2     1  UNL1        0.0000
     11  C          9.0750    0.5510   -1.6960 C.2     1  UNL1        0.0000
     12  C          8.2730   -0.2860   -2.4480 C.2     1  UNL1        0.0000
@<TRIPOS>BOND
     1    12    10    2
     2    12    11    1
     3    10     8    1
     4    11     9    2
     5     8     7    2
     6     9     7    1
     7     7     6    1
     8     1     6    1
     9     1     2    1
    10     2     4    1
    11     2     3    2
    12     4     5    1
