@<TRIPOS>MOLECULE
/home/cewinharhar/GITHUB/reincatalyze/data/processed/docking_pred/2023-Apr-25-1829_maxeplen10_maxtrainstep200_exh32_gamma099_lrac3e-4_lrcr1e-3/09c0e00cbaa22f287e1ef7d21129eabb08ea3244_ligand_2.pdbqt
 12 12 0 0 0
SMALL
GASTEIGER

@<TRIPOS>ATOM
      1  C          5.9100    0.9550    0.0570 C.3     1  UNL1        0.1270
      2  C          5.1060    1.2100    1.2650 C.2     1  UNL1        0.3030
      3  O          4.3580    2.2150    1.2940 O.2     1  UNL1       -0.2520
      4  O          5.1610    0.3650    2.3570 O.3     1  UNL1       -0.4810
      5  H          4.3570    0.1890    2.9870 H       1  UNL1        0.2960
      6  C          6.5900   -0.3960    0.2470 C.3     1  UNL1        0.0470
      7  C          8.0470   -0.3180    0.0460 C.2     1  UNL1       -0.0470
      8  C          8.5380    0.6620   -0.8080 C.2     1  UNL1        0.0040
      9  C          8.9660   -1.1460    0.6370 C.2     1  UNL1        0.0040
     10  C          9.9110    0.7630   -1.0280 C.2     1  UNL1        0.0000
     11  C         10.3310   -1.0710    0.4400 C.2     1  UNL1        0.0000
     12  C         10.7890   -0.0880   -0.4150 C.2     1  UNL1        0.0000
@<TRIPOS>BOND
     1    10     8    1
     2    10    12    2
     3     8     7    2
     4    12    11    1
     5     7     6    1
     6     7     9    1
     7     1     6    1
     8     1     2    1
     9    11     9    2
    10     2     3    2
    11     2     4    1
    12     4     5    1
