@<TRIPOS>MOLECULE
/home/cewinharhar/GITHUB/reincatalyze/data/processed/docking_pred/2023-Apr-25-1829_maxeplen10_maxtrainstep200_exh32_gamma099_lrac3e-4_lrcr1e-3/09c0e00cbaa22f287e1ef7d21129eabb08ea3244_ligand_2.pdbqt
 12 12 0 0 0
SMALL
GASTEIGER

@<TRIPOS>ATOM
      1  C          8.8310    0.7390   -1.5710 C.3     1  UNL1        0.1270
      2  C          9.9250   -0.1310   -1.1050 C.2     1  UNL1        0.3030
      3  O          9.7330   -1.3690   -1.0510 O.2     1  UNL1       -0.2520
      4  O         11.1490    0.3890   -0.7330 O.3     1  UNL1       -0.4810
      5  H         11.7210    1.0030   -1.3420 H       1  UNL1        0.2960
      6  C          7.5570   -0.1000   -1.5630 C.3     1  UNL1        0.0470
      7  C          6.6830    0.2290   -0.4230 C.2     1  UNL1       -0.0470
      8  C          6.6000   -0.6830    0.6220 C.2     1  UNL1        0.0040
      9  C          5.9330    1.3710   -0.3130 C.2     1  UNL1        0.0040
     10  C          5.7790   -0.4110    1.7140 C.2     1  UNL1        0.0000
     11  C          5.1110    1.6700    0.7550 C.2     1  UNL1        0.0000
     12  C          5.0480    0.7440    1.7780 C.2     1  UNL1        0.0000
@<TRIPOS>BOND
     1     1     6    1
     2     1     2    1
     3     6     7    1
     4     5     4    1
     5     2     3    2
     6     2     4    1
     7     7     9    2
     8     7     8    1
     9     9    11    1
    10     8    10    2
    11    11    12    2
    12    10    12    1
