@<TRIPOS>MOLECULE
/home/cewinharhar/GITHUB/reincatalyze/data/processed/docking_pred/2023-Apr-25-1829_maxeplen10_maxtrainstep200_exh32_gamma099_lrac3e-4_lrcr1e-3/09c0e00cbaa22f287e1ef7d21129eabb08ea3244_ligand_2.pdbqt
 12 12 0 0 0
SMALL
GASTEIGER

@<TRIPOS>ATOM
      1  C          8.5560   -0.4470   -2.0680 C.3     1  UNL1        0.1270
      2  C          8.6770   -1.7580   -2.7280 C.2     1  UNL1        0.3030
      3  O          9.7900   -2.3350   -2.7300 O.2     1  UNL1       -0.2520
      4  O          7.5920   -2.3600   -3.3380 O.3     1  UNL1       -0.4810
      5  H          7.0670   -1.9320   -4.1230 H       1  UNL1        0.2960
      6  C          7.0810   -0.0620   -2.1020 C.3     1  UNL1        0.0470
      7  C          6.5060    0.0510   -0.7500 C.2     1  UNL1       -0.0470
      8  C          5.8570    1.2320   -0.4120 C.2     1  UNL1        0.0040
      9  C          6.5640   -0.9250    0.2120 C.2     1  UNL1        0.0040
     10  C          5.3050    1.3790    0.8590 C.2     1  UNL1        0.0000
     11  C          6.0270   -0.8100    1.4790 C.2     1  UNL1        0.0000
     12  C          5.3900    0.3760    1.7860 C.2     1  UNL1        0.0000
@<TRIPOS>BOND
     1     5     4    1
     2     4     2    1
     3     3     2    2
     4     2     1    1
     5     6     1    1
     6     6     7    1
     7     7     8    2
     8     7     9    1
     9     8    10    1
    10     9    11    2
    11    10    12    2
    12    11    12    1
