@<TRIPOS>MOLECULE
/home/cewinharhar/GITHUB/reincatalyze/data/processed/docking_pred/2023-Apr-25-1829_maxeplen10_maxtrainstep200_exh32_gamma099_lrac3e-4_lrcr1e-3/09c0e00cbaa22f287e1ef7d21129eabb08ea3244_ligand_2.pdbqt
 12 12 0 0 0
SMALL
GASTEIGER

@<TRIPOS>ATOM
      1  C          8.5930   -0.8670   -1.9260 C.3     1  UNL1        0.1270
      2  C          8.5720   -2.0200   -2.8420 C.2     1  UNL1        0.3030
      3  O          9.6480   -2.6090   -3.0990 O.2     1  UNL1       -0.2520
      4  O          7.3950   -2.4610   -3.4180 O.3     1  UNL1       -0.4810
      5  H          6.4620   -2.0760   -3.1810 H       1  UNL1        0.2960
      6  C          7.2550   -0.1520   -2.0740 C.3     1  UNL1        0.0470
      7  C          6.5960    0.0700   -0.7740 C.2     1  UNL1       -0.0470
      8  C          6.6820   -0.9350    0.1820 C.2     1  UNL1        0.0040
      9  C          5.8930    1.1960   -0.4320 C.2     1  UNL1        0.0040
     10  C          6.0670   -0.7650    1.4210 C.2     1  UNL1        0.0000
     11  C          5.2730    1.3940    0.7850 C.2     1  UNL1        0.0000
     12  C          5.3750    0.3780    1.7150 C.2     1  UNL1        0.0000
@<TRIPOS>BOND
     1     4     5    1
     2     4     2    1
     3     3     2    2
     4     2     1    1
     5     6     1    1
     6     6     7    1
     7     7     9    2
     8     7     8    1
     9     9    11    1
    10     8    10    2
    11    11    12    2
    12    10    12    1
