MODEL 1
REMARK VINA RESULT:      -7.0      0.000      0.000
REMARK SMILES O=C(O)CCc1ccccc1
REMARK SMILES IDX 4 1 2 2 1 3 3 4 5 6 6 7 7 8 11 9 8 10 10 11 9 12
REMARK H PARENT 3 5
REMARK Flexibility Score: inf
ROOT
ATOM      1  C   UNL     1       8.593  -0.867  -1.926  1.00  0.00     0.127 C 
ENDROOT
BRANCH   1   2
ATOM      2  C   UNL     1       8.572  -2.020  -2.842  1.00  0.00     0.303 C 
ATOM      3  O   UNL     1       9.648  -2.609  -3.099  1.00  0.00    -0.252 OA
BRANCH   2   4
ATOM      4  O   UNL     1       7.395  -2.461  -3.418  1.00  0.00    -0.481 OA
ATOM      5  H   UNL     1       6.462  -2.076  -3.181  1.00  0.00     0.296 HD
ENDBRANCH   2   4
ENDBRANCH   1   2
BRANCH   1   6
ATOM      6  C   UNL     1       7.255  -0.152  -2.074  1.00  0.00     0.047 C 
BRANCH   6   7
ATOM      7  C   UNL     1       6.596   0.070  -0.774  1.00  0.00    -0.047 A 
ATOM      8  C   UNL     1       6.682  -0.935   0.182  1.00  0.00     0.004 A 
ATOM      9  C   UNL     1       5.893   1.196  -0.432  1.00  0.00     0.004 A 
ATOM     10  C   UNL     1       6.067  -0.765   1.421  1.00  0.00     0.000 A 
ATOM     11  C   UNL     1       5.273   1.394   0.785  1.00  0.00     0.000 A 
ATOM     12  C   UNL     1       5.375   0.378   1.715  1.00  0.00     0.000 A 
ENDBRANCH   6   7
ENDBRANCH   1   6
TORSDOF 4
ENDMDL
MODEL 2
REMARK VINA RESULT:      -6.9      0.245      1.450
REMARK SMILES O=C(O)CCc1ccccc1
REMARK SMILES IDX 4 1 2 2 1 3 3 4 5 6 6 7 7 8 11 9 8 10 10 11 9 12
REMARK H PARENT 3 5
REMARK Flexibility Score: inf
ROOT
ATOM      1  C   UNL     1       8.556  -0.447  -2.068  1.00  0.00     0.127 C 
ENDROOT
BRANCH   1   2
ATOM      2  C   UNL     1       8.677  -1.758  -2.728  1.00  0.00     0.303 C 
ATOM      3  O   UNL     1       9.790  -2.335  -2.730  1.00  0.00    -0.252 OA
BRANCH   2   4
ATOM      4  O   UNL     1       7.592  -2.360  -3.338  1.00  0.00    -0.481 OA
ATOM      5  H   UNL     1       7.067  -1.932  -4.123  1.00  0.00     0.296 HD
ENDBRANCH   2   4
ENDBRANCH   1   2
BRANCH   1   6
ATOM      6  C   UNL     1       7.081  -0.062  -2.102  1.00  0.00     0.047 C 
BRANCH   6   7
ATOM      7  C   UNL     1       6.506   0.051  -0.750  1.00  0.00    -0.047 A 
ATOM      8  C   UNL     1       5.857   1.232  -0.412  1.00  0.00     0.004 A 
ATOM      9  C   UNL     1       6.564  -0.925   0.212  1.00  0.00     0.004 A 
ATOM     10  C   UNL     1       5.305   1.379   0.859  1.00  0.00     0.000 A 
ATOM     11  C   UNL     1       6.027  -0.810   1.479  1.00  0.00     0.000 A 
ATOM     12  C   UNL     1       5.390   0.376   1.786  1.00  0.00     0.000 A 
ENDBRANCH   6   7
ENDBRANCH   1   6
TORSDOF 4
ENDMDL
MODEL 3
REMARK VINA RESULT:      -6.6      1.560      2.366
REMARK SMILES O=C(O)CCc1ccccc1
REMARK SMILES IDX 4 1 2 2 1 3 3 4 5 6 6 7 7 8 11 9 8 10 10 11 9 12
REMARK H PARENT 3 5
REMARK Flexibility Score: inf
ROOT
ATOM      1  C   UNL     1       8.229   0.295  -2.367  1.00  0.00     0.127 C 
ENDROOT
BRANCH   1   2
ATOM      2  C   UNL     1       9.520   0.067  -1.696  1.00  0.00     0.303 C 
ATOM      3  O   UNL     1       9.992  -1.094  -1.670  1.00  0.00    -0.252 OA
BRANCH   2   4
ATOM      4  O   UNL     1      10.214   1.102  -1.100  1.00  0.00    -0.481 OA
ATOM      5  H   UNL     1      10.392   2.014  -1.561  1.00  0.00     0.296 HD
ENDBRANCH   2   4
ENDBRANCH   1   2
BRANCH   1   6
ATOM      6  C   UNL     1       7.252  -0.742  -1.825  1.00  0.00     0.047 C 
BRANCH   6   7
ATOM      7  C   UNL     1       6.579  -0.283  -0.597  1.00  0.00    -0.047 A 
ATOM      8  C   UNL     1       6.016   0.988  -0.596  1.00  0.00     0.004 A 
ATOM      9  C   UNL     1       6.469  -1.014   0.558  1.00  0.00     0.004 A 
ATOM     10  C   UNL     1       5.377   1.460   0.549  1.00  0.00     0.000 A 
ATOM     11  C   UNL     1       5.842  -0.575   1.707  1.00  0.00     0.000 A 
ATOM     12  C   UNL     1       5.293   0.693   1.679  1.00  0.00     0.000 A 
ENDBRANCH   6   7
ENDBRANCH   1   6
TORSDOF 4
ENDMDL
MODEL 4
REMARK VINA RESULT:      -6.6      3.482      5.147
REMARK SMILES O=C(O)CCc1ccccc1
REMARK SMILES IDX 4 1 2 2 1 3 3 4 5 6 6 7 7 8 11 9 8 10 10 11 9 12
REMARK H PARENT 3 5
REMARK Flexibility Score: inf
ROOT
ATOM      1  C   UNL     1       5.910   0.955   0.057  1.00  0.00     0.127 C 
ENDROOT
BRANCH   1   2
ATOM      2  C   UNL     1       5.106   1.210   1.265  1.00  0.00     0.303 C 
ATOM      3  O   UNL     1       4.358   2.215   1.294  1.00  0.00    -0.252 OA
BRANCH   2   4
ATOM      4  O   UNL     1       5.161   0.365   2.357  1.00  0.00    -0.481 OA
ATOM      5  H   UNL     1       4.357   0.189   2.987  1.00  0.00     0.296 HD
ENDBRANCH   2   4
ENDBRANCH   1   2
BRANCH   1   6
ATOM      6  C   UNL     1       6.590  -0.396   0.247  1.00  0.00     0.047 C 
BRANCH   6   7
ATOM      7  C   UNL     1       8.047  -0.318   0.046  1.00  0.00    -0.047 A 
ATOM      8  C   UNL     1       8.538   0.662  -0.808  1.00  0.00     0.004 A 
ATOM      9  C   UNL     1       8.966  -1.146   0.637  1.00  0.00     0.004 A 
ATOM     10  C   UNL     1       9.911   0.763  -1.028  1.00  0.00     0.000 A 
ATOM     11  C   UNL     1      10.331  -1.071   0.440  1.00  0.00     0.000 A 
ATOM     12  C   UNL     1      10.789  -0.088  -0.415  1.00  0.00     0.000 A 
ENDBRANCH   6   7
ENDBRANCH   1   6
TORSDOF 4
ENDMDL
MODEL 5
REMARK VINA RESULT:      -6.5      1.646      2.085
REMARK SMILES O=C(O)CCc1ccccc1
REMARK SMILES IDX 4 1 2 2 1 3 3 4 5 6 6 7 7 8 11 9 8 10 10 11 9 12
REMARK H PARENT 3 5
REMARK Flexibility Score: inf
ROOT
ATOM      1  C   UNL     1       8.831   0.739  -1.571  1.00  0.00     0.127 C 
ENDROOT
BRANCH   1   2
ATOM      2  C   UNL     1       9.925  -0.131  -1.105  1.00  0.00     0.303 C 
ATOM      3  O   UNL     1       9.733  -1.369  -1.051  1.00  0.00    -0.252 OA
BRANCH   2   4
ATOM      4  O   UNL     1      11.149   0.389  -0.733  1.00  0.00    -0.481 OA
ATOM      5  H   UNL     1      11.721   1.003  -1.342  1.00  0.00     0.296 HD
ENDBRANCH   2   4
ENDBRANCH   1   2
BRANCH   1   6
ATOM      6  C   UNL     1       7.557  -0.100  -1.563  1.00  0.00     0.047 C 
BRANCH   6   7
ATOM      7  C   UNL     1       6.683   0.229  -0.423  1.00  0.00    -0.047 A 
ATOM      8  C   UNL     1       6.600  -0.683   0.622  1.00  0.00     0.004 A 
ATOM      9  C   UNL     1       5.933   1.371  -0.313  1.00  0.00     0.004 A 
ATOM     10  C   UNL     1       5.779  -0.411   1.714  1.00  0.00     0.000 A 
ATOM     11  C   UNL     1       5.111   1.670   0.755  1.00  0.00     0.000 A 
ATOM     12  C   UNL     1       5.048   0.744   1.778  1.00  0.00     0.000 A 
ENDBRANCH   6   7
ENDBRANCH   1   6
TORSDOF 4
ENDMDL
