@<TRIPOS>MOLECULE
/home/cewinharhar/GITHUB/reincatalyze/data/processed/docking_pred/2023-Apr-25-1829_maxeplen10_maxtrainstep200_exh32_gamma099_lrac3e-4_lrcr1e-3/09c0e00cbaa22f287e1ef7d21129eabb08ea3244_ligand_2.pdbqt
 12 12 0 0 0
SMALL
GASTEIGER

@<TRIPOS>ATOM
      1  C          8.2290    0.2950   -2.3670 C.3     1  UNL1        0.1270
      2  C          9.5200    0.0670   -1.6960 C.2     1  UNL1        0.3030
      3  O          9.9920   -1.0940   -1.6700 O.2     1  UNL1       -0.2520
      4  O         10.2140    1.1020   -1.1000 O.3     1  UNL1       -0.4810
      5  H         10.3920    2.0140   -1.5610 H       1  UNL1        0.2960
      6  C          7.2520   -0.7420   -1.8250 C.3     1  UNL1        0.0470
      7  C          6.5790   -0.2830   -0.5970 C.2     1  UNL1       -0.0470
      8  C          6.0160    0.9880   -0.5960 C.2     1  UNL1        0.0040
      9  C          6.4690   -1.0140    0.5580 C.2     1  UNL1        0.0040
     10  C          5.3770    1.4600    0.5490 C.2     1  UNL1        0.0000
     11  C          5.8420   -0.5750    1.7070 C.2     1  UNL1        0.0000
     12  C          5.2930    0.6930    1.6790 C.2     1  UNL1        0.0000
@<TRIPOS>BOND
     1     1     6    1
     2     1     2    1
     3     6     7    1
     4     2     3    2
     5     2     4    1
     6     5     4    1
     7     7     8    2
     8     7     9    1
     9     8    10    1
    10    10    12    2
    11     9    11    2
    12    12    11    1
