@<TRIPOS>MOLECULE
/home/cewinharhar/GITHUB/reincatalyze/data/processed/docking_pred/2023-Apr-25-1829_maxeplen10_maxtrainstep200_exh32_gamma099_lrac3e-4_lrcr1e-3/0bc78f1071f374665515956646110ea4a2a90639_ligand_2.pdbqt
 12 12 0 0 0
SMALL
GASTEIGER

@<TRIPOS>ATOM
      1  C          8.2220    0.2510   -2.2650 C.3     1  UNL1        0.1270
      2  C          9.3420    0.3570   -1.3140 C.2     1  UNL1        0.3030
      3  O          9.3920   -0.4400   -0.3470 O.2     1  UNL1       -0.2520
      4  O         10.3300    1.3100   -1.4680 O.3     1  UNL1       -0.4810
      5  H         10.2330    2.2930   -1.1540 H       1  UNL1        0.2960
      6  C          7.1080   -0.5170   -1.5630 C.3     1  UNL1        0.0470
      7  C          6.3250    0.3430   -0.6570 C.2     1  UNL1       -0.0470
      8  C          6.1130   -0.1000    0.6430 C.2     1  UNL1        0.0040
      9  C          5.7800    1.5530   -0.9990 C.2     1  UNL1        0.0040
     10  C          5.3720    0.6820    1.5270 C.2     1  UNL1        0.0000
     11  C          5.0430    2.3500   -0.1470 C.2     1  UNL1        0.0000
     12  C          4.8470    1.8840    1.1380 C.2     1  UNL1        0.0000
@<TRIPOS>BOND
     1     1     6    1
     2     1     2    1
     3     6     7    1
     4     4     2    1
     5     4     5    1
     6     2     3    2
     7     9     7    2
     8     9    11    1
     9     7     8    1
    10    11    12    2
    11     8    10    2
    12    12    10    1
