@<TRIPOS>MOLECULE
/home/cewinharhar/GITHUB/reincatalyze/data/processed/docking_pred/2023-Apr-25-1829_maxeplen10_maxtrainstep200_exh32_gamma099_lrac3e-4_lrcr1e-3/0bc78f1071f374665515956646110ea4a2a90639_ligand_2.pdbqt
 12 12 0 0 0
SMALL
GASTEIGER

@<TRIPOS>ATOM
      1  C          8.4390   -0.8270   -1.9540 C.3     1  UNL1        0.1270
      2  C          8.4450   -1.9800   -2.8700 C.2     1  UNL1        0.3030
      3  O          9.5340   -2.5510   -3.1160 O.2     1  UNL1       -0.2520
      4  O          7.2820   -2.4400   -3.4570 O.3     1  UNL1       -0.4810
      5  H          6.7790   -3.2910   -3.1420 H       1  UNL1        0.2960
      6  C          7.0770   -0.1540   -2.0900 C.3     1  UNL1        0.0470
      7  C          6.4610    0.1240   -0.7810 C.2     1  UNL1       -0.0470
      8  C          6.5540   -0.8500    0.2060 C.2     1  UNL1        0.0040
      9  C          5.7930    1.2770   -0.4570 C.2     1  UNL1        0.0040
     10  C          5.9790   -0.6260    1.4550 C.2     1  UNL1        0.0000
     11  C          5.2130    1.5280    0.7710 C.2     1  UNL1        0.0000
     12  C          5.3200    0.5410    1.7310 C.2     1  UNL1        0.0000
@<TRIPOS>BOND
     1     4     5    1
     2     4     2    1
     3     3     2    2
     4     2     1    1
     5     6     1    1
     6     6     7    1
     7     7     9    2
     8     7     8    1
     9     9    11    1
    10     8    10    2
    11    11    12    2
    12    10    12    1
