MODEL 1
REMARK VINA RESULT:      -7.3      0.000      0.000
REMARK SMILES O=C(O)CCc1ccccc1
REMARK SMILES IDX 4 1 2 2 1 3 3 4 5 6 6 7 7 8 11 9 8 10 10 11 9 12
REMARK H PARENT 3 5
REMARK Flexibility Score: inf
ROOT
ATOM      1  C   UNL     1       8.439  -0.827  -1.954  1.00  0.00     0.127 C 
ENDROOT
BRANCH   1   2
ATOM      2  C   UNL     1       8.445  -1.980  -2.870  1.00  0.00     0.303 C 
ATOM      3  O   UNL     1       9.534  -2.551  -3.116  1.00  0.00    -0.252 OA
BRANCH   2   4
ATOM      4  O   UNL     1       7.282  -2.440  -3.457  1.00  0.00    -0.481 OA
ATOM      5  H   UNL     1       6.779  -3.291  -3.142  1.00  0.00     0.296 HD
ENDBRANCH   2   4
ENDBRANCH   1   2
BRANCH   1   6
ATOM      6  C   UNL     1       7.077  -0.154  -2.090  1.00  0.00     0.047 C 
BRANCH   6   7
ATOM      7  C   UNL     1       6.461   0.124  -0.781  1.00  0.00    -0.047 A 
ATOM      8  C   UNL     1       6.554  -0.850   0.206  1.00  0.00     0.004 A 
ATOM      9  C   UNL     1       5.793   1.277  -0.457  1.00  0.00     0.004 A 
ATOM     10  C   UNL     1       5.979  -0.626   1.455  1.00  0.00     0.000 A 
ATOM     11  C   UNL     1       5.213   1.528   0.771  1.00  0.00     0.000 A 
ATOM     12  C   UNL     1       5.320   0.541   1.731  1.00  0.00     0.000 A 
ENDBRANCH   6   7
ENDBRANCH   1   6
TORSDOF 4
ENDMDL
MODEL 2
REMARK VINA RESULT:      -7.3      0.210      1.444
REMARK SMILES O=C(O)CCc1ccccc1
REMARK SMILES IDX 4 1 2 2 1 3 3 4 5 6 6 7 7 8 11 9 8 10 10 11 9 12
REMARK H PARENT 3 5
REMARK Flexibility Score: inf
ROOT
ATOM      1  C   UNL     1       8.447  -0.567  -2.247  1.00  0.00     0.127 C 
ENDROOT
BRANCH   1   2
ATOM      2  C   UNL     1       8.467  -1.884  -2.908  1.00  0.00     0.303 C 
ATOM      3  O   UNL     1       9.560  -2.489  -3.017  1.00  0.00    -0.252 OA
BRANCH   2   4
ATOM      4  O   UNL     1       7.313  -2.458  -3.403  1.00  0.00    -0.481 OA
ATOM      5  H   UNL     1       7.165  -3.482  -3.470  1.00  0.00     0.296 HD
ENDBRANCH   2   4
ENDBRANCH   1   2
BRANCH   1   6
ATOM      6  C   UNL     1       6.993  -0.111  -2.201  1.00  0.00     0.047 C 
BRANCH   6   7
ATOM      7  C   UNL     1       6.489   0.003  -0.821  1.00  0.00    -0.047 A 
ATOM      8  C   UNL     1       5.869   1.189  -0.447  1.00  0.00     0.004 A 
ATOM      9  C   UNL     1       6.590  -0.975   0.135  1.00  0.00     0.004 A 
ATOM     10  C   UNL     1       5.385   1.337   0.852  1.00  0.00     0.000 A 
ATOM     11  C   UNL     1       6.121  -0.858   1.429  1.00  0.00     0.000 A 
ATOM     12  C   UNL     1       5.510   0.332   1.771  1.00  0.00     0.000 A 
ENDBRANCH   6   7
ENDBRANCH   1   6
TORSDOF 4
ENDMDL
MODEL 3
REMARK VINA RESULT:      -6.8      3.384      5.092
REMARK SMILES O=C(O)CCc1ccccc1
REMARK SMILES IDX 4 1 2 2 1 3 3 4 5 6 6 7 7 8 11 9 8 10 10 11 9 12
REMARK H PARENT 3 5
REMARK Flexibility Score: inf
ROOT
ATOM      1  C   UNL     1       4.980   1.730   0.682  1.00  0.00     0.127 C 
ENDROOT
BRANCH   1   2
ATOM      2  C   UNL     1       4.472   1.104   1.915  1.00  0.00     0.303 C 
ATOM      3  O   UNL     1       5.168   0.227   2.479  1.00  0.00    -0.252 OA
BRANCH   2   4
ATOM      4  O   UNL     1       3.253   1.464   2.456  1.00  0.00    -0.481 OA
ATOM      5  H   UNL     1       3.027   1.382   3.464  1.00  0.00     0.296 HD
ENDBRANCH   2   4
ENDBRANCH   1   2
BRANCH   1   6
ATOM      6  C   UNL     1       6.500   1.777   0.796  1.00  0.00     0.047 C 
BRANCH   6   7
ATOM      7  C   UNL     1       7.162   1.063  -0.310  1.00  0.00    -0.047 A 
ATOM      8  C   UNL     1       6.398   0.189  -1.074  1.00  0.00     0.004 A 
ATOM      9  C   UNL     1       8.486   1.188  -0.644  1.00  0.00     0.004 A 
ATOM     10  C   UNL     1       6.991  -0.509  -2.125  1.00  0.00     0.000 A 
ATOM     11  C   UNL     1       9.101   0.511  -1.678  1.00  0.00     0.000 A 
ATOM     12  C   UNL     1       8.317  -0.351  -2.420  1.00  0.00     0.000 A 
ENDBRANCH   6   7
ENDBRANCH   1   6
TORSDOF 4
ENDMDL
MODEL 4
REMARK VINA RESULT:      -6.6      1.912      2.282
REMARK SMILES O=C(O)CCc1ccccc1
REMARK SMILES IDX 4 1 2 2 1 3 3 4 5 6 6 7 7 8 11 9 8 10 10 11 9 12
REMARK H PARENT 3 5
REMARK Flexibility Score: inf
ROOT
ATOM      1  C   UNL     1       8.222   0.251  -2.265  1.00  0.00     0.127 C 
ENDROOT
BRANCH   1   2
ATOM      2  C   UNL     1       9.342   0.357  -1.314  1.00  0.00     0.303 C 
ATOM      3  O   UNL     1       9.392  -0.440  -0.347  1.00  0.00    -0.252 OA
BRANCH   2   4
ATOM      4  O   UNL     1      10.330   1.310  -1.468  1.00  0.00    -0.481 OA
ATOM      5  H   UNL     1      10.233   2.293  -1.154  1.00  0.00     0.296 HD
ENDBRANCH   2   4
ENDBRANCH   1   2
BRANCH   1   6
ATOM      6  C   UNL     1       7.108  -0.517  -1.563  1.00  0.00     0.047 C 
BRANCH   6   7
ATOM      7  C   UNL     1       6.325   0.343  -0.657  1.00  0.00    -0.047 A 
ATOM      8  C   UNL     1       6.113  -0.100   0.643  1.00  0.00     0.004 A 
ATOM      9  C   UNL     1       5.780   1.553  -0.999  1.00  0.00     0.004 A 
ATOM     10  C   UNL     1       5.372   0.682   1.527  1.00  0.00     0.000 A 
ATOM     11  C   UNL     1       5.043   2.350  -0.147  1.00  0.00     0.000 A 
ATOM     12  C   UNL     1       4.847   1.884   1.138  1.00  0.00     0.000 A 
ENDBRANCH   6   7
ENDBRANCH   1   6
TORSDOF 4
ENDMDL
MODEL 5
REMARK VINA RESULT:      -6.6      2.023      2.448
REMARK SMILES O=C(O)CCc1ccccc1
REMARK SMILES IDX 4 1 2 2 1 3 3 4 5 6 6 7 7 8 11 9 8 10 10 11 9 12
REMARK H PARENT 3 5
REMARK Flexibility Score: inf
ROOT
ATOM      1  C   UNL     1       7.947  -2.245   0.835  1.00  0.00     0.127 C 
ENDROOT
BRANCH   1   2
ATOM      2  C   UNL     1       8.751  -3.368   0.323  1.00  0.00     0.303 C 
ATOM      3  O   UNL     1       9.622  -3.877   1.067  1.00  0.00    -0.252 OA
BRANCH   2   4
ATOM      4  O   UNL     1       8.561  -3.867  -0.952  1.00  0.00    -0.481 OA
ATOM      5  H   UNL     1       7.794  -4.516  -1.205  1.00  0.00     0.296 HD
ENDBRANCH   2   4
ENDBRANCH   1   2
BRANCH   1   6
ATOM      6  C   UNL     1       7.456  -1.457  -0.375  1.00  0.00     0.047 C 
BRANCH   6   7
ATOM      7  C   UNL     1       6.600  -0.322   0.012  1.00  0.00    -0.047 A 
ATOM      8  C   UNL     1       6.066  -0.312   1.295  1.00  0.00     0.004 A 
ATOM      9  C   UNL     1       6.279   0.733  -0.803  1.00  0.00     0.004 A 
ATOM     10  C   UNL     1       5.246   0.741   1.695  1.00  0.00     0.000 A 
ATOM     11  C   UNL     1       5.471   1.790  -0.436  1.00  0.00     0.000 A 
ATOM     12  C   UNL     1       4.954   1.772   0.845  1.00  0.00     0.000 A 
ENDBRANCH   6   7
ENDBRANCH   1   6
TORSDOF 4
ENDMDL
