@<TRIPOS>MOLECULE
/home/cewinharhar/GITHUB/reincatalyze/data/processed/docking_pred/2023-Apr-25-1829_maxeplen10_maxtrainstep200_exh32_gamma099_lrac3e-4_lrcr1e-3/0bc78f1071f374665515956646110ea4a2a90639_ligand_2.pdbqt
 12 12 0 0 0
SMALL
GASTEIGER

@<TRIPOS>ATOM
      1  C          4.9800    1.7300    0.6820 C.3     1  UNL1        0.1270
      2  C          4.4720    1.1040    1.9150 C.2     1  UNL1        0.3030
      3  O          5.1680    0.2270    2.4790 O.2     1  UNL1       -0.2520
      4  O          3.2530    1.4640    2.4560 O.3     1  UNL1       -0.4810
      5  H          3.0270    1.3820    3.4640 H       1  UNL1        0.2960
      6  C          6.5000    1.7770    0.7960 C.3     1  UNL1        0.0470
      7  C          7.1620    1.0630   -0.3100 C.2     1  UNL1       -0.0470
      8  C          6.3980    0.1890   -1.0740 C.2     1  UNL1        0.0040
      9  C          8.4860    1.1880   -0.6440 C.2     1  UNL1        0.0040
     10  C          6.9910   -0.5090   -2.1250 C.2     1  UNL1        0.0000
     11  C          9.1010    0.5110   -1.6780 C.2     1  UNL1        0.0000
     12  C          8.3170   -0.3510   -2.4200 C.2     1  UNL1        0.0000
@<TRIPOS>BOND
     1    12    10    2
     2    12    11    1
     3    10     8    1
     4    11     9    2
     5     8     7    2
     6     9     7    1
     7     7     6    1
     8     1     6    1
     9     1     2    1
    10     2     4    1
    11     2     3    2
    12     4     5    1
