@<TRIPOS>MOLECULE
/home/cewinharhar/GITHUB/reincatalyze/data/processed/docking_pred/2023-Apr-25-1829_maxeplen10_maxtrainstep200_exh32_gamma099_lrac3e-4_lrcr1e-3/0bc78f1071f374665515956646110ea4a2a90639_ligand_2.pdbqt
 12 12 0 0 0
SMALL
GASTEIGER

@<TRIPOS>ATOM
      1  C          7.9470   -2.2450    0.8350 C.3     1  UNL1        0.1270
      2  C          8.7510   -3.3680    0.3230 C.2     1  UNL1        0.3030
      3  O          9.6220   -3.8770    1.0670 O.2     1  UNL1       -0.2520
      4  O          8.5610   -3.8670   -0.9520 O.3     1  UNL1       -0.4810
      5  H          7.7940   -4.5160   -1.2050 H       1  UNL1        0.2960
      6  C          7.4560   -1.4570   -0.3750 C.3     1  UNL1        0.0470
      7  C          6.6000   -0.3220    0.0120 C.2     1  UNL1       -0.0470
      8  C          6.0660   -0.3120    1.2950 C.2     1  UNL1        0.0040
      9  C          6.2790    0.7330   -0.8030 C.2     1  UNL1        0.0040
     10  C          5.2460    0.7410    1.6950 C.2     1  UNL1        0.0000
     11  C          5.4710    1.7900   -0.4360 C.2     1  UNL1        0.0000
     12  C          4.9540    1.7720    0.8450 C.2     1  UNL1        0.0000
@<TRIPOS>BOND
     1     5     4    1
     2     4     2    1
     3     9    11    1
     4     9     7    2
     5    11    12    2
     6     6     7    1
     7     6     1    1
     8     7     8    1
     9     2     1    1
    10     2     3    2
    11    12    10    1
    12     8    10    2
