@<TRIPOS>MOLECULE
/home/cewinharhar/GITHUB/reincatalyze/data/processed/docking_pred/2023-Apr-25-1829_maxeplen10_maxtrainstep200_exh32_gamma099_lrac3e-4_lrcr1e-3/0bc78f1071f374665515956646110ea4a2a90639_ligand_2.pdbqt
 12 12 0 0 0
SMALL
GASTEIGER

@<TRIPOS>ATOM
      1  C          8.4470   -0.5670   -2.2470 C.3     1  UNL1        0.1270
      2  C          8.4670   -1.8840   -2.9080 C.2     1  UNL1        0.3030
      3  O          9.5600   -2.4890   -3.0170 O.2     1  UNL1       -0.2520
      4  O          7.3130   -2.4580   -3.4030 O.3     1  UNL1       -0.4810
      5  H          7.1650   -3.4820   -3.4700 H       1  UNL1        0.2960
      6  C          6.9930   -0.1110   -2.2010 C.3     1  UNL1        0.0470
      7  C          6.4890    0.0030   -0.8210 C.2     1  UNL1       -0.0470
      8  C          5.8690    1.1890   -0.4470 C.2     1  UNL1        0.0040
      9  C          6.5900   -0.9750    0.1350 C.2     1  UNL1        0.0040
     10  C          5.3850    1.3370    0.8520 C.2     1  UNL1        0.0000
     11  C          6.1210   -0.8580    1.4290 C.2     1  UNL1        0.0000
     12  C          5.5100    0.3320    1.7710 C.2     1  UNL1        0.0000
@<TRIPOS>BOND
     1     5     4    1
     2     4     2    1
     3     3     2    2
     4     2     1    1
     5     1     6    1
     6     6     7    1
     7     7     8    2
     8     7     9    1
     9     8    10    1
    10     9    11    2
    11    10    12    2
    12    11    12    1
