@<TRIPOS>MOLECULE
/home/cewinharhar/GITHUB/reincatalyze/data/processed/docking_pred/2023-Apr-25-1829_maxeplen10_maxtrainstep200_exh32_gamma099_lrac3e-4_lrcr1e-3/0c0669ff2f8dcec30d9aff9f411b757c1c1ac29f_ligand_2.pdbqt
 12 12 0 0 0
SMALL
GASTEIGER

@<TRIPOS>ATOM
      1  C          7.9410   -2.3170    0.7910 C.3     1  UNL1        0.1270
      2  C          8.7920   -3.4000    0.2660 C.2     1  UNL1        0.3030
      3  O          8.6620   -3.7430   -0.9330 O.2     1  UNL1       -0.2520
      4  O          9.7230   -4.0350    1.0640 O.3     1  UNL1       -0.4810
      5  H         10.7360   -4.0720    0.8450 H       1  UNL1        0.2960
      6  C          7.4640   -1.5010   -0.4050 C.3     1  UNL1        0.0470
      7  C          6.6140   -0.3680   -0.0000 C.2     1  UNL1       -0.0470
      8  C          6.0800   -0.3760    1.2830 C.2     1  UNL1        0.0040
      9  C          6.3000    0.7020   -0.7980 C.2     1  UNL1        0.0040
     10  C          5.2660    0.6760    1.7000 C.2     1  UNL1        0.0000
     11  C          5.4970    1.7580   -0.4150 C.2     1  UNL1        0.0000
     12  C          4.9800    1.7220    0.8660 C.2     1  UNL1        0.0000
@<TRIPOS>BOND
     1     3     2    2
     2     9    11    1
     3     9     7    2
     4    11    12    2
     5     6     7    1
     6     6     1    1
     7     7     8    1
     8     2     1    1
     9     2     4    1
    10     5     4    1
    11    12    10    1
    12     8    10    2
