@<TRIPOS>MOLECULE
/home/cewinharhar/GITHUB/reincatalyze/data/processed/docking_pred/2023-Apr-25-1829_maxeplen10_maxtrainstep200_exh32_gamma099_lrac3e-4_lrcr1e-3/0c0669ff2f8dcec30d9aff9f411b757c1c1ac29f_ligand_2.pdbqt
 12 12 0 0 0
SMALL
GASTEIGER

@<TRIPOS>ATOM
      1  C          4.9910    1.7620    0.7300 C.3     1  UNL1        0.1270
      2  C          4.4620    1.0960    1.9330 C.2     1  UNL1        0.3030
      3  O          5.1430    0.1910    2.4720 O.2     1  UNL1       -0.2520
      4  O          3.2410    1.4500    2.4750 O.3     1  UNL1       -0.4810
      5  H          2.4270    0.8100    2.5180 H       1  UNL1        0.2960
      6  C          6.5110    1.7050    0.8170 C.3     1  UNL1        0.0470
      7  C          7.1040    0.9400   -0.2940 C.2     1  UNL1       -0.0470
      8  C          8.4150    1.2230   -0.6570 C.2     1  UNL1        0.0040
      9  C          6.4570   -0.0340   -1.0090 C.2     1  UNL1        0.0040
     10  C          9.0080    0.5250   -1.7070 C.2     1  UNL1        0.0000
     11  C          7.0170   -0.7430   -2.0530 C.2     1  UNL1        0.0000
     12  C          8.3210   -0.4390   -2.3920 C.2     1  UNL1        0.0000
@<TRIPOS>BOND
     1    12    11    2
     2    12    10    1
     3    11     9    1
     4    10     8    2
     5     9     7    2
     6     8     7    1
     7     7     6    1
     8     1     6    1
     9     1     2    1
    10     2     3    2
    11     2     4    1
    12     4     5    1
