@<TRIPOS>MOLECULE
/home/cewinharhar/GITHUB/reincatalyze/data/processed/docking_pred/2023-Apr-25-1829_maxeplen10_maxtrainstep200_exh32_gamma099_lrac3e-4_lrcr1e-3/0c0669ff2f8dcec30d9aff9f411b757c1c1ac29f_ligand_2.pdbqt
 12 12 0 0 0
SMALL
GASTEIGER

@<TRIPOS>ATOM
      1  C          8.2920    0.1190   -2.1810 C.3     1  UNL1        0.1270
      2  C          9.4020    0.3380   -1.2370 C.2     1  UNL1        0.3030
      3  O          9.4780   -0.3840   -0.2150 O.2     1  UNL1       -0.2520
      4  O         10.3530    1.3150   -1.4590 O.3     1  UNL1       -0.4810
      5  H         10.4550    1.8220   -2.3570 H       1  UNL1        0.2960
      6  C          7.2140   -0.6580   -1.4340 C.3     1  UNL1        0.0470
      7  C          6.3990    0.2130   -0.5690 C.2     1  UNL1       -0.0470
      8  C          6.1550   -0.2030    0.7340 C.2     1  UNL1        0.0040
      9  C          5.8530    1.4100   -0.9520 C.2     1  UNL1        0.0040
     10  C          5.3840    0.5900    1.5810 C.2     1  UNL1        0.0000
     11  C          5.0850    2.2190   -0.1380 C.2     1  UNL1        0.0000
     12  C          4.8590    1.7780    1.1520 C.2     1  UNL1        0.0000
@<TRIPOS>BOND
     1     5     4    1
     2     1     6    1
     3     1     2    1
     4     4     2    1
     5     6     7    1
     6     2     3    2
     7     9     7    2
     8     9    11    1
     9     7     8    1
    10    11    12    2
    11     8    10    2
    12    12    10    1
