@<TRIPOS>MOLECULE
/home/cewinharhar/GITHUB/reincatalyze/data/processed/docking_pred/2023-Apr-25-1829_maxeplen10_maxtrainstep200_exh32_gamma099_lrac3e-4_lrcr1e-3/0c0669ff2f8dcec30d9aff9f411b757c1c1ac29f_ligand_2.pdbqt
 12 12 0 0 0
SMALL
GASTEIGER

@<TRIPOS>ATOM
      1  C          8.4390   -0.5800   -2.2280 C.3     1  UNL1        0.1270
      2  C          8.4720   -1.8770   -2.9270 C.2     1  UNL1        0.3030
      3  O          9.5760   -2.4500   -3.0870 O.2     1  UNL1       -0.2520
      4  O          7.3180   -2.4670   -3.4030 O.3     1  UNL1       -0.4810
      5  H          6.5440   -2.7890   -2.7920 H       1  UNL1        0.2960
      6  C          6.9880   -0.1140   -2.2160 C.3     1  UNL1        0.0470
      7  C          6.4790    0.0870   -0.8480 C.2     1  UNL1       -0.0470
      8  C          6.6010   -0.9620    0.0550 C.2     1  UNL1        0.0040
      9  C          5.8850    1.2360   -0.3920 C.2     1  UNL1        0.0040
     10  C          6.1260   -0.8120    1.3570 C.2     1  UNL1        0.0000
     11  C          5.4060    1.4150    0.8900 C.2     1  UNL1        0.0000
     12  C          5.5390    0.3550    1.7650 C.2     1  UNL1        0.0000
@<TRIPOS>BOND
     1     4     2    1
     2     4     5    1
     3     3     2    2
     4     2     1    1
     5     1     6    1
     6     6     7    1
     7     7     9    2
     8     7     8    1
     9     9    11    1
    10     8    10    2
    11    11    12    2
    12    10    12    1
