MODEL 1
REMARK VINA RESULT:      -7.3      0.000      0.000
REMARK SMILES O=C(O)CCc1ccccc1
REMARK SMILES IDX 4 1 2 2 1 3 3 4 5 6 6 7 7 8 11 9 8 10 10 11 9 12
REMARK H PARENT 3 5
REMARK Flexibility Score: inf
ROOT
ATOM      1  C   UNL     1       8.471  -0.616  -2.180  1.00  0.00     0.127 C 
ENDROOT
BRANCH   1   2
ATOM      2  C   UNL     1       8.476  -1.891  -2.918  1.00  0.00     0.303 C 
ATOM      3  O   UNL     1       9.564  -2.490  -3.084  1.00  0.00    -0.252 OA
BRANCH   2   4
ATOM      4  O   UNL     1       7.310  -2.433  -3.425  1.00  0.00    -0.481 OA
ATOM      5  H   UNL     1       6.653  -1.911  -4.034  1.00  0.00     0.296 HD
ENDBRANCH   2   4
ENDBRANCH   1   2
BRANCH   1   6
ATOM      6  C   UNL     1       7.032  -0.112  -2.163  1.00  0.00     0.047 C 
BRANCH   6   7
ATOM      7  C   UNL     1       6.501   0.007  -0.794  1.00  0.00    -0.047 A 
ATOM      8  C   UNL     1       5.862   1.190  -0.442  1.00  0.00     0.004 A 
ATOM      9  C   UNL     1       6.591  -0.963   0.170  1.00  0.00     0.004 A 
ATOM     10  C   UNL     1       5.352   1.343   0.846  1.00  0.00     0.000 A 
ATOM     11  C   UNL     1       6.096  -0.842   1.453  1.00  0.00     0.000 A 
ATOM     12  C   UNL     1       5.467   0.345   1.775  1.00  0.00     0.000 A 
ENDBRANCH   6   7
ENDBRANCH   1   6
TORSDOF 4
ENDMDL
MODEL 2
REMARK VINA RESULT:      -7.3      0.079      1.430
REMARK SMILES O=C(O)CCc1ccccc1
REMARK SMILES IDX 4 1 2 2 1 3 3 4 5 6 6 7 7 8 11 9 8 10 10 11 9 12
REMARK H PARENT 3 5
REMARK Flexibility Score: inf
ROOT
ATOM      1  C   UNL     1       8.439  -0.580  -2.228  1.00  0.00     0.127 C 
ENDROOT
BRANCH   1   2
ATOM      2  C   UNL     1       8.472  -1.877  -2.927  1.00  0.00     0.303 C 
ATOM      3  O   UNL     1       9.576  -2.450  -3.087  1.00  0.00    -0.252 OA
BRANCH   2   4
ATOM      4  O   UNL     1       7.318  -2.467  -3.403  1.00  0.00    -0.481 OA
ATOM      5  H   UNL     1       6.544  -2.789  -2.792  1.00  0.00     0.296 HD
ENDBRANCH   2   4
ENDBRANCH   1   2
BRANCH   1   6
ATOM      6  C   UNL     1       6.988  -0.114  -2.216  1.00  0.00     0.047 C 
BRANCH   6   7
ATOM      7  C   UNL     1       6.479   0.087  -0.848  1.00  0.00    -0.047 A 
ATOM      8  C   UNL     1       6.601  -0.962   0.055  1.00  0.00     0.004 A 
ATOM      9  C   UNL     1       5.885   1.236  -0.392  1.00  0.00     0.004 A 
ATOM     10  C   UNL     1       6.126  -0.812   1.357  1.00  0.00     0.000 A 
ATOM     11  C   UNL     1       5.406   1.415   0.890  1.00  0.00     0.000 A 
ATOM     12  C   UNL     1       5.539   0.355   1.765  1.00  0.00     0.000 A 
ENDBRANCH   6   7
ENDBRANCH   1   6
TORSDOF 4
ENDMDL
MODEL 3
REMARK VINA RESULT:      -6.8      3.374      5.058
REMARK SMILES O=C(O)CCc1ccccc1
REMARK SMILES IDX 4 1 2 2 1 3 3 4 5 6 6 7 7 8 11 9 8 10 10 11 9 12
REMARK H PARENT 3 5
REMARK Flexibility Score: inf
ROOT
ATOM      1  C   UNL     1       4.991   1.762   0.730  1.00  0.00     0.127 C 
ENDROOT
BRANCH   1   2
ATOM      2  C   UNL     1       4.462   1.096   1.933  1.00  0.00     0.303 C 
ATOM      3  O   UNL     1       5.143   0.191   2.472  1.00  0.00    -0.252 OA
BRANCH   2   4
ATOM      4  O   UNL     1       3.241   1.450   2.475  1.00  0.00    -0.481 OA
ATOM      5  H   UNL     1       2.427   0.810   2.518  1.00  0.00     0.296 HD
ENDBRANCH   2   4
ENDBRANCH   1   2
BRANCH   1   6
ATOM      6  C   UNL     1       6.511   1.705   0.817  1.00  0.00     0.047 C 
BRANCH   6   7
ATOM      7  C   UNL     1       7.104   0.940  -0.294  1.00  0.00    -0.047 A 
ATOM      8  C   UNL     1       8.415   1.223  -0.657  1.00  0.00     0.004 A 
ATOM      9  C   UNL     1       6.457  -0.034  -1.009  1.00  0.00     0.004 A 
ATOM     10  C   UNL     1       9.008   0.525  -1.707  1.00  0.00     0.000 A 
ATOM     11  C   UNL     1       7.017  -0.743  -2.053  1.00  0.00     0.000 A 
ATOM     12  C   UNL     1       8.321  -0.439  -2.392  1.00  0.00     0.000 A 
ENDBRANCH   6   7
ENDBRANCH   1   6
TORSDOF 4
ENDMDL
MODEL 4
REMARK VINA RESULT:      -6.6      1.930      2.658
REMARK SMILES O=C(O)CCc1ccccc1
REMARK SMILES IDX 4 1 2 2 1 3 3 4 5 6 6 7 7 8 11 9 8 10 10 11 9 12
REMARK H PARENT 3 5
REMARK Flexibility Score: inf
ROOT
ATOM      1  C   UNL     1       8.292   0.119  -2.181  1.00  0.00     0.127 C 
ENDROOT
BRANCH   1   2
ATOM      2  C   UNL     1       9.402   0.338  -1.237  1.00  0.00     0.303 C 
ATOM      3  O   UNL     1       9.478  -0.384  -0.215  1.00  0.00    -0.252 OA
BRANCH   2   4
ATOM      4  O   UNL     1      10.353   1.315  -1.459  1.00  0.00    -0.481 OA
ATOM      5  H   UNL     1      10.455   1.822  -2.357  1.00  0.00     0.296 HD
ENDBRANCH   2   4
ENDBRANCH   1   2
BRANCH   1   6
ATOM      6  C   UNL     1       7.214  -0.658  -1.434  1.00  0.00     0.047 C 
BRANCH   6   7
ATOM      7  C   UNL     1       6.399   0.213  -0.569  1.00  0.00    -0.047 A 
ATOM      8  C   UNL     1       6.155  -0.203   0.734  1.00  0.00     0.004 A 
ATOM      9  C   UNL     1       5.853   1.410  -0.952  1.00  0.00     0.004 A 
ATOM     10  C   UNL     1       5.384   0.590   1.581  1.00  0.00     0.000 A 
ATOM     11  C   UNL     1       5.085   2.219  -0.138  1.00  0.00     0.000 A 
ATOM     12  C   UNL     1       4.859   1.778   1.152  1.00  0.00     0.000 A 
ENDBRANCH   6   7
ENDBRANCH   1   6
TORSDOF 4
ENDMDL
MODEL 5
REMARK VINA RESULT:      -6.5      2.020      2.862
REMARK SMILES O=C(O)CCc1ccccc1
REMARK SMILES IDX 4 1 2 2 1 3 3 4 5 6 6 7 7 8 11 9 8 10 10 11 9 12
REMARK H PARENT 3 5
REMARK Flexibility Score: inf
ROOT
ATOM      1  C   UNL     1       7.941  -2.317   0.791  1.00  0.00     0.127 C 
ENDROOT
BRANCH   1   2
ATOM      2  C   UNL     1       8.792  -3.400   0.266  1.00  0.00     0.303 C 
ATOM      3  O   UNL     1       8.662  -3.743  -0.933  1.00  0.00    -0.252 OA
BRANCH   2   4
ATOM      4  O   UNL     1       9.723  -4.035   1.064  1.00  0.00    -0.481 OA
ATOM      5  H   UNL     1      10.736  -4.072   0.845  1.00  0.00     0.296 HD
ENDBRANCH   2   4
ENDBRANCH   1   2
BRANCH   1   6
ATOM      6  C   UNL     1       7.464  -1.501  -0.405  1.00  0.00     0.047 C 
BRANCH   6   7
ATOM      7  C   UNL     1       6.614  -0.368  -0.000  1.00  0.00    -0.047 A 
ATOM      8  C   UNL     1       6.080  -0.376   1.283  1.00  0.00     0.004 A 
ATOM      9  C   UNL     1       6.300   0.702  -0.798  1.00  0.00     0.004 A 
ATOM     10  C   UNL     1       5.266   0.676   1.700  1.00  0.00     0.000 A 
ATOM     11  C   UNL     1       5.497   1.758  -0.415  1.00  0.00     0.000 A 
ATOM     12  C   UNL     1       4.980   1.722   0.866  1.00  0.00     0.000 A 
ENDBRANCH   6   7
ENDBRANCH   1   6
TORSDOF 4
ENDMDL
