@<TRIPOS>MOLECULE
/home/cewinharhar/GITHUB/reincatalyze/data/processed/docking_pred/2023-Apr-25-1829_maxeplen10_maxtrainstep200_exh32_gamma099_lrac3e-4_lrcr1e-3/0c0669ff2f8dcec30d9aff9f411b757c1c1ac29f_ligand_2.pdbqt
 12 12 0 0 0
SMALL
GASTEIGER

@<TRIPOS>ATOM
      1  C          8.4710   -0.6160   -2.1800 C.3     1  UNL1        0.1270
      2  C          8.4760   -1.8910   -2.9180 C.2     1  UNL1        0.3030
      3  O          9.5640   -2.4900   -3.0840 O.2     1  UNL1       -0.2520
      4  O          7.3100   -2.4330   -3.4250 O.3     1  UNL1       -0.4810
      5  H          6.6530   -1.9110   -4.0340 H       1  UNL1        0.2960
      6  C          7.0320   -0.1120   -2.1630 C.3     1  UNL1        0.0470
      7  C          6.5010    0.0070   -0.7940 C.2     1  UNL1       -0.0470
      8  C          5.8620    1.1900   -0.4420 C.2     1  UNL1        0.0040
      9  C          6.5910   -0.9630    0.1700 C.2     1  UNL1        0.0040
     10  C          5.3520    1.3430    0.8460 C.2     1  UNL1        0.0000
     11  C          6.0960   -0.8420    1.4530 C.2     1  UNL1        0.0000
     12  C          5.4670    0.3450    1.7750 C.2     1  UNL1        0.0000
@<TRIPOS>BOND
     1     5     4    1
     2     4     2    1
     3     3     2    2
     4     2     1    1
     5     1     6    1
     6     6     7    1
     7     7     8    2
     8     7     9    1
     9     8    10    1
    10     9    11    2
    11    10    12    2
    12    11    12    1
