@<TRIPOS>MOLECULE
/home/cewinharhar/GITHUB/reincatalyze/data/processed/docking_pred/2023-Apr-25-1829_maxeplen10_maxtrainstep200_exh32_gamma099_lrac3e-4_lrcr1e-3/0df60b8790b800bbceb9ee276e91b409308b6f54_ligand_2.pdbqt
 12 12 0 0 0
SMALL
GASTEIGER

@<TRIPOS>ATOM
      1  C          4.9830    1.7690    0.7230 C.3     1  UNL1        0.1270
      2  C          4.5440    1.0610    1.9380 C.2     1  UNL1        0.3030
      3  O          3.4260    1.3420    2.4310 O.2     1  UNL1       -0.2520
      4  O          5.3360    0.1010    2.5370 O.3     1  UNL1       -0.4810
      5  H          6.1510   -0.3410    2.0730 H       1  UNL1        0.2960
      6  C          6.5020    1.8740    0.7890 C.3     1  UNL1        0.0470
      7  C          7.1580    1.1420   -0.3100 C.2     1  UNL1       -0.0470
      8  C          6.3760    0.3050   -1.0960 C.2     1  UNL1        0.0040
      9  C          8.4920    1.2190   -0.6170 C.2     1  UNL1        0.0040
     10  C          6.9620   -0.4090   -2.1400 C.2     1  UNL1        0.0000
     11  C          9.1010    0.5260   -1.6450 C.2     1  UNL1        0.0000
     12  C          8.2990   -0.3000   -2.4080 C.2     1  UNL1        0.0000
@<TRIPOS>BOND
     1    12    10    2
     2    12    11    1
     3    10     8    1
     4    11     9    2
     5     8     7    2
     6     9     7    1
     7     7     6    1
     8     1     6    1
     9     1     2    1
    10     2     3    2
    11     2     4    1
    12     5     4    1
