@<TRIPOS>MOLECULE
/home/cewinharhar/GITHUB/reincatalyze/data/processed/docking_pred/2023-Apr-25-1829_maxeplen10_maxtrainstep200_exh32_gamma099_lrac3e-4_lrcr1e-3/0df60b8790b800bbceb9ee276e91b409308b6f54_ligand_2.pdbqt
 12 12 0 0 0
SMALL
GASTEIGER

@<TRIPOS>ATOM
      1  C          5.0180    1.7880    0.7360 C.3     1  UNL1        0.1270
      2  C          4.4780    1.1170    1.9310 C.2     1  UNL1        0.3030
      3  O          5.1560    0.2160    2.4780 O.2     1  UNL1       -0.2520
      4  O          3.2470    1.4620    2.4570 O.3     1  UNL1       -0.4810
      5  H          2.7390    0.8850    3.1520 H       1  UNL1        0.2960
      6  C          6.5370    1.7030    0.8230 C.3     1  UNL1        0.0470
      7  C          7.1160    0.9420   -0.2990 C.2     1  UNL1       -0.0470
      8  C          8.4250    1.2200   -0.6710 C.2     1  UNL1        0.0040
      9  C          6.4570   -0.0240   -1.0150 C.2     1  UNL1        0.0040
     10  C          9.0050    0.5260   -1.7310 C.2     1  UNL1        0.0000
     11  C          7.0040   -0.7290   -2.0680 C.2     1  UNL1        0.0000
     12  C          8.3060   -0.4300   -2.4160 C.2     1  UNL1        0.0000
@<TRIPOS>BOND
     1    12    11    2
     2    12    10    1
     3    11     9    1
     4    10     8    2
     5     9     7    2
     6     8     7    1
     7     7     6    1
     8     1     6    1
     9     1     2    1
    10     2     4    1
    11     2     3    2
    12     4     5    1
