@<TRIPOS>MOLECULE
/home/cewinharhar/GITHUB/reincatalyze/data/processed/docking_pred/2023-Apr-25-1829_maxeplen10_maxtrainstep200_exh32_gamma099_lrac3e-4_lrcr1e-3/0df60b8790b800bbceb9ee276e91b409308b6f54_ligand_2.pdbqt
 12 12 0 0 0
SMALL
GASTEIGER

@<TRIPOS>ATOM
      1  C          8.2800    0.1560   -2.1490 C.3     1  UNL1        0.1270
      2  C          9.4050    0.3490   -1.2170 C.2     1  UNL1        0.3030
      3  O          9.4850   -0.3860   -0.2040 O.2     1  UNL1       -0.2520
      4  O         10.3650    1.3180   -1.4380 O.3     1  UNL1       -0.4810
      5  H         10.1550    2.3320   -1.4870 H       1  UNL1        0.2960
      6  C          7.2120   -0.6360   -1.4040 C.3     1  UNL1        0.0470
      7  C          6.3890    0.2230   -0.5340 C.2     1  UNL1       -0.0470
      8  C          6.1390   -0.2090    0.7630 C.2     1  UNL1        0.0040
      9  C          5.8410    1.4230   -0.9070 C.2     1  UNL1        0.0040
     10  C          5.3600    0.5720    1.6140 C.2     1  UNL1        0.0000
     11  C          5.0660    2.2200   -0.0880 C.2     1  UNL1        0.0000
     12  C          4.8340    1.7640    1.1950 C.2     1  UNL1        0.0000
@<TRIPOS>BOND
     1     1     6    1
     2     1     2    1
     3     5     4    1
     4     4     2    1
     5     6     7    1
     6     2     3    2
     7     9     7    2
     8     9    11    1
     9     7     8    1
    10    11    12    2
    11     8    10    2
    12    12    10    1
