MODEL 1
REMARK VINA RESULT:      -7.3      0.000      0.000
REMARK SMILES O=C(O)CCc1ccccc1
REMARK SMILES IDX 4 1 2 2 1 3 3 4 5 6 6 7 7 8 11 9 8 10 10 11 9 12
REMARK H PARENT 3 5
REMARK Flexibility Score: inf
ROOT
ATOM      1  C   UNL     1       8.463  -0.572  -2.242  1.00  0.00     0.127 C 
ENDROOT
BRANCH   1   2
ATOM      2  C   UNL     1       8.475  -1.883  -2.915  1.00  0.00     0.303 C 
ATOM      3  O   UNL     1       9.565  -2.489  -3.041  1.00  0.00    -0.252 OA
BRANCH   2   4
ATOM      4  O   UNL     1       7.314  -2.453  -3.402  1.00  0.00    -0.481 OA
ATOM      5  H   UNL     1       6.840  -3.259  -2.955  1.00  0.00     0.296 HD
ENDBRANCH   2   4
ENDBRANCH   1   2
BRANCH   1   6
ATOM      6  C   UNL     1       7.013  -0.104  -2.199  1.00  0.00     0.047 C 
BRANCH   6   7
ATOM      7  C   UNL     1       6.504   0.000  -0.820  1.00  0.00    -0.047 A 
ATOM      8  C   UNL     1       5.886   1.186  -0.439  1.00  0.00     0.004 A 
ATOM      9  C   UNL     1       6.597  -0.986   0.128  1.00  0.00     0.004 A 
ATOM     10  C   UNL     1       5.398   1.325   0.859  1.00  0.00     0.000 A 
ATOM     11  C   UNL     1       6.123  -0.879   1.420  1.00  0.00     0.000 A 
ATOM     12  C   UNL     1       5.515   0.311   1.770  1.00  0.00     0.000 A 
ENDBRANCH   6   7
ENDBRANCH   1   6
TORSDOF 4
ENDMDL
MODEL 2
REMARK VINA RESULT:      -7.3      0.215      1.736
REMARK SMILES O=C(O)CCc1ccccc1
REMARK SMILES IDX 4 1 2 2 1 3 3 4 5 6 6 7 7 8 11 9 8 10 10 11 9 12
REMARK H PARENT 3 5
REMARK Flexibility Score: inf
ROOT
ATOM      1  C   UNL     1       8.423  -0.697  -2.052  1.00  0.00     0.127 C 
ENDROOT
BRANCH   1   2
ATOM      2  C   UNL     1       8.398  -1.924  -2.868  1.00  0.00     0.303 C 
ATOM      3  O   UNL     1       7.290  -2.399  -3.213  1.00  0.00    -0.252 OA
BRANCH   2   4
ATOM      4  O   UNL     1       9.564  -2.554  -3.258  1.00  0.00    -0.481 OA
ATOM      5  H   UNL     1       9.899  -2.583  -4.239  1.00  0.00     0.296 HD
ENDBRANCH   2   4
ENDBRANCH   1   2
BRANCH   1   6
ATOM      6  C   UNL     1       7.038  -0.068  -2.146  1.00  0.00     0.047 C 
BRANCH   6   7
ATOM      7  C   UNL     1       6.449   0.179  -0.818  1.00  0.00    -0.047 A 
ATOM      8  C   UNL     1       6.604  -0.798   0.157  1.00  0.00     0.004 A 
ATOM      9  C   UNL     1       5.747   1.303  -0.467  1.00  0.00     0.004 A 
ATOM     10  C   UNL     1       6.055  -0.605   1.424  1.00  0.00     0.000 A 
ATOM     11  C   UNL     1       5.192   1.524   0.778  1.00  0.00     0.000 A 
ATOM     12  C   UNL     1       5.362   0.535   1.727  1.00  0.00     0.000 A 
ENDBRANCH   6   7
ENDBRANCH   1   6
TORSDOF 4
ENDMDL
MODEL 3
REMARK VINA RESULT:      -6.8      3.373      5.048
REMARK SMILES O=C(O)CCc1ccccc1
REMARK SMILES IDX 4 1 2 2 1 3 3 4 5 6 6 7 7 8 11 9 8 10 10 11 9 12
REMARK H PARENT 3 5
REMARK Flexibility Score: inf
ROOT
ATOM      1  C   UNL     1       5.018   1.788   0.736  1.00  0.00     0.127 C 
ENDROOT
BRANCH   1   2
ATOM      2  C   UNL     1       4.478   1.117   1.931  1.00  0.00     0.303 C 
ATOM      3  O   UNL     1       5.156   0.216   2.478  1.00  0.00    -0.252 OA
BRANCH   2   4
ATOM      4  O   UNL     1       3.247   1.462   2.457  1.00  0.00    -0.481 OA
ATOM      5  H   UNL     1       2.739   0.885   3.152  1.00  0.00     0.296 HD
ENDBRANCH   2   4
ENDBRANCH   1   2
BRANCH   1   6
ATOM      6  C   UNL     1       6.537   1.703   0.823  1.00  0.00     0.047 C 
BRANCH   6   7
ATOM      7  C   UNL     1       7.116   0.942  -0.299  1.00  0.00    -0.047 A 
ATOM      8  C   UNL     1       8.425   1.220  -0.671  1.00  0.00     0.004 A 
ATOM      9  C   UNL     1       6.457  -0.024  -1.015  1.00  0.00     0.004 A 
ATOM     10  C   UNL     1       9.005   0.526  -1.731  1.00  0.00     0.000 A 
ATOM     11  C   UNL     1       7.004  -0.729  -2.068  1.00  0.00     0.000 A 
ATOM     12  C   UNL     1       8.306  -0.430  -2.416  1.00  0.00     0.000 A 
ENDBRANCH   6   7
ENDBRANCH   1   6
TORSDOF 4
ENDMDL
MODEL 4
REMARK VINA RESULT:      -6.6      1.937      2.666
REMARK SMILES O=C(O)CCc1ccccc1
REMARK SMILES IDX 4 1 2 2 1 3 3 4 5 6 6 7 7 8 11 9 8 10 10 11 9 12
REMARK H PARENT 3 5
REMARK Flexibility Score: inf
ROOT
ATOM      1  C   UNL     1       8.280   0.156  -2.149  1.00  0.00     0.127 C 
ENDROOT
BRANCH   1   2
ATOM      2  C   UNL     1       9.405   0.349  -1.217  1.00  0.00     0.303 C 
ATOM      3  O   UNL     1       9.485  -0.386  -0.204  1.00  0.00    -0.252 OA
BRANCH   2   4
ATOM      4  O   UNL     1      10.365   1.318  -1.438  1.00  0.00    -0.481 OA
ATOM      5  H   UNL     1      10.155   2.332  -1.487  1.00  0.00     0.296 HD
ENDBRANCH   2   4
ENDBRANCH   1   2
BRANCH   1   6
ATOM      6  C   UNL     1       7.212  -0.636  -1.404  1.00  0.00     0.047 C 
BRANCH   6   7
ATOM      7  C   UNL     1       6.389   0.223  -0.534  1.00  0.00    -0.047 A 
ATOM      8  C   UNL     1       6.139  -0.209   0.763  1.00  0.00     0.004 A 
ATOM      9  C   UNL     1       5.841   1.423  -0.907  1.00  0.00     0.004 A 
ATOM     10  C   UNL     1       5.360   0.572   1.614  1.00  0.00     0.000 A 
ATOM     11  C   UNL     1       5.066   2.220  -0.088  1.00  0.00     0.000 A 
ATOM     12  C   UNL     1       4.834   1.764   1.195  1.00  0.00     0.000 A 
ENDBRANCH   6   7
ENDBRANCH   1   6
TORSDOF 4
ENDMDL
MODEL 5
REMARK VINA RESULT:      -6.6      3.333      5.116
REMARK SMILES O=C(O)CCc1ccccc1
REMARK SMILES IDX 4 1 2 2 1 3 3 4 5 6 6 7 7 8 11 9 8 10 10 11 9 12
REMARK H PARENT 3 5
REMARK Flexibility Score: inf
ROOT
ATOM      1  C   UNL     1       4.983   1.769   0.723  1.00  0.00     0.127 C 
ENDROOT
BRANCH   1   2
ATOM      2  C   UNL     1       4.544   1.061   1.938  1.00  0.00     0.303 C 
ATOM      3  O   UNL     1       3.426   1.342   2.431  1.00  0.00    -0.252 OA
BRANCH   2   4
ATOM      4  O   UNL     1       5.336   0.101   2.537  1.00  0.00    -0.481 OA
ATOM      5  H   UNL     1       6.151  -0.341   2.073  1.00  0.00     0.296 HD
ENDBRANCH   2   4
ENDBRANCH   1   2
BRANCH   1   6
ATOM      6  C   UNL     1       6.502   1.874   0.789  1.00  0.00     0.047 C 
BRANCH   6   7
ATOM      7  C   UNL     1       7.158   1.142  -0.310  1.00  0.00    -0.047 A 
ATOM      8  C   UNL     1       6.376   0.305  -1.096  1.00  0.00     0.004 A 
ATOM      9  C   UNL     1       8.492   1.219  -0.617  1.00  0.00     0.004 A 
ATOM     10  C   UNL     1       6.962  -0.409  -2.140  1.00  0.00     0.000 A 
ATOM     11  C   UNL     1       9.101   0.526  -1.645  1.00  0.00     0.000 A 
ATOM     12  C   UNL     1       8.299  -0.300  -2.408  1.00  0.00     0.000 A 
ENDBRANCH   6   7
ENDBRANCH   1   6
TORSDOF 4
ENDMDL
