@<TRIPOS>MOLECULE
/home/cewinharhar/GITHUB/reincatalyze/data/processed/docking_pred/2023-Apr-25-1829_maxeplen10_maxtrainstep200_exh32_gamma099_lrac3e-4_lrcr1e-3/0df60b8790b800bbceb9ee276e91b409308b6f54_ligand_2.pdbqt
 12 12 0 0 0
SMALL
GASTEIGER

@<TRIPOS>ATOM
      1  C          8.4630   -0.5720   -2.2420 C.3     1  UNL1        0.1270
      2  C          8.4750   -1.8830   -2.9150 C.2     1  UNL1        0.3030
      3  O          9.5650   -2.4890   -3.0410 O.2     1  UNL1       -0.2520
      4  O          7.3140   -2.4530   -3.4020 O.3     1  UNL1       -0.4810
      5  H          6.8400   -3.2590   -2.9550 H       1  UNL1        0.2960
      6  C          7.0130   -0.1040   -2.1990 C.3     1  UNL1        0.0470
      7  C          6.5040    0.0000   -0.8200 C.2     1  UNL1       -0.0470
      8  C          5.8860    1.1860   -0.4390 C.2     1  UNL1        0.0040
      9  C          6.5970   -0.9860    0.1280 C.2     1  UNL1        0.0040
     10  C          5.3980    1.3250    0.8590 C.2     1  UNL1        0.0000
     11  C          6.1230   -0.8790    1.4200 C.2     1  UNL1        0.0000
     12  C          5.5150    0.3110    1.7700 C.2     1  UNL1        0.0000
@<TRIPOS>BOND
     1     4     5    1
     2     4     2    1
     3     3     2    2
     4     2     1    1
     5     1     6    1
     6     6     7    1
     7     7     8    2
     8     7     9    1
     9     8    10    1
    10     9    11    2
    11    10    12    2
    12    11    12    1
