@<TRIPOS>MOLECULE
/home/cewinharhar/GITHUB/reincatalyze/data/processed/docking_pred/2023-Apr-25-1829_maxeplen10_maxtrainstep200_exh32_gamma099_lrac3e-4_lrcr1e-3/0df60b8790b800bbceb9ee276e91b409308b6f54_ligand_2.pdbqt
 12 12 0 0 0
SMALL
GASTEIGER

@<TRIPOS>ATOM
      1  C          8.4230   -0.6970   -2.0520 C.3     1  UNL1        0.1270
      2  C          8.3980   -1.9240   -2.8680 C.2     1  UNL1        0.3030
      3  O          7.2900   -2.3990   -3.2130 O.2     1  UNL1       -0.2520
      4  O          9.5640   -2.5540   -3.2580 O.3     1  UNL1       -0.4810
      5  H          9.8990   -2.5830   -4.2390 H       1  UNL1        0.2960
      6  C          7.0380   -0.0680   -2.1460 C.3     1  UNL1        0.0470
      7  C          6.4490    0.1790   -0.8180 C.2     1  UNL1       -0.0470
      8  C          6.6040   -0.7980    0.1570 C.2     1  UNL1        0.0040
      9  C          5.7470    1.3030   -0.4670 C.2     1  UNL1        0.0040
     10  C          6.0550   -0.6050    1.4240 C.2     1  UNL1        0.0000
     11  C          5.1920    1.5240    0.7780 C.2     1  UNL1        0.0000
     12  C          5.3620    0.5350    1.7270 C.2     1  UNL1        0.0000
@<TRIPOS>BOND
     1     5     4    1
     2     4     2    1
     3     3     2    2
     4     2     1    1
     5     6     1    1
     6     6     7    1
     7     7     9    2
     8     7     8    1
     9     9    11    1
    10     8    10    2
    11    11    12    2
    12    10    12    1
