@<TRIPOS>MOLECULE
/home/cewinharhar/GITHUB/reincatalyze/data/processed/docking_pred/2023-Apr-25-1829_maxeplen10_maxtrainstep200_exh32_gamma099_lrac3e-4_lrcr1e-3/104e94148118840ff9051874ebdd157f969f5898_ligand_2.pdbqt
 12 12 0 0 0
SMALL
GASTEIGER

@<TRIPOS>ATOM
      1  C          8.5690   -0.7020   -2.0580 C.3     1  UNL1        0.1270
      2  C          8.5430   -1.9370   -2.8610 C.2     1  UNL1        0.3030
      3  O          9.6160   -2.5550   -3.0550 O.2     1  UNL1       -0.2520
      4  O          7.3660   -2.4210   -3.3990 O.3     1  UNL1       -0.4810
      5  H          6.8400   -1.9400   -4.1520 H       1  UNL1        0.2960
      6  C          7.1690   -0.1030   -2.1110 C.3     1  UNL1        0.0470
      7  C          6.5660    0.0220   -0.7720 C.2     1  UNL1       -0.0470
      8  C          5.8990    1.2010   -0.4630 C.2     1  UNL1        0.0040
      9  C          6.6160   -0.9400    0.2040 C.2     1  UNL1        0.0040
     10  C          5.3220    1.3590    0.7960 C.2     1  UNL1        0.0000
     11  C          6.0530   -0.8130    1.4580 C.2     1  UNL1        0.0000
     12  C          5.3980    0.3700    1.7380 C.2     1  UNL1        0.0000
@<TRIPOS>BOND
     1     5     4    1
     2     4     2    1
     3     3     2    2
     4     2     1    1
     5     6     1    1
     6     6     7    1
     7     7     8    2
     8     7     9    1
     9     8    10    1
    10     9    11    2
    11    10    12    2
    12    11    12    1
