@<TRIPOS>MOLECULE
/home/cewinharhar/GITHUB/reincatalyze/data/processed/docking_pred/2023-Apr-25-1829_maxeplen10_maxtrainstep200_exh32_gamma099_lrac3e-4_lrcr1e-3/104e94148118840ff9051874ebdd157f969f5898_ligand_2.pdbqt
 12 12 0 0 0
SMALL
GASTEIGER

@<TRIPOS>ATOM
      1  C          8.6870   -0.8490   -1.9480 C.3     1  UNL1        0.1270
      2  C          8.6720   -1.9950   -2.8750 C.2     1  UNL1        0.3030
      3  O          9.7590   -2.5380   -3.1840 O.2     1  UNL1       -0.2520
      4  O          7.4900   -2.4770   -3.4040 O.3     1  UNL1       -0.4810
      5  H          7.3380   -2.6360   -4.4180 H       1  UNL1        0.2960
      6  C          7.3650   -0.1120   -2.1250 C.3     1  UNL1        0.0470
      7  C          6.6740    0.1070   -0.8420 C.2     1  UNL1       -0.0470
      8  C          6.7040   -0.9160    0.0980 C.2     1  UNL1        0.0040
      9  C          5.9930    1.2470   -0.5010 C.2     1  UNL1        0.0040
     10  C          6.0570   -0.7490    1.3210 C.2     1  UNL1        0.0000
     11  C          5.3430    1.4420    0.7010 C.2     1  UNL1        0.0000
     12  C          5.3890    0.4080    1.6160 C.2     1  UNL1        0.0000
@<TRIPOS>BOND
     1     5     4    1
     2     4     2    1
     3     3     2    2
     4     2     1    1
     5     6     1    1
     6     6     7    1
     7     7     9    2
     8     7     8    1
     9     9    11    1
    10     8    10    2
    11    11    12    2
    12    10    12    1
