@<TRIPOS>MOLECULE
/home/cewinharhar/GITHUB/reincatalyze/data/processed/docking_pred/2023-Apr-25-1829_maxeplen10_maxtrainstep200_exh32_gamma099_lrac3e-4_lrcr1e-3/104e94148118840ff9051874ebdd157f969f5898_ligand_2.pdbqt
 12 12 0 0 0
SMALL
GASTEIGER

@<TRIPOS>ATOM
      1  C          8.4460    0.4850   -2.0760 C.3     1  UNL1        0.1270
      2  C          9.6310   -0.0640   -1.3920 C.2     1  UNL1        0.3030
      3  O          9.7110   -1.3030   -1.2220 O.2     1  UNL1       -0.2520
      4  O         10.6460    0.7570   -0.9400 O.3     1  UNL1       -0.4810
      5  H         11.5820    0.8060   -1.3820 H       1  UNL1        0.2960
      6  C          7.2770   -0.4390   -1.7570 C.3     1  UNL1        0.0470
      7  C          6.5370   -0.0060   -0.5590 C.2     1  UNL1       -0.0470
      8  C          6.4750   -0.8780    0.5220 C.2     1  UNL1        0.0040
      9  C          5.8940    1.1970   -0.4250 C.2     1  UNL1        0.0040
     10  C          5.7800   -0.5070    1.6710 C.2     1  UNL1        0.0000
     11  C          5.1980    1.5940    0.7000 C.2     1  UNL1        0.0000
     12  C          5.1530    0.7060    1.7570 C.2     1  UNL1        0.0000
@<TRIPOS>BOND
     1     1     6    1
     2     1     2    1
     3     6     7    1
     4     2     3    2
     5     2     4    1
     6     5     4    1
     7     7     9    2
     8     7     8    1
     9     9    11    1
    10     8    10    2
    11    11    12    2
    12    10    12    1
