@<TRIPOS>MOLECULE
/home/cewinharhar/GITHUB/reincatalyze/data/processed/docking_pred/2023-Apr-25-1829_maxeplen10_maxtrainstep200_exh32_gamma099_lrac3e-4_lrcr1e-3/104e94148118840ff9051874ebdd157f969f5898_ligand_2.pdbqt
 12 12 0 0 0
SMALL
GASTEIGER

@<TRIPOS>ATOM
      1  C          8.7730   -1.3180   -1.4710 C.3     1  UNL1        0.1270
      2  C          8.7620   -2.1480   -2.6890 C.2     1  UNL1        0.3030
      3  O          9.8520   -2.5620   -3.1490 O.2     1  UNL1       -0.2520
      4  O          7.5800   -2.4760   -3.3260 O.3     1  UNL1       -0.4810
      5  H          7.4360   -2.3830   -4.3480 H       1  UNL1        0.2960
      6  C          7.6030   -1.7740   -0.6070 C.3     1  UNL1        0.0470
      7  C          6.7770   -0.6430   -0.1480 C.2     1  UNL1       -0.0470
      8  C          6.5030    0.3770   -1.0520 C.2     1  UNL1        0.0040
      9  C          6.2570   -0.5120    1.1140 C.2     1  UNL1        0.0040
     10  C          5.7310    1.4660   -0.6530 C.2     1  UNL1        0.0000
     11  C          5.4890    0.5540    1.5390 C.2     1  UNL1        0.0000
     12  C          5.2350    1.5520    0.6190 C.2     1  UNL1        0.0000
@<TRIPOS>BOND
     1     5     4    1
     2     4     2    1
     3     3     2    2
     4     2     1    1
     5     1     6    1
     6     8    10    1
     7     8     7    2
     8    10    12    2
     9     6     7    1
    10     7     9    1
    11    12    11    1
    12     9    11    2
