@<TRIPOS>MOLECULE
/home/cewinharhar/GITHUB/reincatalyze/data/processed/docking_pred/2023-Apr-25-1829_maxeplen10_maxtrainstep200_exh32_gamma099_lrac3e-4_lrcr1e-3/104e94148118840ff9051874ebdd157f969f5898_ligand_2.pdbqt
 12 12 0 0 0
SMALL
GASTEIGER

@<TRIPOS>ATOM
      1  C          4.9980    1.7800    0.7460 C.3     1  UNL1        0.1270
      2  C          4.4600    1.1030    1.9390 C.2     1  UNL1        0.3030
      3  O          5.1340    0.1920    2.4730 O.2     1  UNL1       -0.2520
      4  O          3.2350    1.4540    2.4750 O.3     1  UNL1       -0.4810
      5  H          2.9910    2.4200    2.7620 H       1  UNL1        0.2960
      6  C          6.5180    1.7020    0.8340 C.3     1  UNL1        0.0470
      7  C          7.1020    0.9510   -0.2920 C.2     1  UNL1       -0.0470
      8  C          8.4080    1.2420   -0.6640 C.2     1  UNL1        0.0040
      9  C          6.4510   -0.0170   -1.0120 C.2     1  UNL1        0.0040
     10  C          8.9930    0.5580   -1.7280 C.2     1  UNL1        0.0000
     11  C          7.0020   -0.7130   -2.0690 C.2     1  UNL1        0.0000
     12  C          8.3020   -0.4010   -2.4170 C.2     1  UNL1        0.0000
@<TRIPOS>BOND
     1    12    11    2
     2    12    10    1
     3    11     9    1
     4    10     8    2
     5     9     7    2
     6     8     7    1
     7     7     6    1
     8     1     6    1
     9     1     2    1
    10     2     3    2
    11     2     4    1
    12     4     5    1
