MODEL 1
REMARK VINA RESULT:      -7.0      0.000      0.000
REMARK SMILES O=C(O)CCc1ccccc1
REMARK SMILES IDX 4 1 2 2 1 3 3 4 5 6 6 7 7 8 11 9 8 10 10 11 9 12
REMARK H PARENT 3 5
REMARK Flexibility Score: inf
ROOT
ATOM      1  C   UNL     1       8.569  -0.702  -2.058  1.00  0.00     0.127 C 
ENDROOT
BRANCH   1   2
ATOM      2  C   UNL     1       8.543  -1.937  -2.861  1.00  0.00     0.303 C 
ATOM      3  O   UNL     1       9.616  -2.555  -3.055  1.00  0.00    -0.252 OA
BRANCH   2   4
ATOM      4  O   UNL     1       7.366  -2.421  -3.399  1.00  0.00    -0.481 OA
ATOM      5  H   UNL     1       6.840  -1.940  -4.152  1.00  0.00     0.296 HD
ENDBRANCH   2   4
ENDBRANCH   1   2
BRANCH   1   6
ATOM      6  C   UNL     1       7.169  -0.103  -2.111  1.00  0.00     0.047 C 
BRANCH   6   7
ATOM      7  C   UNL     1       6.566   0.022  -0.772  1.00  0.00    -0.047 A 
ATOM      8  C   UNL     1       5.899   1.201  -0.463  1.00  0.00     0.004 A 
ATOM      9  C   UNL     1       6.616  -0.940   0.204  1.00  0.00     0.004 A 
ATOM     10  C   UNL     1       5.322   1.359   0.796  1.00  0.00     0.000 A 
ATOM     11  C   UNL     1       6.053  -0.813   1.458  1.00  0.00     0.000 A 
ATOM     12  C   UNL     1       5.398   0.370   1.738  1.00  0.00     0.000 A 
ENDBRANCH   6   7
ENDBRANCH   1   6
TORSDOF 4
ENDMDL
MODEL 2
REMARK VINA RESULT:      -6.9      0.158      1.438
REMARK SMILES O=C(O)CCc1ccccc1
REMARK SMILES IDX 4 1 2 2 1 3 3 4 5 6 6 7 7 8 11 9 8 10 10 11 9 12
REMARK H PARENT 3 5
REMARK Flexibility Score: inf
ROOT
ATOM      1  C   UNL     1       8.687  -0.849  -1.948  1.00  0.00     0.127 C 
ENDROOT
BRANCH   1   2
ATOM      2  C   UNL     1       8.672  -1.995  -2.875  1.00  0.00     0.303 C 
ATOM      3  O   UNL     1       9.759  -2.538  -3.184  1.00  0.00    -0.252 OA
BRANCH   2   4
ATOM      4  O   UNL     1       7.490  -2.477  -3.404  1.00  0.00    -0.481 OA
ATOM      5  H   UNL     1       7.338  -2.636  -4.418  1.00  0.00     0.296 HD
ENDBRANCH   2   4
ENDBRANCH   1   2
BRANCH   1   6
ATOM      6  C   UNL     1       7.365  -0.112  -2.125  1.00  0.00     0.047 C 
BRANCH   6   7
ATOM      7  C   UNL     1       6.674   0.107  -0.842  1.00  0.00    -0.047 A 
ATOM      8  C   UNL     1       6.704  -0.916   0.098  1.00  0.00     0.004 A 
ATOM      9  C   UNL     1       5.993   1.247  -0.501  1.00  0.00     0.004 A 
ATOM     10  C   UNL     1       6.057  -0.749   1.321  1.00  0.00     0.000 A 
ATOM     11  C   UNL     1       5.343   1.442   0.701  1.00  0.00     0.000 A 
ATOM     12  C   UNL     1       5.389   0.408   1.616  1.00  0.00     0.000 A 
ENDBRANCH   6   7
ENDBRANCH   1   6
TORSDOF 4
ENDMDL
MODEL 3
REMARK VINA RESULT:      -6.7      0.627      1.236
REMARK SMILES O=C(O)CCc1ccccc1
REMARK SMILES IDX 4 1 2 2 1 3 3 4 5 6 6 7 7 8 11 9 8 10 10 11 9 12
REMARK H PARENT 3 5
REMARK Flexibility Score: inf
ROOT
ATOM      1  C   UNL     1       8.773  -1.318  -1.471  1.00  0.00     0.127 C 
ENDROOT
BRANCH   1   2
ATOM      2  C   UNL     1       8.762  -2.148  -2.689  1.00  0.00     0.303 C 
ATOM      3  O   UNL     1       9.852  -2.562  -3.149  1.00  0.00    -0.252 OA
BRANCH   2   4
ATOM      4  O   UNL     1       7.580  -2.476  -3.326  1.00  0.00    -0.481 OA
ATOM      5  H   UNL     1       7.436  -2.383  -4.348  1.00  0.00     0.296 HD
ENDBRANCH   2   4
ENDBRANCH   1   2
BRANCH   1   6
ATOM      6  C   UNL     1       7.603  -1.774  -0.607  1.00  0.00     0.047 C 
BRANCH   6   7
ATOM      7  C   UNL     1       6.777  -0.643  -0.148  1.00  0.00    -0.047 A 
ATOM      8  C   UNL     1       6.503   0.377  -1.052  1.00  0.00     0.004 A 
ATOM      9  C   UNL     1       6.257  -0.512   1.114  1.00  0.00     0.004 A 
ATOM     10  C   UNL     1       5.731   1.466  -0.653  1.00  0.00     0.000 A 
ATOM     11  C   UNL     1       5.489   0.554   1.539  1.00  0.00     0.000 A 
ATOM     12  C   UNL     1       5.235   1.552   0.619  1.00  0.00     0.000 A 
ENDBRANCH   6   7
ENDBRANCH   1   6
TORSDOF 4
ENDMDL
MODEL 4
REMARK VINA RESULT:      -6.6      3.372      5.073
REMARK SMILES O=C(O)CCc1ccccc1
REMARK SMILES IDX 4 1 2 2 1 3 3 4 5 6 6 7 7 8 11 9 8 10 10 11 9 12
REMARK H PARENT 3 5
REMARK Flexibility Score: inf
ROOT
ATOM      1  C   UNL     1       4.998   1.780   0.746  1.00  0.00     0.127 C 
ENDROOT
BRANCH   1   2
ATOM      2  C   UNL     1       4.460   1.103   1.939  1.00  0.00     0.303 C 
ATOM      3  O   UNL     1       5.134   0.192   2.473  1.00  0.00    -0.252 OA
BRANCH   2   4
ATOM      4  O   UNL     1       3.235   1.454   2.475  1.00  0.00    -0.481 OA
ATOM      5  H   UNL     1       2.991   2.420   2.762  1.00  0.00     0.296 HD
ENDBRANCH   2   4
ENDBRANCH   1   2
BRANCH   1   6
ATOM      6  C   UNL     1       6.518   1.702   0.834  1.00  0.00     0.047 C 
BRANCH   6   7
ATOM      7  C   UNL     1       7.102   0.951  -0.292  1.00  0.00    -0.047 A 
ATOM      8  C   UNL     1       8.408   1.242  -0.664  1.00  0.00     0.004 A 
ATOM      9  C   UNL     1       6.451  -0.017  -1.012  1.00  0.00     0.004 A 
ATOM     10  C   UNL     1       8.993   0.558  -1.728  1.00  0.00     0.000 A 
ATOM     11  C   UNL     1       7.002  -0.713  -2.069  1.00  0.00     0.000 A 
ATOM     12  C   UNL     1       8.302  -0.401  -2.417  1.00  0.00     0.000 A 
ENDBRANCH   6   7
ENDBRANCH   1   6
TORSDOF 4
ENDMDL
MODEL 5
REMARK VINA RESULT:      -6.5      1.529      2.398
REMARK SMILES O=C(O)CCc1ccccc1
REMARK SMILES IDX 4 1 2 2 1 3 3 4 5 6 6 7 7 8 11 9 8 10 10 11 9 12
REMARK H PARENT 3 5
REMARK Flexibility Score: inf
ROOT
ATOM      1  C   UNL     1       8.446   0.485  -2.076  1.00  0.00     0.127 C 
ENDROOT
BRANCH   1   2
ATOM      2  C   UNL     1       9.631  -0.064  -1.392  1.00  0.00     0.303 C 
ATOM      3  O   UNL     1       9.711  -1.303  -1.222  1.00  0.00    -0.252 OA
BRANCH   2   4
ATOM      4  O   UNL     1      10.646   0.757  -0.940  1.00  0.00    -0.481 OA
ATOM      5  H   UNL     1      11.582   0.806  -1.382  1.00  0.00     0.296 HD
ENDBRANCH   2   4
ENDBRANCH   1   2
BRANCH   1   6
ATOM      6  C   UNL     1       7.277  -0.439  -1.757  1.00  0.00     0.047 C 
BRANCH   6   7
ATOM      7  C   UNL     1       6.537  -0.006  -0.559  1.00  0.00    -0.047 A 
ATOM      8  C   UNL     1       6.475  -0.878   0.522  1.00  0.00     0.004 A 
ATOM      9  C   UNL     1       5.894   1.197  -0.425  1.00  0.00     0.004 A 
ATOM     10  C   UNL     1       5.780  -0.507   1.671  1.00  0.00     0.000 A 
ATOM     11  C   UNL     1       5.198   1.594   0.700  1.00  0.00     0.000 A 
ATOM     12  C   UNL     1       5.153   0.706   1.757  1.00  0.00     0.000 A 
ENDBRANCH   6   7
ENDBRANCH   1   6
TORSDOF 4
ENDMDL
