@<TRIPOS>MOLECULE
/home/cewinharhar/GITHUB/reincatalyze/data/processed/docking_pred/2023-Apr-25-1829_maxeplen10_maxtrainstep200_exh32_gamma099_lrac3e-4_lrcr1e-3/12e5788d749ca0b681d4f032b25b6d257325d045_ligand_2.pdbqt
 12 12 0 0 0
SMALL
GASTEIGER

@<TRIPOS>ATOM
      1  C          5.4800    2.6430    0.1240 C.3     1  UNL1        0.1270
      2  C          6.2120    3.6810    0.8700 C.2     1  UNL1        0.3030
      3  O          6.2870    3.5890    2.1180 O.2     1  UNL1       -0.2520
      4  O          6.8130    4.7440    0.2240 O.3     1  UNL1       -0.4810
      5  H          6.6020    5.0130   -0.7550 H       1  UNL1        0.2960
      6  C          6.0360    1.2950    0.5670 C.3     1  UNL1        0.0470
      7  C          6.9550    0.7170   -0.4300 C.2     1  UNL1       -0.0470
      8  C          6.4960   -0.3410   -1.2050 C.2     1  UNL1        0.0040
      9  C          8.2390    1.1410   -0.6530 C.2     1  UNL1        0.0040
     10  C          7.3380   -0.9180   -2.1550 C.2     1  UNL1        0.0000
     11  C          9.0960    0.5910   -1.5850 C.2     1  UNL1        0.0000
     12  C          8.6130   -0.4600   -2.3400 C.2     1  UNL1        0.0000
@<TRIPOS>BOND
     1    12    10    2
     2    12    11    1
     3    10     8    1
     4    11     9    2
     5     8     7    2
     6     5     4    1
     7     9     7    1
     8     7     6    1
     9     1     6    1
    10     1     2    1
    11     4     2    1
    12     2     3    2
