@<TRIPOS>MOLECULE
/home/cewinharhar/GITHUB/reincatalyze/data/processed/docking_pred/2023-Apr-25-1829_maxeplen10_maxtrainstep200_exh32_gamma099_lrac3e-4_lrcr1e-3/12e5788d749ca0b681d4f032b25b6d257325d045_ligand_2.pdbqt
 12 12 0 0 0
SMALL
GASTEIGER

@<TRIPOS>ATOM
      1  C          4.9780    1.8020    0.6900 C.3     1  UNL1        0.1270
      2  C          4.5700    1.1000    1.9200 C.2     1  UNL1        0.3030
      3  O          3.4410    1.3430    2.4090 O.2     1  UNL1       -0.2520
      4  O          5.4020    0.1870    2.5370 O.3     1  UNL1       -0.4810
      5  H          5.6340   -0.7410    2.1340 H       1  UNL1        0.2960
      6  C          6.5010    1.8760    0.7000 C.3     1  UNL1        0.0470
      7  C          7.1040    1.0500   -0.3600 C.2     1  UNL1       -0.0470
      8  C          8.4600    1.2060   -0.6190 C.2     1  UNL1        0.0040
      9  C          6.4260    0.1340   -1.1240 C.2     1  UNL1        0.0040
     10  C          9.0660    0.4470   -1.6180 C.2     1  UNL1        0.0000
     11  C          6.9980   -0.6320   -2.1200 C.2     1  UNL1        0.0000
     12  C          8.3470   -0.4540   -2.3550 C.2     1  UNL1        0.0000
@<TRIPOS>BOND
     1    12    11    2
     2    12    10    1
     3    11     9    1
     4    10     8    2
     5     9     7    2
     6     8     7    1
     7     7     6    1
     8     1     6    1
     9     1     2    1
    10     2     3    2
    11     2     4    1
    12     5     4    1
