@<TRIPOS>MOLECULE
/home/cewinharhar/GITHUB/reincatalyze/data/processed/docking_pred/2023-Apr-25-1829_maxeplen10_maxtrainstep200_exh32_gamma099_lrac3e-4_lrcr1e-3/12e5788d749ca0b681d4f032b25b6d257325d045_ligand_2.pdbqt
 12 12 0 0 0
SMALL
GASTEIGER

@<TRIPOS>ATOM
      1  C          8.5170   -0.5830   -2.3440 C.3     1  UNL1        0.1270
      2  C          8.4750   -1.9260   -2.9490 C.2     1  UNL1        0.3030
      3  O          7.3610   -2.4510   -3.1820 O.2     1  UNL1       -0.2520
      4  O          9.6340   -2.6100   -3.2640 O.3     1  UNL1       -0.4810
      5  H         10.0940   -2.5630   -4.1920 H       1  UNL1        0.2960
      6  C          7.0750   -0.1070   -2.2110 C.3     1  UNL1        0.0470
      7  C          6.7230    0.2180   -0.8180 C.2     1  UNL1       -0.0470
      8  C          5.7560    1.1910   -0.5980 C.2     1  UNL1        0.0040
      9  C          7.2840   -0.3630    0.2900 C.2     1  UNL1        0.0040
     10  C          5.4010    1.5320    0.7060 C.2     1  UNL1        0.0000
     11  C          6.9540   -0.0490    1.5930 C.2     1  UNL1        0.0000
     12  C          5.9900    0.9230    1.7810 C.2     1  UNL1        0.0000
@<TRIPOS>BOND
     1     5     4    1
     2     4     2    1
     3     3     2    2
     4     2     1    1
     5     1     6    1
     6     6     7    1
     7     7     8    2
     8     7     9    1
     9     8    10    1
    10     9    11    2
    11    10    12    2
    12    11    12    1
