@<TRIPOS>MOLECULE
/home/cewinharhar/GITHUB/reincatalyze/data/processed/docking_pred/2023-Apr-25-1829_maxeplen10_maxtrainstep200_exh32_gamma099_lrac3e-4_lrcr1e-3/12e5788d749ca0b681d4f032b25b6d257325d045_ligand_2.pdbqt
 12 12 0 0 0
SMALL
GASTEIGER

@<TRIPOS>ATOM
      1  C          8.5460   -0.5810   -2.2880 C.3     1  UNL1        0.1270
      2  C          8.5200   -1.8950   -2.9550 C.2     1  UNL1        0.3030
      3  O          9.5980   -2.5170   -3.1090 O.2     1  UNL1       -0.2520
      4  O          7.3390   -2.4490   -3.4090 O.3     1  UNL1       -0.4810
      5  H          6.9160   -3.3060   -3.0060 H       1  UNL1        0.2960
      6  C          7.1090   -0.0760   -2.2380 C.3     1  UNL1        0.0470
      7  C          6.6990    0.2990   -0.8730 C.2     1  UNL1       -0.0470
      8  C          7.3290   -0.3290    0.1940 C.2     1  UNL1        0.0040
      9  C          5.7330    1.2240   -0.5700 C.2     1  UNL1        0.0040
     10  C          6.9640   -0.0060    1.5000 C.2     1  UNL1        0.0000
     11  C          5.3500    1.5660    0.7120 C.2     1  UNL1        0.0000
     12  C          5.9930    0.9240    1.7530 C.2     1  UNL1        0.0000
@<TRIPOS>BOND
     1     4     5    1
     2     4     2    1
     3     3     2    2
     4     2     1    1
     5     1     6    1
     6     6     7    1
     7     7     9    2
     8     7     8    1
     9     9    11    1
    10     8    10    2
    11    11    12    2
    12    10    12    1
