@<TRIPOS>MOLECULE
/home/cewinharhar/GITHUB/reincatalyze/data/processed/docking_pred/2023-Apr-25-1829_maxeplen10_maxtrainstep200_exh32_gamma099_lrac3e-4_lrcr1e-3/12e5788d749ca0b681d4f032b25b6d257325d045_ligand_2.pdbqt
 12 12 0 0 0
SMALL
GASTEIGER

@<TRIPOS>ATOM
      1  C          4.9690    1.8050    0.7030 C.3     1  UNL1        0.1270
      2  C          4.5380    1.1130    1.9300 C.2     1  UNL1        0.3030
      3  O          3.4070    1.3710    2.4050 O.2     1  UNL1       -0.2520
      4  O          5.3520    0.1910    2.5600 O.3     1  UNL1       -0.4810
      5  H          6.3660    0.0950    2.3660 H       1  UNL1        0.2960
      6  C          6.4880    1.9210    0.7630 C.3     1  UNL1        0.0470
      7  C          7.1460    1.1700   -0.3200 C.2     1  UNL1       -0.0470
      8  C          6.3630    0.3310   -1.1030 C.2     1  UNL1        0.0040
      9  C          8.4840    1.2290   -0.6160 C.2     1  UNL1        0.0040
     10  C          6.9510   -0.4010   -2.1340 C.2     1  UNL1        0.0000
     11  C          9.0950    0.5180   -1.6290 C.2     1  UNL1        0.0000
     12  C          8.2910   -0.3090   -2.3900 C.2     1  UNL1        0.0000
@<TRIPOS>BOND
     1    12    10    2
     2    12    11    1
     3    10     8    1
     4    11     9    2
     5     8     7    2
     6     9     7    1
     7     7     6    1
     8     1     6    1
     9     1     2    1
    10     2     3    2
    11     2     4    1
    12     5     4    1
