MODEL 1
REMARK VINA RESULT:      -7.2      0.000      0.000
REMARK SMILES O=C(O)CCc1ccccc1
REMARK SMILES IDX 4 1 2 2 1 3 3 4 5 6 6 7 7 8 11 9 8 10 10 11 9 12
REMARK H PARENT 3 5
REMARK Flexibility Score: inf
ROOT
ATOM      1  C   UNL     1       8.546  -0.581  -2.288  1.00  0.00     0.127 C 
ENDROOT
BRANCH   1   2
ATOM      2  C   UNL     1       8.520  -1.895  -2.955  1.00  0.00     0.303 C 
ATOM      3  O   UNL     1       9.598  -2.517  -3.109  1.00  0.00    -0.252 OA
BRANCH   2   4
ATOM      4  O   UNL     1       7.339  -2.449  -3.409  1.00  0.00    -0.481 OA
ATOM      5  H   UNL     1       6.916  -3.306  -3.006  1.00  0.00     0.296 HD
ENDBRANCH   2   4
ENDBRANCH   1   2
BRANCH   1   6
ATOM      6  C   UNL     1       7.109  -0.076  -2.238  1.00  0.00     0.047 C 
BRANCH   6   7
ATOM      7  C   UNL     1       6.699   0.299  -0.873  1.00  0.00    -0.047 A 
ATOM      8  C   UNL     1       7.329  -0.329   0.194  1.00  0.00     0.004 A 
ATOM      9  C   UNL     1       5.733   1.224  -0.570  1.00  0.00     0.004 A 
ATOM     10  C   UNL     1       6.964  -0.006   1.500  1.00  0.00     0.000 A 
ATOM     11  C   UNL     1       5.350   1.566   0.712  1.00  0.00     0.000 A 
ATOM     12  C   UNL     1       5.993   0.924   1.753  1.00  0.00     0.000 A 
ENDBRANCH   6   7
ENDBRANCH   1   6
TORSDOF 4
ENDMDL
MODEL 2
REMARK VINA RESULT:      -7.1      0.111      1.727
REMARK SMILES O=C(O)CCc1ccccc1
REMARK SMILES IDX 4 1 2 2 1 3 3 4 5 6 6 7 7 8 11 9 8 10 10 11 9 12
REMARK H PARENT 3 5
REMARK Flexibility Score: inf
ROOT
ATOM      1  C   UNL     1       8.517  -0.583  -2.344  1.00  0.00     0.127 C 
ENDROOT
BRANCH   1   2
ATOM      2  C   UNL     1       8.475  -1.926  -2.949  1.00  0.00     0.303 C 
ATOM      3  O   UNL     1       7.361  -2.451  -3.182  1.00  0.00    -0.252 OA
BRANCH   2   4
ATOM      4  O   UNL     1       9.634  -2.610  -3.264  1.00  0.00    -0.481 OA
ATOM      5  H   UNL     1      10.094  -2.563  -4.192  1.00  0.00     0.296 HD
ENDBRANCH   2   4
ENDBRANCH   1   2
BRANCH   1   6
ATOM      6  C   UNL     1       7.075  -0.107  -2.211  1.00  0.00     0.047 C 
BRANCH   6   7
ATOM      7  C   UNL     1       6.723   0.218  -0.818  1.00  0.00    -0.047 A 
ATOM      8  C   UNL     1       5.756   1.191  -0.598  1.00  0.00     0.004 A 
ATOM      9  C   UNL     1       7.284  -0.363   0.290  1.00  0.00     0.004 A 
ATOM     10  C   UNL     1       5.401   1.532   0.706  1.00  0.00     0.000 A 
ATOM     11  C   UNL     1       6.954  -0.049   1.593  1.00  0.00     0.000 A 
ATOM     12  C   UNL     1       5.990   0.923   1.781  1.00  0.00     0.000 A 
ENDBRANCH   6   7
ENDBRANCH   1   6
TORSDOF 4
ENDMDL
MODEL 3
REMARK VINA RESULT:      -6.9      3.330      5.133
REMARK SMILES O=C(O)CCc1ccccc1
REMARK SMILES IDX 4 1 2 2 1 3 3 4 5 6 6 7 7 8 11 9 8 10 10 11 9 12
REMARK H PARENT 3 5
REMARK Flexibility Score: inf
ROOT
ATOM      1  C   UNL     1       4.969   1.805   0.703  1.00  0.00     0.127 C 
ENDROOT
BRANCH   1   2
ATOM      2  C   UNL     1       4.538   1.113   1.930  1.00  0.00     0.303 C 
ATOM      3  O   UNL     1       3.407   1.371   2.405  1.00  0.00    -0.252 OA
BRANCH   2   4
ATOM      4  O   UNL     1       5.352   0.191   2.560  1.00  0.00    -0.481 OA
ATOM      5  H   UNL     1       6.366   0.095   2.366  1.00  0.00     0.296 HD
ENDBRANCH   2   4
ENDBRANCH   1   2
BRANCH   1   6
ATOM      6  C   UNL     1       6.488   1.921   0.763  1.00  0.00     0.047 C 
BRANCH   6   7
ATOM      7  C   UNL     1       7.146   1.170  -0.320  1.00  0.00    -0.047 A 
ATOM      8  C   UNL     1       6.363   0.331  -1.103  1.00  0.00     0.004 A 
ATOM      9  C   UNL     1       8.484   1.229  -0.616  1.00  0.00     0.004 A 
ATOM     10  C   UNL     1       6.951  -0.401  -2.134  1.00  0.00     0.000 A 
ATOM     11  C   UNL     1       9.095   0.518  -1.629  1.00  0.00     0.000 A 
ATOM     12  C   UNL     1       8.291  -0.309  -2.390  1.00  0.00     0.000 A 
ENDBRANCH   6   7
ENDBRANCH   1   6
TORSDOF 4
ENDMDL
MODEL 4
REMARK VINA RESULT:      -6.9      3.309      5.038
REMARK SMILES O=C(O)CCc1ccccc1
REMARK SMILES IDX 4 1 2 2 1 3 3 4 5 6 6 7 7 8 11 9 8 10 10 11 9 12
REMARK H PARENT 3 5
REMARK Flexibility Score: inf
ROOT
ATOM      1  C   UNL     1       4.978   1.802   0.690  1.00  0.00     0.127 C 
ENDROOT
BRANCH   1   2
ATOM      2  C   UNL     1       4.570   1.100   1.920  1.00  0.00     0.303 C 
ATOM      3  O   UNL     1       3.441   1.343   2.409  1.00  0.00    -0.252 OA
BRANCH   2   4
ATOM      4  O   UNL     1       5.402   0.187   2.537  1.00  0.00    -0.481 OA
ATOM      5  H   UNL     1       5.634  -0.741   2.134  1.00  0.00     0.296 HD
ENDBRANCH   2   4
ENDBRANCH   1   2
BRANCH   1   6
ATOM      6  C   UNL     1       6.501   1.876   0.700  1.00  0.00     0.047 C 
BRANCH   6   7
ATOM      7  C   UNL     1       7.104   1.050  -0.360  1.00  0.00    -0.047 A 
ATOM      8  C   UNL     1       8.460   1.206  -0.619  1.00  0.00     0.004 A 
ATOM      9  C   UNL     1       6.426   0.134  -1.124  1.00  0.00     0.004 A 
ATOM     10  C   UNL     1       9.066   0.447  -1.618  1.00  0.00     0.000 A 
ATOM     11  C   UNL     1       6.998  -0.632  -2.120  1.00  0.00     0.000 A 
ATOM     12  C   UNL     1       8.347  -0.454  -2.355  1.00  0.00     0.000 A 
ENDBRANCH   6   7
ENDBRANCH   1   6
TORSDOF 4
ENDMDL
MODEL 5
REMARK VINA RESULT:      -6.6      3.680      5.203
REMARK SMILES O=C(O)CCc1ccccc1
REMARK SMILES IDX 4 1 2 2 1 3 3 4 5 6 6 7 7 8 11 9 8 10 10 11 9 12
REMARK H PARENT 3 5
REMARK Flexibility Score: inf
ROOT
ATOM      1  C   UNL     1       5.480   2.643   0.124  1.00  0.00     0.127 C 
ENDROOT
BRANCH   1   2
ATOM      2  C   UNL     1       6.212   3.681   0.870  1.00  0.00     0.303 C 
ATOM      3  O   UNL     1       6.287   3.589   2.118  1.00  0.00    -0.252 OA
BRANCH   2   4
ATOM      4  O   UNL     1       6.813   4.744   0.224  1.00  0.00    -0.481 OA
ATOM      5  H   UNL     1       6.602   5.013  -0.755  1.00  0.00     0.296 HD
ENDBRANCH   2   4
ENDBRANCH   1   2
BRANCH   1   6
ATOM      6  C   UNL     1       6.036   1.295   0.567  1.00  0.00     0.047 C 
BRANCH   6   7
ATOM      7  C   UNL     1       6.955   0.717  -0.430  1.00  0.00    -0.047 A 
ATOM      8  C   UNL     1       6.496  -0.341  -1.205  1.00  0.00     0.004 A 
ATOM      9  C   UNL     1       8.239   1.141  -0.653  1.00  0.00     0.004 A 
ATOM     10  C   UNL     1       7.338  -0.918  -2.155  1.00  0.00     0.000 A 
ATOM     11  C   UNL     1       9.096   0.591  -1.585  1.00  0.00     0.000 A 
ATOM     12  C   UNL     1       8.613  -0.460  -2.340  1.00  0.00     0.000 A 
ENDBRANCH   6   7
ENDBRANCH   1   6
TORSDOF 4
ENDMDL
