MODEL 1
REMARK VINA RESULT:      -7.2      0.000      0.000
REMARK SMILES O=C(O)CCc1ccccc1
REMARK SMILES IDX 4 1 2 2 1 3 3 4 5 6 6 7 7 8 11 9 8 10 10 11 9 12
REMARK H PARENT 3 5
REMARK Flexibility Score: inf
ROOT
ATOM      1  C   UNL     1       8.438  -0.709  -2.054  1.00  0.00     0.127 C 
ENDROOT
BRANCH   1   2
ATOM      2  C   UNL     1       8.407  -1.937  -2.868  1.00  0.00     0.303 C 
ATOM      3  O   UNL     1       7.297  -2.404  -3.216  1.00  0.00    -0.252 OA
BRANCH   2   4
ATOM      4  O   UNL     1       9.570  -2.576  -3.252  1.00  0.00    -0.481 OA
ATOM      5  H   UNL     1       9.917  -3.448  -2.811  1.00  0.00     0.296 HD
ENDBRANCH   2   4
ENDBRANCH   1   2
BRANCH   1   6
ATOM      6  C   UNL     1       7.053  -0.079  -2.141  1.00  0.00     0.047 C 
BRANCH   6   7
ATOM      7  C   UNL     1       6.466   0.158  -0.810  1.00  0.00    -0.047 A 
ATOM      8  C   UNL     1       6.616  -0.830   0.155  1.00  0.00     0.004 A 
ATOM      9  C   UNL     1       5.772   1.283  -0.447  1.00  0.00     0.004 A 
ATOM     10  C   UNL     1       6.069  -0.646   1.424  1.00  0.00     0.000 A 
ATOM     11  C   UNL     1       5.219   1.495   0.800  1.00  0.00     0.000 A 
ATOM     12  C   UNL     1       5.383   0.495   1.739  1.00  0.00     0.000 A 
ENDBRANCH   6   7
ENDBRANCH   1   6
TORSDOF 4
ENDMDL
MODEL 2
REMARK VINA RESULT:      -7.2      0.160      1.437
REMARK SMILES O=C(O)CCc1ccccc1
REMARK SMILES IDX 4 1 2 2 1 3 3 4 5 6 6 7 7 8 11 9 8 10 10 11 9 12
REMARK H PARENT 3 5
REMARK Flexibility Score: inf
ROOT
ATOM      1  C   UNL     1       8.424  -0.611  -2.166  1.00  0.00     0.127 C 
ENDROOT
BRANCH   1   2
ATOM      2  C   UNL     1       8.394  -1.889  -2.899  1.00  0.00     0.303 C 
ATOM      3  O   UNL     1       7.284  -2.377  -3.218  1.00  0.00    -0.252 OA
BRANCH   2   4
ATOM      4  O   UNL     1       9.557  -2.551  -3.241  1.00  0.00    -0.481 OA
ATOM      5  H   UNL     1       9.635  -3.190  -4.053  1.00  0.00     0.296 HD
ENDBRANCH   2   4
ENDBRANCH   1   2
BRANCH   1   6
ATOM      6  C   UNL     1       6.995  -0.082  -2.126  1.00  0.00     0.047 C 
BRANCH   6   7
ATOM      7  C   UNL     1       6.475   0.012  -0.751  1.00  0.00    -0.047 A 
ATOM      8  C   UNL     1       5.857   1.195  -0.366  1.00  0.00     0.004 A 
ATOM      9  C   UNL     1       6.559  -0.982   0.190  1.00  0.00     0.004 A 
ATOM     10  C   UNL     1       5.358   1.325   0.929  1.00  0.00     0.000 A 
ATOM     11  C   UNL     1       6.074  -0.884   1.479  1.00  0.00     0.000 A 
ATOM     12  C   UNL     1       5.466   0.305   1.834  1.00  0.00     0.000 A 
ENDBRANCH   6   7
ENDBRANCH   1   6
TORSDOF 4
ENDMDL
MODEL 3
REMARK VINA RESULT:      -6.8      3.311      5.164
REMARK SMILES O=C(O)CCc1ccccc1
REMARK SMILES IDX 4 1 2 2 1 3 3 4 5 6 6 7 7 8 11 9 8 10 10 11 9 12
REMARK H PARENT 3 5
REMARK Flexibility Score: inf
ROOT
ATOM      1  C   UNL     1       4.968   1.770   0.713  1.00  0.00     0.127 C 
ENDROOT
BRANCH   1   2
ATOM      2  C   UNL     1       4.456   1.116   1.930  1.00  0.00     0.303 C 
ATOM      3  O   UNL     1       5.152   0.229   2.479  1.00  0.00    -0.252 OA
BRANCH   2   4
ATOM      4  O   UNL     1       3.232   1.460   2.472  1.00  0.00    -0.481 OA
ATOM      5  H   UNL     1       2.337   1.020   2.191  1.00  0.00     0.296 HD
ENDBRANCH   2   4
ENDBRANCH   1   2
BRANCH   1   6
ATOM      6  C   UNL     1       6.487   1.811   0.832  1.00  0.00     0.047 C 
BRANCH   6   7
ATOM      7  C   UNL     1       7.150   1.112  -0.284  1.00  0.00    -0.047 A 
ATOM      8  C   UNL     1       6.381   0.269  -1.077  1.00  0.00     0.004 A 
ATOM      9  C   UNL     1       8.479   1.224  -0.601  1.00  0.00     0.004 A 
ATOM     10  C   UNL     1       6.974  -0.414  -2.137  1.00  0.00     0.000 A 
ATOM     11  C   UNL     1       9.095   0.562  -1.644  1.00  0.00     0.000 A 
ATOM     12  C   UNL     1       8.306  -0.270  -2.414  1.00  0.00     0.000 A 
ENDBRANCH   6   7
ENDBRANCH   1   6
TORSDOF 4
ENDMDL
MODEL 4
REMARK VINA RESULT:      -6.6      3.830      4.951
REMARK SMILES O=C(O)CCc1ccccc1
REMARK SMILES IDX 4 1 2 2 1 3 3 4 5 6 6 7 7 8 11 9 8 10 10 11 9 12
REMARK H PARENT 3 5
REMARK Flexibility Score: inf
ROOT
ATOM      1  C   UNL     1       5.559   2.906  -0.114  1.00  0.00     0.127 C 
ENDROOT
BRANCH   1   2
ATOM      2  C   UNL     1       6.250   3.857   0.774  1.00  0.00     0.303 C 
ATOM      3  O   UNL     1       6.943   4.768   0.264  1.00  0.00    -0.252 OA
BRANCH   2   4
ATOM      4  O   UNL     1       6.148   3.762   2.149  1.00  0.00    -0.481 OA
ATOM      5  H   UNL     1       5.297   3.427   2.638  1.00  0.00     0.296 HD
ENDBRANCH   2   4
ENDBRANCH   1   2
BRANCH   1   6
ATOM      6  C   UNL     1       4.888   1.867   0.776  1.00  0.00     0.047 C 
BRANCH   6   7
ATOM      7  C   UNL     1       5.661   0.615   0.850  1.00  0.00    -0.047 A 
ATOM      8  C   UNL     1       5.731  -0.039   2.074  1.00  0.00     0.004 A 
ATOM      9  C   UNL     1       6.329   0.042  -0.201  1.00  0.00     0.004 A 
ATOM     10  C   UNL     1       6.458  -1.223   2.185  1.00  0.00     0.000 A 
ATOM     11  C   UNL     1       7.057  -1.129  -0.123  1.00  0.00     0.000 A 
ATOM     12  C   UNL     1       7.109  -1.756   1.106  1.00  0.00     0.000 A 
ENDBRANCH   6   7
ENDBRANCH   1   6
TORSDOF 4
ENDMDL
MODEL 5
REMARK VINA RESULT:      -6.6      1.907      2.217
REMARK SMILES O=C(O)CCc1ccccc1
REMARK SMILES IDX 4 1 2 2 1 3 3 4 5 6 6 7 7 8 11 9 8 10 10 11 9 12
REMARK H PARENT 3 5
REMARK Flexibility Score: inf
ROOT
ATOM      1  C   UNL     1       8.219   0.255  -2.255  1.00  0.00     0.127 C 
ENDROOT
BRANCH   1   2
ATOM      2  C   UNL     1       9.328   0.373  -1.292  1.00  0.00     0.303 C 
ATOM      3  O   UNL     1       9.394  -0.444  -0.343  1.00  0.00    -0.252 OA
BRANCH   2   4
ATOM      4  O   UNL     1      10.288   1.358  -1.416  1.00  0.00    -0.481 OA
ATOM      5  H   UNL     1      10.184   2.185  -2.033  1.00  0.00     0.296 HD
ENDBRANCH   2   4
ENDBRANCH   1   2
BRANCH   1   6
ATOM      6  C   UNL     1       7.100  -0.510  -1.559  1.00  0.00     0.047 C 
BRANCH   6   7
ATOM      7  C   UNL     1       6.320   0.349  -0.650  1.00  0.00    -0.047 A 
ATOM      8  C   UNL     1       6.107  -0.098   0.649  1.00  0.00     0.004 A 
ATOM      9  C   UNL     1       5.779   1.562  -0.988  1.00  0.00     0.004 A 
ATOM     10  C   UNL     1       5.369   0.684   1.536  1.00  0.00     0.000 A 
ATOM     11  C   UNL     1       5.044   2.359  -0.133  1.00  0.00     0.000 A 
ATOM     12  C   UNL     1       4.848   1.889   1.151  1.00  0.00     0.000 A 
ENDBRANCH   6   7
ENDBRANCH   1   6
TORSDOF 4
ENDMDL
