@<TRIPOS>MOLECULE
/home/cewinharhar/GITHUB/reincatalyze/data/processed/docking_pred/2023-Apr-25-1829_maxeplen10_maxtrainstep200_exh32_gamma099_lrac3e-4_lrcr1e-3/13c3a96d7f073914410e4f6d6c0e2190084e407e_ligand_2.pdbqt
 12 12 0 0 0
SMALL
GASTEIGER

@<TRIPOS>ATOM
      1  C          8.4380   -0.7090   -2.0540 C.3     1  UNL1        0.1270
      2  C          8.4070   -1.9370   -2.8680 C.2     1  UNL1        0.3030
      3  O          7.2970   -2.4040   -3.2160 O.2     1  UNL1       -0.2520
      4  O          9.5700   -2.5760   -3.2520 O.3     1  UNL1       -0.4810
      5  H          9.9170   -3.4480   -2.8110 H       1  UNL1        0.2960
      6  C          7.0530   -0.0790   -2.1410 C.3     1  UNL1        0.0470
      7  C          6.4660    0.1580   -0.8100 C.2     1  UNL1       -0.0470
      8  C          6.6160   -0.8300    0.1550 C.2     1  UNL1        0.0040
      9  C          5.7720    1.2830   -0.4470 C.2     1  UNL1        0.0040
     10  C          6.0690   -0.6460    1.4240 C.2     1  UNL1        0.0000
     11  C          5.2190    1.4950    0.8000 C.2     1  UNL1        0.0000
     12  C          5.3830    0.4950    1.7390 C.2     1  UNL1        0.0000
@<TRIPOS>BOND
     1     4     2    1
     2     4     5    1
     3     3     2    2
     4     2     1    1
     5     6     1    1
     6     6     7    1
     7     7     9    2
     8     7     8    1
     9     9    11    1
    10     8    10    2
    11    11    12    2
    12    10    12    1
