@<TRIPOS>MOLECULE
/home/cewinharhar/GITHUB/reincatalyze/data/processed/docking_pred/2023-Apr-25-1829_maxeplen10_maxtrainstep200_exh32_gamma099_lrac3e-4_lrcr1e-3/13c3a96d7f073914410e4f6d6c0e2190084e407e_ligand_2.pdbqt
 12 12 0 0 0
SMALL
GASTEIGER

@<TRIPOS>ATOM
      1  C          8.4240   -0.6110   -2.1660 C.3     1  UNL1        0.1270
      2  C          8.3940   -1.8890   -2.8990 C.2     1  UNL1        0.3030
      3  O          7.2840   -2.3770   -3.2180 O.2     1  UNL1       -0.2520
      4  O          9.5570   -2.5510   -3.2410 O.3     1  UNL1       -0.4810
      5  H          9.6350   -3.1900   -4.0530 H       1  UNL1        0.2960
      6  C          6.9950   -0.0820   -2.1260 C.3     1  UNL1        0.0470
      7  C          6.4750    0.0120   -0.7510 C.2     1  UNL1       -0.0470
      8  C          5.8570    1.1950   -0.3660 C.2     1  UNL1        0.0040
      9  C          6.5590   -0.9820    0.1900 C.2     1  UNL1        0.0040
     10  C          5.3580    1.3250    0.9290 C.2     1  UNL1        0.0000
     11  C          6.0740   -0.8840    1.4790 C.2     1  UNL1        0.0000
     12  C          5.4660    0.3050    1.8340 C.2     1  UNL1        0.0000
@<TRIPOS>BOND
     1     5     4    1
     2     4     2    1
     3     3     2    2
     4     2     1    1
     5     1     6    1
     6     6     7    1
     7     7     8    2
     8     7     9    1
     9     8    10    1
    10     9    11    2
    11    10    12    2
    12    11    12    1
