@<TRIPOS>MOLECULE
/home/cewinharhar/GITHUB/reincatalyze/data/processed/docking_pred/2023-Apr-25-1829_maxeplen10_maxtrainstep200_exh32_gamma099_lrac3e-4_lrcr1e-3/13c3a96d7f073914410e4f6d6c0e2190084e407e_ligand_2.pdbqt
 12 12 0 0 0
SMALL
GASTEIGER

@<TRIPOS>ATOM
      1  C          4.9680    1.7700    0.7130 C.3     1  UNL1        0.1270
      2  C          4.4560    1.1160    1.9300 C.2     1  UNL1        0.3030
      3  O          5.1520    0.2290    2.4790 O.2     1  UNL1       -0.2520
      4  O          3.2320    1.4600    2.4720 O.3     1  UNL1       -0.4810
      5  H          2.3370    1.0200    2.1910 H       1  UNL1        0.2960
      6  C          6.4870    1.8110    0.8320 C.3     1  UNL1        0.0470
      7  C          7.1500    1.1120   -0.2840 C.2     1  UNL1       -0.0470
      8  C          6.3810    0.2690   -1.0770 C.2     1  UNL1        0.0040
      9  C          8.4790    1.2240   -0.6010 C.2     1  UNL1        0.0040
     10  C          6.9740   -0.4140   -2.1370 C.2     1  UNL1        0.0000
     11  C          9.0950    0.5620   -1.6440 C.2     1  UNL1        0.0000
     12  C          8.3060   -0.2700   -2.4140 C.2     1  UNL1        0.0000
@<TRIPOS>BOND
     1    12    10    2
     2    12    11    1
     3    10     8    1
     4    11     9    2
     5     8     7    2
     6     9     7    1
     7     7     6    1
     8     1     6    1
     9     1     2    1
    10     2     4    1
    11     2     3    2
    12     5     4    1
