@<TRIPOS>MOLECULE
/home/cewinharhar/GITHUB/reincatalyze/data/processed/docking_pred/2023-Apr-25-1829_maxeplen10_maxtrainstep200_exh32_gamma099_lrac3e-4_lrcr1e-3/13c3a96d7f073914410e4f6d6c0e2190084e407e_ligand_2.pdbqt
 12 12 0 0 0
SMALL
GASTEIGER

@<TRIPOS>ATOM
      1  C          8.2190    0.2550   -2.2550 C.3     1  UNL1        0.1270
      2  C          9.3280    0.3730   -1.2920 C.2     1  UNL1        0.3030
      3  O          9.3940   -0.4440   -0.3430 O.2     1  UNL1       -0.2520
      4  O         10.2880    1.3580   -1.4160 O.3     1  UNL1       -0.4810
      5  H         10.1840    2.1850   -2.0330 H       1  UNL1        0.2960
      6  C          7.1000   -0.5100   -1.5590 C.3     1  UNL1        0.0470
      7  C          6.3200    0.3490   -0.6500 C.2     1  UNL1       -0.0470
      8  C          6.1070   -0.0980    0.6490 C.2     1  UNL1        0.0040
      9  C          5.7790    1.5620   -0.9880 C.2     1  UNL1        0.0040
     10  C          5.3690    0.6840    1.5360 C.2     1  UNL1        0.0000
     11  C          5.0440    2.3590   -0.1330 C.2     1  UNL1        0.0000
     12  C          4.8480    1.8890    1.1510 C.2     1  UNL1        0.0000
@<TRIPOS>BOND
     1     1     6    1
     2     1     2    1
     3     5     4    1
     4     6     7    1
     5     4     2    1
     6     2     3    2
     7     9     7    2
     8     9    11    1
     9     7     8    1
    10    11    12    2
    11     8    10    2
    12    12    10    1
