@<TRIPOS>MOLECULE
/home/cewinharhar/GITHUB/reincatalyze/data/processed/docking_pred/2023-Apr-25-1829_maxeplen10_maxtrainstep200_exh32_gamma099_lrac3e-4_lrcr1e-3/13c3a96d7f073914410e4f6d6c0e2190084e407e_ligand_2.pdbqt
 12 12 0 0 0
SMALL
GASTEIGER

@<TRIPOS>ATOM
      1  C          5.5590    2.9060   -0.1140 C.3     1  UNL1        0.1270
      2  C          6.2500    3.8570    0.7740 C.2     1  UNL1        0.3030
      3  O          6.9430    4.7680    0.2640 O.2     1  UNL1       -0.2520
      4  O          6.1480    3.7620    2.1490 O.3     1  UNL1       -0.4810
      5  H          5.2970    3.4270    2.6380 H       1  UNL1        0.2960
      6  C          4.8880    1.8670    0.7760 C.3     1  UNL1        0.0470
      7  C          5.6610    0.6150    0.8500 C.2     1  UNL1       -0.0470
      8  C          5.7310   -0.0390    2.0740 C.2     1  UNL1        0.0040
      9  C          6.3290    0.0420   -0.2010 C.2     1  UNL1        0.0040
     10  C          6.4580   -1.2230    2.1850 C.2     1  UNL1        0.0000
     11  C          7.0570   -1.1290   -0.1230 C.2     1  UNL1        0.0000
     12  C          7.1090   -1.7560    1.1060 C.2     1  UNL1        0.0000
@<TRIPOS>BOND
     1     9    11    1
     2     9     7    2
     3    11    12    2
     4     1     2    1
     5     1     6    1
     6     3     2    2
     7     2     4    1
     8     6     7    1
     9     7     8    1
    10    12    10    1
    11     8    10    2
    12     4     5    1
