@<TRIPOS>MOLECULE
/home/cewinharhar/GITHUB/reincatalyze/data/processed/docking_pred/2023-Apr-25-1829_maxeplen10_maxtrainstep200_exh32_gamma099_lrac3e-4_lrcr1e-3/141be626e2cd6ba8f6b8a46d6dbef4dd02701a2b_ligand_2.pdbqt
 12 12 0 0 0
SMALL
GASTEIGER

@<TRIPOS>ATOM
      1  C          7.2430   -1.1940   -1.9620 C.3     1  UNL1        0.1270
      2  C          8.6720   -1.1780   -2.3200 C.2     1  UNL1        0.3030
      3  O          9.1320   -2.1120   -3.0180 O.2     1  UNL1       -0.2520
      4  O          9.5060   -0.1580   -1.9050 O.3     1  UNL1       -0.4810
      5  H         10.5370   -0.2510   -1.8390 H       1  UNL1        0.2960
      6  C          6.7860    0.2570   -1.8730 C.3     1  UNL1        0.0470
      7  C          6.1710    0.5680   -0.5710 C.2     1  UNL1       -0.0470
      8  C          6.3030   -0.3610    0.4530 C.2     1  UNL1        0.0040
      9  C          5.4660    1.7100   -0.2890 C.2     1  UNL1        0.0040
     10  C          5.7300   -0.1060    1.6970 C.2     1  UNL1        0.0000
     11  C          4.8870    1.9920    0.9330 C.2     1  UNL1        0.0000
     12  C          5.0340    1.0490    1.9310 C.2     1  UNL1        0.0000
@<TRIPOS>BOND
     1     3     2    2
     2     2     1    1
     3     2     4    1
     4     1     6    1
     5     4     5    1
     6     6     7    1
     7     7     9    2
     8     7     8    1
     9     9    11    1
    10     8    10    2
    11    11    12    2
    12    10    12    1
