@<TRIPOS>MOLECULE
/home/cewinharhar/GITHUB/reincatalyze/data/processed/docking_pred/2023-Apr-25-1829_maxeplen10_maxtrainstep200_exh32_gamma099_lrac3e-4_lrcr1e-3/141be626e2cd6ba8f6b8a46d6dbef4dd02701a2b_ligand_2.pdbqt
 12 12 0 0 0
SMALL
GASTEIGER

@<TRIPOS>ATOM
      1  C          7.2290   -1.1930   -2.0270 C.3     1  UNL1        0.1270
      2  C          8.6670   -1.1740   -2.3500 C.2     1  UNL1        0.3030
      3  O          9.1460   -2.1100   -3.0340 O.2     1  UNL1       -0.2520
      4  O          9.4890   -0.1510   -1.9180 O.3     1  UNL1       -0.4810
      5  H          9.3900    0.3110   -0.9950 H       1  UNL1        0.2960
      6  C          6.7920    0.2560   -1.8450 C.3     1  UNL1        0.0470
      7  C          6.1940    0.4930   -0.5190 C.2     1  UNL1       -0.0470
      8  C          5.5000    1.6800   -0.3180 C.2     1  UNL1        0.0040
      9  C          6.2730   -0.3700    0.5430 C.2     1  UNL1        0.0040
     10  C          4.9260    1.9430    0.9240 C.2     1  UNL1        0.0000
     11  C          5.7150   -0.1380    1.7850 C.2     1  UNL1        0.0000
     12  C          5.0320    1.0510    1.9550 C.2     1  UNL1        0.0000
@<TRIPOS>BOND
     1     3     2    2
     2     2     1    1
     3     2     4    1
     4     1     6    1
     5     4     5    1
     6     6     7    1
     7     7     8    2
     8     7     9    1
     9     8    10    1
    10     9    11    2
    11    10    12    2
    12    11    12    1
