MODEL 1
REMARK VINA RESULT:      -6.9      0.000      0.000
REMARK SMILES O=C(O)CCc1ccccc1
REMARK SMILES IDX 4 1 2 2 1 3 3 4 5 6 6 7 7 8 11 9 8 10 10 11 9 12
REMARK H PARENT 3 5
REMARK Flexibility Score: inf
ROOT
ATOM      1  C   UNL     1       5.036   1.799   0.712  1.00  0.00     0.127 C 
ENDROOT
BRANCH   1   2
ATOM      2  C   UNL     1       4.596   1.187   1.978  1.00  0.00     0.303 C 
ATOM      3  O   UNL     1       5.296   0.281   2.488  1.00  0.00    -0.252 OA
BRANCH   2   4
ATOM      4  O   UNL     1       3.435   1.593   2.608  1.00  0.00    -0.481 OA
ATOM      5  H   UNL     1       3.398   1.904   3.596  1.00  0.00     0.296 HD
ENDBRANCH   2   4
ENDBRANCH   1   2
BRANCH   1   6
ATOM      6  C   UNL     1       6.558   1.884   0.760  1.00  0.00     0.047 C 
BRANCH   6   7
ATOM      7  C   UNL     1       7.192   1.127  -0.333  1.00  0.00    -0.047 A 
ATOM      8  C   UNL     1       6.386   0.308  -1.115  1.00  0.00     0.004 A 
ATOM      9  C   UNL     1       8.527   1.162  -0.641  1.00  0.00     0.004 A 
ATOM     10  C   UNL     1       6.950  -0.429  -2.154  1.00  0.00     0.000 A 
ATOM     11  C   UNL     1       9.116   0.445  -1.664  1.00  0.00     0.000 A 
ATOM     12  C   UNL     1       8.290  -0.361  -2.423  1.00  0.00     0.000 A 
ENDBRANCH   6   7
ENDBRANCH   1   6
TORSDOF 4
ENDMDL
MODEL 2
REMARK VINA RESULT:      -6.9      3.188      4.965
REMARK SMILES O=C(O)CCc1ccccc1
REMARK SMILES IDX 4 1 2 2 1 3 3 4 5 6 6 7 7 8 11 9 8 10 10 11 9 12
REMARK H PARENT 3 5
REMARK Flexibility Score: inf
ROOT
ATOM      1  C   UNL     1       7.229  -1.193  -2.027  1.00  0.00     0.127 C 
ENDROOT
BRANCH   1   2
ATOM      2  C   UNL     1       8.667  -1.174  -2.350  1.00  0.00     0.303 C 
ATOM      3  O   UNL     1       9.146  -2.110  -3.034  1.00  0.00    -0.252 OA
BRANCH   2   4
ATOM      4  O   UNL     1       9.489  -0.151  -1.918  1.00  0.00    -0.481 OA
ATOM      5  H   UNL     1       9.390   0.311  -0.995  1.00  0.00     0.296 HD
ENDBRANCH   2   4
ENDBRANCH   1   2
BRANCH   1   6
ATOM      6  C   UNL     1       6.792   0.256  -1.845  1.00  0.00     0.047 C 
BRANCH   6   7
ATOM      7  C   UNL     1       6.194   0.493  -0.519  1.00  0.00    -0.047 A 
ATOM      8  C   UNL     1       5.500   1.680  -0.318  1.00  0.00     0.004 A 
ATOM      9  C   UNL     1       6.273  -0.370   0.543  1.00  0.00     0.004 A 
ATOM     10  C   UNL     1       4.926   1.943   0.924  1.00  0.00     0.000 A 
ATOM     11  C   UNL     1       5.715  -0.138   1.785  1.00  0.00     0.000 A 
ATOM     12  C   UNL     1       5.032   1.051   1.955  1.00  0.00     0.000 A 
ENDBRANCH   6   7
ENDBRANCH   1   6
TORSDOF 4
ENDMDL
MODEL 3
REMARK VINA RESULT:      -6.9      0.128      1.428
REMARK SMILES O=C(O)CCc1ccccc1
REMARK SMILES IDX 4 1 2 2 1 3 3 4 5 6 6 7 7 8 11 9 8 10 10 11 9 12
REMARK H PARENT 3 5
REMARK Flexibility Score: inf
ROOT
ATOM      1  C   UNL     1       5.026   1.798   0.706  1.00  0.00     0.127 C 
ENDROOT
BRANCH   1   2
ATOM      2  C   UNL     1       4.589   1.201   1.980  1.00  0.00     0.303 C 
ATOM      3  O   UNL     1       5.287   0.295   2.494  1.00  0.00    -0.252 OA
BRANCH   2   4
ATOM      4  O   UNL     1       3.434   1.619   2.613  1.00  0.00    -0.481 OA
ATOM      5  H   UNL     1       3.021   1.134   3.431  1.00  0.00     0.296 HD
ENDBRANCH   2   4
ENDBRANCH   1   2
BRANCH   1   6
ATOM      6  C   UNL     1       6.550   1.833   0.726  1.00  0.00     0.047 C 
BRANCH   6   7
ATOM      7  C   UNL     1       7.138   1.019  -0.352  1.00  0.00    -0.047 A 
ATOM      8  C   UNL     1       8.476   1.221  -0.668  1.00  0.00     0.004 A 
ATOM      9  C   UNL     1       6.463   0.073  -1.080  1.00  0.00     0.004 A 
ATOM     10  C   UNL     1       9.067   0.474  -1.686  1.00  0.00     0.000 A 
ATOM     11  C   UNL     1       7.020  -0.682  -2.093  1.00  0.00     0.000 A 
ATOM     12  C   UNL     1       8.351  -0.458  -2.385  1.00  0.00     0.000 A 
ENDBRANCH   6   7
ENDBRANCH   1   6
TORSDOF 4
ENDMDL
MODEL 4
REMARK VINA RESULT:      -6.9      3.191      4.968
REMARK SMILES O=C(O)CCc1ccccc1
REMARK SMILES IDX 4 1 2 2 1 3 3 4 5 6 6 7 7 8 11 9 8 10 10 11 9 12
REMARK H PARENT 3 5
REMARK Flexibility Score: inf
ROOT
ATOM      1  C   UNL     1       7.243  -1.194  -1.962  1.00  0.00     0.127 C 
ENDROOT
BRANCH   1   2
ATOM      2  C   UNL     1       8.672  -1.178  -2.320  1.00  0.00     0.303 C 
ATOM      3  O   UNL     1       9.132  -2.112  -3.018  1.00  0.00    -0.252 OA
BRANCH   2   4
ATOM      4  O   UNL     1       9.506  -0.158  -1.905  1.00  0.00    -0.481 OA
ATOM      5  H   UNL     1      10.537  -0.251  -1.839  1.00  0.00     0.296 HD
ENDBRANCH   2   4
ENDBRANCH   1   2
BRANCH   1   6
ATOM      6  C   UNL     1       6.786   0.257  -1.873  1.00  0.00     0.047 C 
BRANCH   6   7
ATOM      7  C   UNL     1       6.171   0.568  -0.571  1.00  0.00    -0.047 A 
ATOM      8  C   UNL     1       6.303  -0.361   0.453  1.00  0.00     0.004 A 
ATOM      9  C   UNL     1       5.466   1.710  -0.289  1.00  0.00     0.004 A 
ATOM     10  C   UNL     1       5.730  -0.106   1.697  1.00  0.00     0.000 A 
ATOM     11  C   UNL     1       4.887   1.992   0.933  1.00  0.00     0.000 A 
ATOM     12  C   UNL     1       5.034   1.049   1.931  1.00  0.00     0.000 A 
ENDBRANCH   6   7
ENDBRANCH   1   6
TORSDOF 4
ENDMDL
MODEL 5
REMARK VINA RESULT:      -6.6      2.583      4.346
REMARK SMILES O=C(O)CCc1ccccc1
REMARK SMILES IDX 4 1 2 2 1 3 3 4 5 6 6 7 7 8 11 9 8 10 10 11 9 12
REMARK H PARENT 3 5
REMARK Flexibility Score: inf
ROOT
ATOM      1  C   UNL     1       8.217  -1.141   0.337  1.00  0.00     0.127 C 
ENDROOT
BRANCH   1   2
ATOM      2  C   UNL     1       7.993  -2.497   0.870  1.00  0.00     0.303 C 
ATOM      3  O   UNL     1       8.883  -3.365   0.710  1.00  0.00    -0.252 OA
BRANCH   2   4
ATOM      4  O   UNL     1       6.829  -2.824   1.539  1.00  0.00    -0.481 OA
ATOM      5  H   UNL     1       5.902  -2.891   1.078  1.00  0.00     0.296 HD
ENDBRANCH   2   4
ENDBRANCH   1   2
BRANCH   1   6
ATOM      6  C   UNL     1       7.030  -0.811  -0.560  1.00  0.00     0.047 C 
BRANCH   6   7
ATOM      7  C   UNL     1       6.205   0.281  -0.012  1.00  0.00    -0.047 A 
ATOM      8  C   UNL     1       5.870   1.334  -0.854  1.00  0.00     0.004 A 
ATOM      9  C   UNL     1       5.743   0.343   1.278  1.00  0.00     0.004 A 
ATOM     10  C   UNL     1       5.097   2.387  -0.370  1.00  0.00     0.000 A 
ATOM     11  C   UNL     1       4.976   1.372   1.786  1.00  0.00     0.000 A 
ATOM     12  C   UNL     1       4.659   2.405   0.926  1.00  0.00     0.000 A 
ENDBRANCH   6   7
ENDBRANCH   1   6
TORSDOF 4
ENDMDL
