@<TRIPOS>MOLECULE
/home/cewinharhar/GITHUB/reincatalyze/data/processed/docking_pred/2023-Apr-25-1829_maxeplen10_maxtrainstep200_exh32_gamma099_lrac3e-4_lrcr1e-3/141be626e2cd6ba8f6b8a46d6dbef4dd02701a2b_ligand_2.pdbqt
 12 12 0 0 0
SMALL
GASTEIGER

@<TRIPOS>ATOM
      1  C          8.2170   -1.1410    0.3370 C.3     1  UNL1        0.1270
      2  C          7.9930   -2.4970    0.8700 C.2     1  UNL1        0.3030
      3  O          8.8830   -3.3650    0.7100 O.2     1  UNL1       -0.2520
      4  O          6.8290   -2.8240    1.5390 O.3     1  UNL1       -0.4810
      5  H          5.9020   -2.8910    1.0780 H       1  UNL1        0.2960
      6  C          7.0300   -0.8110   -0.5600 C.3     1  UNL1        0.0470
      7  C          6.2050    0.2810   -0.0120 C.2     1  UNL1       -0.0470
      8  C          5.8700    1.3340   -0.8540 C.2     1  UNL1        0.0040
      9  C          5.7430    0.3430    1.2780 C.2     1  UNL1        0.0040
     10  C          5.0970    2.3870   -0.3700 C.2     1  UNL1        0.0000
     11  C          4.9760    1.3720    1.7860 C.2     1  UNL1        0.0000
     12  C          4.6590    2.4050    0.9260 C.2     1  UNL1        0.0000
@<TRIPOS>BOND
     1     8    10    1
     2     8     7    2
     3     6     7    1
     4     6     1    1
     5    10    12    2
     6     7     9    1
     7     1     2    1
     8     3     2    2
     9     2     4    1
    10    12    11    1
    11     5     4    1
    12     9    11    2
