@<TRIPOS>MOLECULE
/home/cewinharhar/GITHUB/reincatalyze/data/processed/docking_pred/2023-Apr-25-1829_maxeplen10_maxtrainstep200_exh32_gamma099_lrac3e-4_lrcr1e-3/141be626e2cd6ba8f6b8a46d6dbef4dd02701a2b_ligand_2.pdbqt
 12 12 0 0 0
SMALL
GASTEIGER

@<TRIPOS>ATOM
      1  C          5.0260    1.7980    0.7060 C.3     1  UNL1        0.1270
      2  C          4.5890    1.2010    1.9800 C.2     1  UNL1        0.3030
      3  O          5.2870    0.2950    2.4940 O.2     1  UNL1       -0.2520
      4  O          3.4340    1.6190    2.6130 O.3     1  UNL1       -0.4810
      5  H          3.0210    1.1340    3.4310 H       1  UNL1        0.2960
      6  C          6.5500    1.8330    0.7260 C.3     1  UNL1        0.0470
      7  C          7.1380    1.0190   -0.3520 C.2     1  UNL1       -0.0470
      8  C          8.4760    1.2210   -0.6680 C.2     1  UNL1        0.0040
      9  C          6.4630    0.0730   -1.0800 C.2     1  UNL1        0.0040
     10  C          9.0670    0.4740   -1.6860 C.2     1  UNL1        0.0000
     11  C          7.0200   -0.6820   -2.0930 C.2     1  UNL1        0.0000
     12  C          8.3510   -0.4580   -2.3850 C.2     1  UNL1        0.0000
@<TRIPOS>BOND
     1    12    11    2
     2    12    10    1
     3    11     9    1
     4    10     8    2
     5     9     7    2
     6     8     7    1
     7     7     6    1
     8     1     6    1
     9     1     2    1
    10     2     3    2
    11     2     4    1
    12     4     5    1
