@<TRIPOS>MOLECULE
/home/cewinharhar/GITHUB/reincatalyze/data/processed/docking_pred/2023-Apr-25-1829_maxeplen10_maxtrainstep200_exh32_gamma099_lrac3e-4_lrcr1e-3/141be626e2cd6ba8f6b8a46d6dbef4dd02701a2b_ligand_2.pdbqt
 12 12 0 0 0
SMALL
GASTEIGER

@<TRIPOS>ATOM
      1  C          5.0360    1.7990    0.7120 C.3     1  UNL1        0.1270
      2  C          4.5960    1.1870    1.9780 C.2     1  UNL1        0.3030
      3  O          5.2960    0.2810    2.4880 O.2     1  UNL1       -0.2520
      4  O          3.4350    1.5930    2.6080 O.3     1  UNL1       -0.4810
      5  H          3.3980    1.9040    3.5960 H       1  UNL1        0.2960
      6  C          6.5580    1.8840    0.7600 C.3     1  UNL1        0.0470
      7  C          7.1920    1.1270   -0.3330 C.2     1  UNL1       -0.0470
      8  C          6.3860    0.3080   -1.1150 C.2     1  UNL1        0.0040
      9  C          8.5270    1.1620   -0.6410 C.2     1  UNL1        0.0040
     10  C          6.9500   -0.4290   -2.1540 C.2     1  UNL1        0.0000
     11  C          9.1160    0.4450   -1.6640 C.2     1  UNL1        0.0000
     12  C          8.2900   -0.3610   -2.4230 C.2     1  UNL1        0.0000
@<TRIPOS>BOND
     1    12    10    2
     2    12    11    1
     3    10     8    1
     4    11     9    2
     5     8     7    2
     6     9     7    1
     7     7     6    1
     8     1     6    1
     9     1     2    1
    10     2     3    2
    11     2     4    1
    12     4     5    1
