@<TRIPOS>MOLECULE
/home/cewinharhar/GITHUB/reincatalyze/data/processed/docking_pred/2023-Apr-25-1829_maxeplen10_maxtrainstep200_exh32_gamma099_lrac3e-4_lrcr1e-3/1444e75be78da7e2931ed2b5f85ad252461f0798_ligand_2.pdbqt
 12 12 0 0 0
SMALL
GASTEIGER

@<TRIPOS>ATOM
      1  C          8.4390   -0.7070   -2.0230 C.3     1  UNL1        0.1270
      2  C          8.4020   -1.9240   -2.8530 C.2     1  UNL1        0.3030
      3  O          7.2890   -2.3850   -3.2020 O.2     1  UNL1       -0.2520
      4  O          9.5620   -2.5590   -3.2510 O.3     1  UNL1       -0.4810
      5  H          9.5990   -3.2590   -4.0150 H       1  UNL1        0.2960
      6  C          7.0560   -0.0690   -2.1010 C.3     1  UNL1        0.0470
      7  C          6.4430    0.0940   -0.7720 C.2     1  UNL1       -0.0470
      8  C          6.5330   -0.9640    0.1240 C.2     1  UNL1        0.0040
      9  C          5.7790    1.2160   -0.3460 C.2     1  UNL1        0.0040
     10  C          5.9600   -0.8500    1.3890 C.2     1  UNL1        0.0000
     11  C          5.2010    1.3590    0.9000 C.2     1  UNL1        0.0000
     12  C          5.3060    0.2900    1.7690 C.2     1  UNL1        0.0000
@<TRIPOS>BOND
     1     5     4    1
     2     4     2    1
     3     3     2    2
     4     2     1    1
     5     6     1    1
     6     6     7    1
     7     7     9    2
     8     7     8    1
     9     9    11    1
    10     8    10    2
    11    11    12    2
    12    10    12    1
