@<TRIPOS>MOLECULE
/home/cewinharhar/GITHUB/reincatalyze/data/processed/docking_pred/2023-Apr-25-1829_maxeplen10_maxtrainstep200_exh32_gamma099_lrac3e-4_lrcr1e-3/1444e75be78da7e2931ed2b5f85ad252461f0798_ligand_2.pdbqt
 12 12 0 0 0
SMALL
GASTEIGER

@<TRIPOS>ATOM
      1  C          4.9350    1.6810    0.6770 C.3     1  UNL1        0.1270
      2  C          4.4350    1.0690    1.9210 C.2     1  UNL1        0.3030
      3  O          5.1240    0.1840    2.4790 O.2     1  UNL1       -0.2520
      4  O          3.2310    1.4530    2.4790 O.3     1  UNL1       -0.4810
      5  H          2.3830    0.8560    2.4790 H       1  UNL1        0.2960
      6  C          6.4530    1.7550    0.7930 C.3     1  UNL1        0.0470
      7  C          7.1290    1.0280   -0.2970 C.2     1  UNL1       -0.0470
      8  C          6.3970    0.0810   -1.0030 C.2     1  UNL1        0.0040
      9  C          8.4360    1.2090   -0.6680 C.2     1  UNL1        0.0040
     10  C          7.0030   -0.6320   -2.0360 C.2     1  UNL1        0.0000
     11  C          9.0640    0.5190   -1.6860 C.2     1  UNL1        0.0000
     12  C          8.3120   -0.4160   -2.3700 C.2     1  UNL1        0.0000
@<TRIPOS>BOND
     1    12    10    2
     2    12    11    1
     3    10     8    1
     4    11     9    2
     5     8     7    2
     6     9     7    1
     7     7     6    1
     8     1     6    1
     9     1     2    1
    10     2     3    2
    11     2     4    1
    12     4     5    1
