@<TRIPOS>MOLECULE
/home/cewinharhar/GITHUB/reincatalyze/data/processed/docking_pred/2023-Apr-25-1829_maxeplen10_maxtrainstep200_exh32_gamma099_lrac3e-4_lrcr1e-3/1444e75be78da7e2931ed2b5f85ad252461f0798_ligand_2.pdbqt
 12 12 0 0 0
SMALL
GASTEIGER

@<TRIPOS>ATOM
      1  C          8.1650    0.2590   -2.1460 C.3     1  UNL1        0.1270
      2  C          9.3210    0.3260   -1.2350 C.2     1  UNL1        0.3030
      3  O          9.3800   -0.4750   -0.2720 O.2     1  UNL1       -0.2520
      4  O         10.3340    1.2470   -1.4220 O.3     1  UNL1       -0.4810
      5  H         11.3220    1.0720   -1.1650 H       1  UNL1        0.2960
      6  C          7.1180   -0.6230   -1.4770 C.3     1  UNL1        0.0470
      7  C          6.3190    0.1180   -0.4850 C.2     1  UNL1       -0.0470
      8  C          6.0490   -0.5000    0.7300 C.2     1  UNL1        0.0040
      9  C          5.8100    1.3770   -0.6700 C.2     1  UNL1        0.0040
     10  C          5.2910    0.1670    1.6910 C.2     1  UNL1        0.0000
     11  C          5.0570    2.0630    0.2620 C.2     1  UNL1        0.0000
     12  C          4.8050    1.4240    1.4600 C.2     1  UNL1        0.0000
@<TRIPOS>BOND
     1     1     6    1
     2     1     2    1
     3     6     7    1
     4     4     2    1
     5     4     5    1
     6     2     3    2
     7     9     7    2
     8     9    11    1
     9     7     8    1
    10    11    12    2
    11     8    10    2
    12    12    10    1
