@<TRIPOS>MOLECULE
/home/cewinharhar/GITHUB/reincatalyze/data/processed/docking_pred/2023-Apr-25-1829_maxeplen10_maxtrainstep200_exh32_gamma099_lrac3e-4_lrcr1e-3/1444e75be78da7e2931ed2b5f85ad252461f0798_ligand_2.pdbqt
 12 12 0 0 0
SMALL
GASTEIGER

@<TRIPOS>ATOM
      1  C          5.4510    2.8890   -0.0440 C.3     1  UNL1        0.1270
      2  C          6.2200    3.8400    0.7780 C.2     1  UNL1        0.3030
      3  O          6.8570    4.7560    0.2070 O.2     1  UNL1       -0.2520
      4  O          6.2490    3.7400    2.1560 O.3     1  UNL1       -0.4810
      5  H          6.5910    2.9030    2.6630 H       1  UNL1        0.2960
      6  C          4.8680    1.8470    0.9030 C.3     1  UNL1        0.0470
      7  C          5.6440    0.5950    0.8980 C.2     1  UNL1       -0.0470
      8  C          5.7640   -0.1060    2.0920 C.2     1  UNL1        0.0040
      9  C          6.2680    0.0630   -0.2010 C.2     1  UNL1        0.0040
     10  C          6.4960   -1.2910    2.1280 C.2     1  UNL1        0.0000
     11  C          7.0000   -1.1080   -0.1980 C.2     1  UNL1        0.0000
     12  C          7.1020   -1.7820    1.0040 C.2     1  UNL1        0.0000
@<TRIPOS>BOND
     1     9    11    1
     2     9     7    2
     3    11    12    2
     4     1     2    1
     5     1     6    1
     6     3     2    2
     7     2     4    1
     8     7     6    1
     9     7     8    1
    10    12    10    1
    11     8    10    2
    12     4     5    1
