MODEL 1
REMARK VINA RESULT:      -7.3      0.000      0.000
REMARK SMILES O=C(O)CCc1ccccc1
REMARK SMILES IDX 4 1 2 2 1 3 3 4 5 6 6 7 7 8 11 9 8 10 10 11 9 12
REMARK H PARENT 3 5
REMARK Flexibility Score: inf
ROOT
ATOM      1  C   UNL     1       8.482  -0.644  -2.116  1.00  0.00     0.127 C 
ENDROOT
BRANCH   1   2
ATOM      2  C   UNL     1       8.474  -1.897  -2.891  1.00  0.00     0.303 C 
ATOM      3  O   UNL     1       9.558  -2.495  -3.087  1.00  0.00    -0.252 OA
BRANCH   2   4
ATOM      4  O   UNL     1       7.301  -2.421  -3.401  1.00  0.00    -0.481 OA
ATOM      5  H   UNL     1       6.962  -3.378  -3.191  1.00  0.00     0.296 HD
ENDBRANCH   2   4
ENDBRANCH   1   2
BRANCH   1   6
ATOM      6  C   UNL     1       7.064  -0.086  -2.151  1.00  0.00     0.047 C 
BRANCH   6   7
ATOM      7  C   UNL     1       6.473   0.016  -0.805  1.00  0.00    -0.047 A 
ATOM      8  C   UNL     1       5.834   1.200  -0.460  1.00  0.00     0.004 A 
ATOM      9  C   UNL     1       6.509  -0.972   0.145  1.00  0.00     0.004 A 
ATOM     10  C   UNL     1       5.268   1.337   0.807  1.00  0.00     0.000 A 
ATOM     11  C   UNL     1       5.959  -0.867   1.407  1.00  0.00     0.000 A 
ATOM     12  C   UNL     1       5.331   0.322   1.722  1.00  0.00     0.000 A 
ENDBRANCH   6   7
ENDBRANCH   1   6
TORSDOF 4
ENDMDL
MODEL 2
REMARK VINA RESULT:      -7.2      0.113      1.728
REMARK SMILES O=C(O)CCc1ccccc1
REMARK SMILES IDX 4 1 2 2 1 3 3 4 5 6 6 7 7 8 11 9 8 10 10 11 9 12
REMARK H PARENT 3 5
REMARK Flexibility Score: inf
ROOT
ATOM      1  C   UNL     1       8.439  -0.707  -2.023  1.00  0.00     0.127 C 
ENDROOT
BRANCH   1   2
ATOM      2  C   UNL     1       8.402  -1.924  -2.853  1.00  0.00     0.303 C 
ATOM      3  O   UNL     1       7.289  -2.385  -3.202  1.00  0.00    -0.252 OA
BRANCH   2   4
ATOM      4  O   UNL     1       9.562  -2.559  -3.251  1.00  0.00    -0.481 OA
ATOM      5  H   UNL     1       9.599  -3.259  -4.015  1.00  0.00     0.296 HD
ENDBRANCH   2   4
ENDBRANCH   1   2
BRANCH   1   6
ATOM      6  C   UNL     1       7.056  -0.069  -2.101  1.00  0.00     0.047 C 
BRANCH   6   7
ATOM      7  C   UNL     1       6.443   0.094  -0.772  1.00  0.00    -0.047 A 
ATOM      8  C   UNL     1       6.533  -0.964   0.124  1.00  0.00     0.004 A 
ATOM      9  C   UNL     1       5.779   1.216  -0.346  1.00  0.00     0.004 A 
ATOM     10  C   UNL     1       5.960  -0.850   1.389  1.00  0.00     0.000 A 
ATOM     11  C   UNL     1       5.201   1.359   0.900  1.00  0.00     0.000 A 
ATOM     12  C   UNL     1       5.306   0.290   1.769  1.00  0.00     0.000 A 
ENDBRANCH   6   7
ENDBRANCH   1   6
TORSDOF 4
ENDMDL
MODEL 3
REMARK VINA RESULT:      -6.9      3.369      5.094
REMARK SMILES O=C(O)CCc1ccccc1
REMARK SMILES IDX 4 1 2 2 1 3 3 4 5 6 6 7 7 8 11 9 8 10 10 11 9 12
REMARK H PARENT 3 5
REMARK Flexibility Score: inf
ROOT
ATOM      1  C   UNL     1       4.935   1.681   0.677  1.00  0.00     0.127 C 
ENDROOT
BRANCH   1   2
ATOM      2  C   UNL     1       4.435   1.069   1.921  1.00  0.00     0.303 C 
ATOM      3  O   UNL     1       5.124   0.184   2.479  1.00  0.00    -0.252 OA
BRANCH   2   4
ATOM      4  O   UNL     1       3.231   1.453   2.479  1.00  0.00    -0.481 OA
ATOM      5  H   UNL     1       2.383   0.856   2.479  1.00  0.00     0.296 HD
ENDBRANCH   2   4
ENDBRANCH   1   2
BRANCH   1   6
ATOM      6  C   UNL     1       6.453   1.755   0.793  1.00  0.00     0.047 C 
BRANCH   6   7
ATOM      7  C   UNL     1       7.129   1.028  -0.297  1.00  0.00    -0.047 A 
ATOM      8  C   UNL     1       6.397   0.081  -1.003  1.00  0.00     0.004 A 
ATOM      9  C   UNL     1       8.436   1.209  -0.668  1.00  0.00     0.004 A 
ATOM     10  C   UNL     1       7.003  -0.632  -2.036  1.00  0.00     0.000 A 
ATOM     11  C   UNL     1       9.064   0.519  -1.686  1.00  0.00     0.000 A 
ATOM     12  C   UNL     1       8.312  -0.416  -2.370  1.00  0.00     0.000 A 
ENDBRANCH   6   7
ENDBRANCH   1   6
TORSDOF 4
ENDMDL
MODEL 4
REMARK VINA RESULT:      -6.6      3.818      4.967
REMARK SMILES O=C(O)CCc1ccccc1
REMARK SMILES IDX 4 1 2 2 1 3 3 4 5 6 6 7 7 8 11 9 8 10 10 11 9 12
REMARK H PARENT 3 5
REMARK Flexibility Score: inf
ROOT
ATOM      1  C   UNL     1       5.451   2.889  -0.044  1.00  0.00     0.127 C 
ENDROOT
BRANCH   1   2
ATOM      2  C   UNL     1       6.220   3.840   0.778  1.00  0.00     0.303 C 
ATOM      3  O   UNL     1       6.857   4.756   0.207  1.00  0.00    -0.252 OA
BRANCH   2   4
ATOM      4  O   UNL     1       6.249   3.740   2.156  1.00  0.00    -0.481 OA
ATOM      5  H   UNL     1       6.591   2.903   2.663  1.00  0.00     0.296 HD
ENDBRANCH   2   4
ENDBRANCH   1   2
BRANCH   1   6
ATOM      6  C   UNL     1       4.868   1.847   0.903  1.00  0.00     0.047 C 
BRANCH   6   7
ATOM      7  C   UNL     1       5.644   0.595   0.898  1.00  0.00    -0.047 A 
ATOM      8  C   UNL     1       5.764  -0.106   2.092  1.00  0.00     0.004 A 
ATOM      9  C   UNL     1       6.268   0.063  -0.201  1.00  0.00     0.004 A 
ATOM     10  C   UNL     1       6.496  -1.291   2.128  1.00  0.00     0.000 A 
ATOM     11  C   UNL     1       7.000  -1.108  -0.198  1.00  0.00     0.000 A 
ATOM     12  C   UNL     1       7.102  -1.782   1.004  1.00  0.00     0.000 A 
ENDBRANCH   6   7
ENDBRANCH   1   6
TORSDOF 4
ENDMDL
MODEL 5
REMARK VINA RESULT:      -6.6      1.887      2.598
REMARK SMILES O=C(O)CCc1ccccc1
REMARK SMILES IDX 4 1 2 2 1 3 3 4 5 6 6 7 7 8 11 9 8 10 10 11 9 12
REMARK H PARENT 3 5
REMARK Flexibility Score: inf
ROOT
ATOM      1  C   UNL     1       8.165   0.259  -2.146  1.00  0.00     0.127 C 
ENDROOT
BRANCH   1   2
ATOM      2  C   UNL     1       9.321   0.326  -1.235  1.00  0.00     0.303 C 
ATOM      3  O   UNL     1       9.380  -0.475  -0.272  1.00  0.00    -0.252 OA
BRANCH   2   4
ATOM      4  O   UNL     1      10.334   1.247  -1.422  1.00  0.00    -0.481 OA
ATOM      5  H   UNL     1      11.322   1.072  -1.165  1.00  0.00     0.296 HD
ENDBRANCH   2   4
ENDBRANCH   1   2
BRANCH   1   6
ATOM      6  C   UNL     1       7.118  -0.623  -1.477  1.00  0.00     0.047 C 
BRANCH   6   7
ATOM      7  C   UNL     1       6.319   0.118  -0.485  1.00  0.00    -0.047 A 
ATOM      8  C   UNL     1       6.049  -0.500   0.730  1.00  0.00     0.004 A 
ATOM      9  C   UNL     1       5.810   1.377  -0.670  1.00  0.00     0.004 A 
ATOM     10  C   UNL     1       5.291   0.167   1.691  1.00  0.00     0.000 A 
ATOM     11  C   UNL     1       5.057   2.063   0.262  1.00  0.00     0.000 A 
ATOM     12  C   UNL     1       4.805   1.424   1.460  1.00  0.00     0.000 A 
ENDBRANCH   6   7
ENDBRANCH   1   6
TORSDOF 4
ENDMDL
