@<TRIPOS>MOLECULE
/home/cewinharhar/GITHUB/reincatalyze/data/processed/docking_pred/2023-Apr-25-1829_maxeplen10_maxtrainstep200_exh32_gamma099_lrac3e-4_lrcr1e-3/1444e75be78da7e2931ed2b5f85ad252461f0798_ligand_2.pdbqt
 12 12 0 0 0
SMALL
GASTEIGER

@<TRIPOS>ATOM
      1  C          8.4820   -0.6440   -2.1160 C.3     1  UNL1        0.1270
      2  C          8.4740   -1.8970   -2.8910 C.2     1  UNL1        0.3030
      3  O          9.5580   -2.4950   -3.0870 O.2     1  UNL1       -0.2520
      4  O          7.3010   -2.4210   -3.4010 O.3     1  UNL1       -0.4810
      5  H          6.9620   -3.3780   -3.1910 H       1  UNL1        0.2960
      6  C          7.0640   -0.0860   -2.1510 C.3     1  UNL1        0.0470
      7  C          6.4730    0.0160   -0.8050 C.2     1  UNL1       -0.0470
      8  C          5.8340    1.2000   -0.4600 C.2     1  UNL1        0.0040
      9  C          6.5090   -0.9720    0.1450 C.2     1  UNL1        0.0040
     10  C          5.2680    1.3370    0.8070 C.2     1  UNL1        0.0000
     11  C          5.9590   -0.8670    1.4070 C.2     1  UNL1        0.0000
     12  C          5.3310    0.3220    1.7220 C.2     1  UNL1        0.0000
@<TRIPOS>BOND
     1     4     5    1
     2     4     2    1
     3     3     2    2
     4     2     1    1
     5     6     1    1
     6     6     7    1
     7     7     8    2
     8     7     9    1
     9     8    10    1
    10     9    11    2
    11    10    12    2
    12    11    12    1
