@<TRIPOS>MOLECULE
/home/cewinharhar/GITHUB/reincatalyze/data/processed/docking_pred/2023-Apr-25-1829_maxeplen10_maxtrainstep200_exh32_gamma099_lrac3e-4_lrcr1e-3/16519f8051380dc2329c6f51dcb24a8f5dfeda31_ligand_2.pdbqt
 12 12 0 0 0
SMALL
GASTEIGER

@<TRIPOS>ATOM
      1  C          8.2360   -0.8870   -1.9370 C.3     1  UNL1        0.1270
      2  C          8.3790   -2.0110   -2.8790 C.2     1  UNL1        0.3030
      3  O          9.5220   -2.4800   -3.0920 O.2     1  UNL1       -0.2520
      4  O          7.2840   -2.5530   -3.5240 O.3     1  UNL1       -0.4810
      5  H          7.1770   -3.5650   -3.7200 H       1  UNL1        0.2960
      6  C          7.3520   -1.3710   -0.7930 C.3     1  UNL1        0.0470
      7  C          6.5420   -0.2820   -0.2170 C.2     1  UNL1       -0.0470
      8  C          6.1250   -0.4050    1.1020 C.2     1  UNL1        0.0040
      9  C          6.1600    0.8510   -0.8890 C.2     1  UNL1        0.0040
     10  C          5.3530    0.6010    1.6800 C.2     1  UNL1        0.0000
     11  C          5.3960    1.8640   -0.3450 C.2     1  UNL1        0.0000
     12  C          4.9950    1.7140    0.9690 C.2     1  UNL1        0.0000
@<TRIPOS>BOND
     1     5     4    1
     2     4     2    1
     3     3     2    2
     4     2     1    1
     5     1     6    1
     6     9    11    1
     7     9     7    2
     8     6     7    1
     9    11    12    2
    10     7     8    1
    11    12    10    1
    12     8    10    2
