@<TRIPOS>MOLECULE
/home/cewinharhar/GITHUB/reincatalyze/data/processed/docking_pred/2023-Apr-25-1829_maxeplen10_maxtrainstep200_exh32_gamma099_lrac3e-4_lrcr1e-3/16519f8051380dc2329c6f51dcb24a8f5dfeda31_ligand_2.pdbqt
 12 12 0 0 0
SMALL
GASTEIGER

@<TRIPOS>ATOM
      1  C          8.2500   -0.9210   -1.8820 C.3     1  UNL1        0.1270
      2  C          8.3940   -2.0120   -2.8610 C.2     1  UNL1        0.3030
      3  O          9.5390   -2.4670   -3.0960 O.2     1  UNL1       -0.2520
      4  O          7.2990   -2.5390   -3.5180 O.3     1  UNL1       -0.4810
      5  H          6.3920   -2.0450   -3.6070 H       1  UNL1        0.2960
      6  C          7.3550   -1.4400   -0.7610 C.3     1  UNL1        0.0470
      7  C          6.5480   -0.3680   -0.1530 C.2     1  UNL1       -0.0470
      8  C          6.2480    0.7450   -0.9290 C.2     1  UNL1        0.0040
      9  C          6.0700   -0.3780    1.1320 C.2     1  UNL1        0.0040
     10  C          5.4920    1.7830   -0.3870 C.2     1  UNL1        0.0000
     11  C          5.3190    0.6340    1.6970 C.2     1  UNL1        0.0000
     12  C          5.0370    1.7270    0.9020 C.2     1  UNL1        0.0000
@<TRIPOS>BOND
     1     5     4    1
     2     4     2    1
     3     3     2    2
     4     2     1    1
     5     1     6    1
     6     8    10    1
     7     8     7    2
     8     6     7    1
     9    10    12    2
    10     7     9    1
    11    12    11    1
    12     9    11    2
