MODEL 1
REMARK VINA RESULT:      -7.3      0.000      0.000
REMARK SMILES O=C(O)CCc1ccccc1
REMARK SMILES IDX 4 1 2 2 1 3 3 4 5 6 6 7 7 8 11 9 8 10 10 11 9 12
REMARK H PARENT 3 5
REMARK Flexibility Score: inf
ROOT
ATOM      1  C   UNL     1       8.468  -0.596  -2.203  1.00  0.00     0.127 C 
ENDROOT
BRANCH   1   2
ATOM      2  C   UNL     1       8.467  -1.881  -2.923  1.00  0.00     0.303 C 
ATOM      3  O   UNL     1       9.552  -2.489  -3.078  1.00  0.00    -0.252 OA
BRANCH   2   4
ATOM      4  O   UNL     1       7.299  -2.423  -3.425  1.00  0.00    -0.481 OA
ATOM      5  H   UNL     1       7.164  -3.437  -3.593  1.00  0.00     0.296 HD
ENDBRANCH   2   4
ENDBRANCH   1   2
BRANCH   1   6
ATOM      6  C   UNL     1       7.028  -0.098  -2.171  1.00  0.00     0.047 C 
BRANCH   6   7
ATOM      7  C   UNL     1       6.504   0.001  -0.797  1.00  0.00    -0.047 A 
ATOM      8  C   UNL     1       5.888   1.187  -0.416  1.00  0.00     0.004 A 
ATOM      9  C   UNL     1       6.581  -0.992   0.145  1.00  0.00     0.004 A 
ATOM     10  C   UNL     1       5.386   1.321   0.877  1.00  0.00     0.000 A 
ATOM     11  C   UNL     1       6.093  -0.890   1.433  1.00  0.00     0.000 A 
ATOM     12  C   UNL     1       5.487   0.301   1.784  1.00  0.00     0.000 A 
ENDBRANCH   6   7
ENDBRANCH   1   6
TORSDOF 4
ENDMDL
MODEL 2
REMARK VINA RESULT:      -7.3      0.650      1.628
REMARK SMILES O=C(O)CCc1ccccc1
REMARK SMILES IDX 4 1 2 2 1 3 3 4 5 6 6 7 7 8 11 9 8 10 10 11 9 12
REMARK H PARENT 3 5
REMARK Flexibility Score: inf
ROOT
ATOM      1  C   UNL     1       8.236  -0.887  -1.937  1.00  0.00     0.127 C 
ENDROOT
BRANCH   1   2
ATOM      2  C   UNL     1       8.379  -2.011  -2.879  1.00  0.00     0.303 C 
ATOM      3  O   UNL     1       9.522  -2.480  -3.092  1.00  0.00    -0.252 OA
BRANCH   2   4
ATOM      4  O   UNL     1       7.284  -2.553  -3.524  1.00  0.00    -0.481 OA
ATOM      5  H   UNL     1       7.177  -3.565  -3.720  1.00  0.00     0.296 HD
ENDBRANCH   2   4
ENDBRANCH   1   2
BRANCH   1   6
ATOM      6  C   UNL     1       7.352  -1.371  -0.793  1.00  0.00     0.047 C 
BRANCH   6   7
ATOM      7  C   UNL     1       6.542  -0.282  -0.217  1.00  0.00    -0.047 A 
ATOM      8  C   UNL     1       6.125  -0.405   1.102  1.00  0.00     0.004 A 
ATOM      9  C   UNL     1       6.160   0.851  -0.889  1.00  0.00     0.004 A 
ATOM     10  C   UNL     1       5.353   0.601   1.680  1.00  0.00     0.000 A 
ATOM     11  C   UNL     1       5.396   1.864  -0.345  1.00  0.00     0.000 A 
ATOM     12  C   UNL     1       4.995   1.714   0.969  1.00  0.00     0.000 A 
ENDBRANCH   6   7
ENDBRANCH   1   6
TORSDOF 4
ENDMDL
MODEL 3
REMARK VINA RESULT:      -7.2      0.165      1.732
REMARK SMILES O=C(O)CCc1ccccc1
REMARK SMILES IDX 4 1 2 2 1 3 3 4 5 6 6 7 7 8 11 9 8 10 10 11 9 12
REMARK H PARENT 3 5
REMARK Flexibility Score: inf
ROOT
ATOM      1  C   UNL     1       8.419  -0.699  -2.056  1.00  0.00     0.127 C 
ENDROOT
BRANCH   1   2
ATOM      2  C   UNL     1       8.395  -1.925  -2.874  1.00  0.00     0.303 C 
ATOM      3  O   UNL     1       7.287  -2.398  -3.222  1.00  0.00    -0.252 OA
BRANCH   2   4
ATOM      4  O   UNL     1       9.562  -2.555  -3.262  1.00  0.00    -0.481 OA
ATOM      5  H   UNL     1      10.468  -2.435  -2.772  1.00  0.00     0.296 HD
ENDBRANCH   2   4
ENDBRANCH   1   2
BRANCH   1   6
ATOM      6  C   UNL     1       7.025  -0.088  -2.123  1.00  0.00     0.047 C 
BRANCH   6   7
ATOM      7  C   UNL     1       6.452   0.139  -0.785  1.00  0.00    -0.047 A 
ATOM      8  C   UNL     1       6.582  -0.870   0.161  1.00  0.00     0.004 A 
ATOM      9  C   UNL     1       5.789   1.275  -0.396  1.00  0.00     0.004 A 
ATOM     10  C   UNL     1       6.048  -0.696   1.437  1.00  0.00     0.000 A 
ATOM     11  C   UNL     1       5.249   1.477   0.858  1.00  0.00     0.000 A 
ATOM     12  C   UNL     1       5.394   0.456   1.777  1.00  0.00     0.000 A 
ENDBRANCH   6   7
ENDBRANCH   1   6
TORSDOF 4
ENDMDL
MODEL 4
REMARK VINA RESULT:      -7.2      0.667      1.159
REMARK SMILES O=C(O)CCc1ccccc1
REMARK SMILES IDX 4 1 2 2 1 3 3 4 5 6 6 7 7 8 11 9 8 10 10 11 9 12
REMARK H PARENT 3 5
REMARK Flexibility Score: inf
ROOT
ATOM      1  C   UNL     1       8.250  -0.921  -1.882  1.00  0.00     0.127 C 
ENDROOT
BRANCH   1   2
ATOM      2  C   UNL     1       8.394  -2.012  -2.861  1.00  0.00     0.303 C 
ATOM      3  O   UNL     1       9.539  -2.467  -3.096  1.00  0.00    -0.252 OA
BRANCH   2   4
ATOM      4  O   UNL     1       7.299  -2.539  -3.518  1.00  0.00    -0.481 OA
ATOM      5  H   UNL     1       6.392  -2.045  -3.607  1.00  0.00     0.296 HD
ENDBRANCH   2   4
ENDBRANCH   1   2
BRANCH   1   6
ATOM      6  C   UNL     1       7.355  -1.440  -0.761  1.00  0.00     0.047 C 
BRANCH   6   7
ATOM      7  C   UNL     1       6.548  -0.368  -0.153  1.00  0.00    -0.047 A 
ATOM      8  C   UNL     1       6.248   0.745  -0.929  1.00  0.00     0.004 A 
ATOM      9  C   UNL     1       6.070  -0.378   1.132  1.00  0.00     0.004 A 
ATOM     10  C   UNL     1       5.492   1.783  -0.387  1.00  0.00     0.000 A 
ATOM     11  C   UNL     1       5.319   0.634   1.697  1.00  0.00     0.000 A 
ATOM     12  C   UNL     1       5.037   1.727   0.902  1.00  0.00     0.000 A 
ENDBRANCH   6   7
ENDBRANCH   1   6
TORSDOF 4
ENDMDL
MODEL 5
REMARK VINA RESULT:      -6.8      3.373      5.053
REMARK SMILES O=C(O)CCc1ccccc1
REMARK SMILES IDX 4 1 2 2 1 3 3 4 5 6 6 7 7 8 11 9 8 10 10 11 9 12
REMARK H PARENT 3 5
REMARK Flexibility Score: inf
ROOT
ATOM      1  C   UNL     1       4.987   1.783   0.722  1.00  0.00     0.127 C 
ENDROOT
BRANCH   1   2
ATOM      2  C   UNL     1       4.465   1.113   1.926  1.00  0.00     0.303 C 
ATOM      3  O   UNL     1       5.152   0.214   2.464  1.00  0.00    -0.252 OA
BRANCH   2   4
ATOM      4  O   UNL     1       3.241   1.457   2.467  1.00  0.00    -0.481 OA
ATOM      5  H   UNL     1       2.348   1.408   1.943  1.00  0.00     0.296 HD
ENDBRANCH   2   4
ENDBRANCH   1   2
BRANCH   1   6
ATOM      6  C   UNL     1       6.509   1.734   0.807  1.00  0.00     0.047 C 
BRANCH   6   7
ATOM      7  C   UNL     1       7.102   0.965  -0.302  1.00  0.00    -0.047 A 
ATOM      8  C   UNL     1       8.421   1.232  -0.650  1.00  0.00     0.004 A 
ATOM      9  C   UNL     1       6.449   0.003  -1.028  1.00  0.00     0.004 A 
ATOM     10  C   UNL     1       9.015   0.531  -1.697  1.00  0.00     0.000 A 
ATOM     11  C   UNL     1       7.010  -0.709  -2.070  1.00  0.00     0.000 A 
ATOM     12  C   UNL     1       8.321  -0.421  -2.394  1.00  0.00     0.000 A 
ENDBRANCH   6   7
ENDBRANCH   1   6
TORSDOF 4
ENDMDL
