@<TRIPOS>MOLECULE
/home/cewinharhar/GITHUB/reincatalyze/data/processed/docking_pred/2023-Apr-25-1829_maxeplen10_maxtrainstep200_exh32_gamma099_lrac3e-4_lrcr1e-3/16519f8051380dc2329c6f51dcb24a8f5dfeda31_ligand_2.pdbqt
 12 12 0 0 0
SMALL
GASTEIGER

@<TRIPOS>ATOM
      1  C          8.4190   -0.6990   -2.0560 C.3     1  UNL1        0.1270
      2  C          8.3950   -1.9250   -2.8740 C.2     1  UNL1        0.3030
      3  O          7.2870   -2.3980   -3.2220 O.2     1  UNL1       -0.2520
      4  O          9.5620   -2.5550   -3.2620 O.3     1  UNL1       -0.4810
      5  H         10.4680   -2.4350   -2.7720 H       1  UNL1        0.2960
      6  C          7.0250   -0.0880   -2.1230 C.3     1  UNL1        0.0470
      7  C          6.4520    0.1390   -0.7850 C.2     1  UNL1       -0.0470
      8  C          6.5820   -0.8700    0.1610 C.2     1  UNL1        0.0040
      9  C          5.7890    1.2750   -0.3960 C.2     1  UNL1        0.0040
     10  C          6.0480   -0.6960    1.4370 C.2     1  UNL1        0.0000
     11  C          5.2490    1.4770    0.8580 C.2     1  UNL1        0.0000
     12  C          5.3940    0.4560    1.7770 C.2     1  UNL1        0.0000
@<TRIPOS>BOND
     1     4     2    1
     2     4     5    1
     3     3     2    2
     4     2     1    1
     5     6     1    1
     6     6     7    1
     7     7     9    2
     8     7     8    1
     9     9    11    1
    10     8    10    2
    11    11    12    2
    12    10    12    1
