@<TRIPOS>MOLECULE
/home/cewinharhar/GITHUB/reincatalyze/data/processed/docking_pred/2023-Apr-25-1829_maxeplen10_maxtrainstep200_exh32_gamma099_lrac3e-4_lrcr1e-3/16519f8051380dc2329c6f51dcb24a8f5dfeda31_ligand_2.pdbqt
 12 12 0 0 0
SMALL
GASTEIGER

@<TRIPOS>ATOM
      1  C          8.4680   -0.5960   -2.2030 C.3     1  UNL1        0.1270
      2  C          8.4670   -1.8810   -2.9230 C.2     1  UNL1        0.3030
      3  O          9.5520   -2.4890   -3.0780 O.2     1  UNL1       -0.2520
      4  O          7.2990   -2.4230   -3.4250 O.3     1  UNL1       -0.4810
      5  H          7.1640   -3.4370   -3.5930 H       1  UNL1        0.2960
      6  C          7.0280   -0.0980   -2.1710 C.3     1  UNL1        0.0470
      7  C          6.5040    0.0010   -0.7970 C.2     1  UNL1       -0.0470
      8  C          5.8880    1.1870   -0.4160 C.2     1  UNL1        0.0040
      9  C          6.5810   -0.9920    0.1450 C.2     1  UNL1        0.0040
     10  C          5.3860    1.3210    0.8770 C.2     1  UNL1        0.0000
     11  C          6.0930   -0.8900    1.4330 C.2     1  UNL1        0.0000
     12  C          5.4870    0.3010    1.7840 C.2     1  UNL1        0.0000
@<TRIPOS>BOND
     1     5     4    1
     2     4     2    1
     3     3     2    2
     4     2     1    1
     5     1     6    1
     6     6     7    1
     7     7     8    2
     8     7     9    1
     9     8    10    1
    10     9    11    2
    11    10    12    2
    12    11    12    1
