@<TRIPOS>MOLECULE
/home/cewinharhar/GITHUB/reincatalyze/data/processed/docking_pred/2023-Apr-25-1829_maxeplen10_maxtrainstep200_exh32_gamma099_lrac3e-4_lrcr1e-3/16519f8051380dc2329c6f51dcb24a8f5dfeda31_ligand_2.pdbqt
 12 12 0 0 0
SMALL
GASTEIGER

@<TRIPOS>ATOM
      1  C          4.9870    1.7830    0.7220 C.3     1  UNL1        0.1270
      2  C          4.4650    1.1130    1.9260 C.2     1  UNL1        0.3030
      3  O          5.1520    0.2140    2.4640 O.2     1  UNL1       -0.2520
      4  O          3.2410    1.4570    2.4670 O.3     1  UNL1       -0.4810
      5  H          2.3480    1.4080    1.9430 H       1  UNL1        0.2960
      6  C          6.5090    1.7340    0.8070 C.3     1  UNL1        0.0470
      7  C          7.1020    0.9650   -0.3020 C.2     1  UNL1       -0.0470
      8  C          8.4210    1.2320   -0.6500 C.2     1  UNL1        0.0040
      9  C          6.4490    0.0030   -1.0280 C.2     1  UNL1        0.0040
     10  C          9.0150    0.5310   -1.6970 C.2     1  UNL1        0.0000
     11  C          7.0100   -0.7090   -2.0700 C.2     1  UNL1        0.0000
     12  C          8.3210   -0.4210   -2.3940 C.2     1  UNL1        0.0000
@<TRIPOS>BOND
     1    12    11    2
     2    12    10    1
     3    11     9    1
     4    10     8    2
     5     9     7    2
     6     8     7    1
     7     7     6    1
     8     1     6    1
     9     1     2    1
    10     2     3    2
    11     2     4    1
    12     5     4    1
