@<TRIPOS>MOLECULE
/home/cewinharhar/GITHUB/reincatalyze/data/processed/docking_pred/2023-Apr-25-1829_maxeplen10_maxtrainstep200_exh32_gamma099_lrac3e-4_lrcr1e-3/1a0a4210c7fbec369f44508687af2363e72d8760_ligand_2.pdbqt
 12 12 0 0 0
SMALL
GASTEIGER

@<TRIPOS>ATOM
      1  C          7.9530   -2.2320    0.8240 C.3     1  UNL1        0.1270
      2  C          8.7500   -3.3580    0.3080 C.2     1  UNL1        0.3030
      3  O          9.6170   -3.8760    1.0500 O.2     1  UNL1       -0.2520
      4  O          8.5580   -3.8500   -0.9690 O.3     1  UNL1       -0.4810
      5  H          8.1470   -4.7810   -1.1690 H       1  UNL1        0.2960
      6  C          7.3390   -1.5280   -0.3810 C.3     1  UNL1        0.0470
      7  C          6.5310   -0.3590    0.0100 C.2     1  UNL1       -0.0470
      8  C          5.9960   -0.3330    1.2920 C.2     1  UNL1        0.0040
      9  C          6.2570    0.7130   -0.8000 C.2     1  UNL1        0.0040
     10  C          5.2210    0.7520    1.6970 C.2     1  UNL1        0.0000
     11  C          5.4940    1.8020   -0.4290 C.2     1  UNL1        0.0000
     12  C          4.9750    1.7990    0.8510 C.2     1  UNL1        0.0000
@<TRIPOS>BOND
     1     5     4    1
     2     4     2    1
     3     9    11    1
     4     9     7    2
     5    11    12    2
     6     6     7    1
     7     6     1    1
     8     7     8    1
     9     2     1    1
    10     2     3    2
    11    12    10    1
    12     8    10    2
