@<TRIPOS>MOLECULE
/home/cewinharhar/GITHUB/reincatalyze/data/processed/docking_pred/2023-Apr-25-1829_maxeplen10_maxtrainstep200_exh32_gamma099_lrac3e-4_lrcr1e-3/1a0a4210c7fbec369f44508687af2363e72d8760_ligand_2.pdbqt
 12 12 0 0 0
SMALL
GASTEIGER

@<TRIPOS>ATOM
      1  C          8.4630   -0.6490   -2.1470 C.3     1  UNL1        0.1270
      2  C          8.4690   -1.9110   -2.9070 C.2     1  UNL1        0.3030
      3  O          9.5600   -2.5020   -3.0910 O.2     1  UNL1       -0.2520
      4  O          7.3040   -2.4500   -3.4160 O.3     1  UNL1       -0.4810
      5  H          6.4640   -1.8870   -3.6460 H       1  UNL1        0.2960
      6  C          7.0290   -0.1340   -2.1440 C.3     1  UNL1        0.0470
      7  C          6.4890    0.0010   -0.7800 C.2     1  UNL1       -0.0470
      8  C          5.8570    1.1920   -0.4420 C.2     1  UNL1        0.0040
      9  C          6.5660   -0.9610    0.1940 C.2     1  UNL1        0.0040
     10  C          5.3390    1.3600    0.8410 C.2     1  UNL1        0.0000
     11  C          6.0630   -0.8250    1.4720 C.2     1  UNL1        0.0000
     12  C          5.4410    0.3700    1.7800 C.2     1  UNL1        0.0000
@<TRIPOS>BOND
     1     5     4    1
     2     4     2    1
     3     3     2    2
     4     2     1    1
     5     1     6    1
     6     6     7    1
     7     7     8    2
     8     7     9    1
     9     8    10    1
    10     9    11    2
    11    10    12    2
    12    11    12    1
