MODEL 1
REMARK VINA RESULT:      -7.3      0.000      0.000
REMARK SMILES O=C(O)CCc1ccccc1
REMARK SMILES IDX 4 1 2 2 1 3 3 4 5 6 6 7 7 8 11 9 8 10 10 11 9 12
REMARK H PARENT 3 5
REMARK Flexibility Score: inf
ROOT
ATOM      1  C   UNL     1       8.463  -0.649  -2.147  1.00  0.00     0.127 C 
ENDROOT
BRANCH   1   2
ATOM      2  C   UNL     1       8.469  -1.911  -2.907  1.00  0.00     0.303 C 
ATOM      3  O   UNL     1       9.560  -2.502  -3.091  1.00  0.00    -0.252 OA
BRANCH   2   4
ATOM      4  O   UNL     1       7.304  -2.450  -3.416  1.00  0.00    -0.481 OA
ATOM      5  H   UNL     1       6.464  -1.887  -3.646  1.00  0.00     0.296 HD
ENDBRANCH   2   4
ENDBRANCH   1   2
BRANCH   1   6
ATOM      6  C   UNL     1       7.029  -0.134  -2.144  1.00  0.00     0.047 C 
BRANCH   6   7
ATOM      7  C   UNL     1       6.489   0.001  -0.780  1.00  0.00    -0.047 A 
ATOM      8  C   UNL     1       5.857   1.192  -0.442  1.00  0.00     0.004 A 
ATOM      9  C   UNL     1       6.566  -0.961   0.194  1.00  0.00     0.004 A 
ATOM     10  C   UNL     1       5.339   1.360   0.841  1.00  0.00     0.000 A 
ATOM     11  C   UNL     1       6.063  -0.825   1.472  1.00  0.00     0.000 A 
ATOM     12  C   UNL     1       5.441   0.370   1.780  1.00  0.00     0.000 A 
ENDBRANCH   6   7
ENDBRANCH   1   6
TORSDOF 4
ENDMDL
MODEL 2
REMARK VINA RESULT:      -7.2      0.120      1.729
REMARK SMILES O=C(O)CCc1ccccc1
REMARK SMILES IDX 4 1 2 2 1 3 3 4 5 6 6 7 7 8 11 9 8 10 10 11 9 12
REMARK H PARENT 3 5
REMARK Flexibility Score: inf
ROOT
ATOM      1  C   UNL     1       8.429  -0.703  -2.057  1.00  0.00     0.127 C 
ENDROOT
BRANCH   1   2
ATOM      2  C   UNL     1       8.403  -1.937  -2.862  1.00  0.00     0.303 C 
ATOM      3  O   UNL     1       7.295  -2.401  -3.221  1.00  0.00    -0.252 OA
BRANCH   2   4
ATOM      4  O   UNL     1       9.568  -2.584  -3.225  1.00  0.00    -0.481 OA
ATOM      5  H   UNL     1      10.444  -2.542  -2.672  1.00  0.00     0.296 HD
ENDBRANCH   2   4
ENDBRANCH   1   2
BRANCH   1   6
ATOM      6  C   UNL     1       7.033  -0.094  -2.124  1.00  0.00     0.047 C 
BRANCH   6   7
ATOM      7  C   UNL     1       6.459   0.128  -0.785  1.00  0.00    -0.047 A 
ATOM      8  C   UNL     1       6.582  -0.888   0.156  1.00  0.00     0.004 A 
ATOM      9  C   UNL     1       5.803   1.265  -0.391  1.00  0.00     0.004 A 
ATOM     10  C   UNL     1       6.047  -0.717   1.431  1.00  0.00     0.000 A 
ATOM     11  C   UNL     1       5.262   1.464   0.864  1.00  0.00     0.000 A 
ATOM     12  C   UNL     1       5.399   0.437   1.777  1.00  0.00     0.000 A 
ENDBRANCH   6   7
ENDBRANCH   1   6
TORSDOF 4
ENDMDL
MODEL 3
REMARK VINA RESULT:      -6.8      3.372      5.067
REMARK SMILES O=C(O)CCc1ccccc1
REMARK SMILES IDX 4 1 2 2 1 3 3 4 5 6 6 7 7 8 11 9 8 10 10 11 9 12
REMARK H PARENT 3 5
REMARK Flexibility Score: inf
ROOT
ATOM      1  C   UNL     1       4.978   1.788   0.682  1.00  0.00     0.127 C 
ENDROOT
BRANCH   1   2
ATOM      2  C   UNL     1       4.482   1.131   1.904  1.00  0.00     0.303 C 
ATOM      3  O   UNL     1       5.193   0.256   2.452  1.00  0.00    -0.252 OA
BRANCH   2   4
ATOM      4  O   UNL     1       3.257   1.460   2.452  1.00  0.00    -0.481 OA
ATOM      5  H   UNL     1       2.739   2.327   2.217  1.00  0.00     0.296 HD
ENDBRANCH   2   4
ENDBRANCH   1   2
BRANCH   1   6
ATOM      6  C   UNL     1       6.501   1.783   0.757  1.00  0.00     0.047 C 
BRANCH   6   7
ATOM      7  C   UNL     1       7.108   1.002  -0.335  1.00  0.00    -0.047 A 
ATOM      8  C   UNL     1       8.446   1.227  -0.634  1.00  0.00     0.004 A 
ATOM      9  C   UNL     1       6.451   0.065  -1.090  1.00  0.00     0.004 A 
ATOM     10  C   UNL     1       9.054   0.513  -1.664  1.00  0.00     0.000 A 
ATOM     11  C   UNL     1       7.025  -0.659  -2.116  1.00  0.00     0.000 A 
ATOM     12  C   UNL     1       8.356  -0.412  -2.391  1.00  0.00     0.000 A 
ENDBRANCH   6   7
ENDBRANCH   1   6
TORSDOF 4
ENDMDL
MODEL 4
REMARK VINA RESULT:      -6.6      1.899      2.656
REMARK SMILES O=C(O)CCc1ccccc1
REMARK SMILES IDX 4 1 2 2 1 3 3 4 5 6 6 7 7 8 11 9 8 10 10 11 9 12
REMARK H PARENT 3 5
REMARK Flexibility Score: inf
ROOT
ATOM      1  C   UNL     1       8.198   0.279  -2.273  1.00  0.00     0.127 C 
ENDROOT
BRANCH   1   2
ATOM      2  C   UNL     1       9.327   0.401  -1.333  1.00  0.00     0.303 C 
ATOM      3  O   UNL     1       9.412  -0.411  -0.382  1.00  0.00    -0.252 OA
BRANCH   2   4
ATOM      4  O   UNL     1      10.285   1.385  -1.483  1.00  0.00    -0.481 OA
ATOM      5  H   UNL     1      10.096   2.308  -1.916  1.00  0.00     0.296 HD
ENDBRANCH   2   4
ENDBRANCH   1   2
BRANCH   1   6
ATOM      6  C   UNL     1       7.107  -0.514  -1.563  1.00  0.00     0.047 C 
BRANCH   6   7
ATOM      7  C   UNL     1       6.326   0.323  -0.635  1.00  0.00    -0.047 A 
ATOM      8  C   UNL     1       6.120  -0.149   0.656  1.00  0.00     0.004 A 
ATOM      9  C   UNL     1       5.777   1.540  -0.948  1.00  0.00     0.004 A 
ATOM     10  C   UNL     1       5.381   0.611   1.560  1.00  0.00     0.000 A 
ATOM     11  C   UNL     1       5.041   2.316  -0.075  1.00  0.00     0.000 A 
ATOM     12  C   UNL     1       4.852   1.820   1.200  1.00  0.00     0.000 A 
ENDBRANCH   6   7
ENDBRANCH   1   6
TORSDOF 4
ENDMDL
MODEL 5
REMARK VINA RESULT:      -6.6      2.007      2.745
REMARK SMILES O=C(O)CCc1ccccc1
REMARK SMILES IDX 4 1 2 2 1 3 3 4 5 6 6 7 7 8 11 9 8 10 10 11 9 12
REMARK H PARENT 3 5
REMARK Flexibility Score: inf
ROOT
ATOM      1  C   UNL     1       7.953  -2.232   0.824  1.00  0.00     0.127 C 
ENDROOT
BRANCH   1   2
ATOM      2  C   UNL     1       8.750  -3.358   0.308  1.00  0.00     0.303 C 
ATOM      3  O   UNL     1       9.617  -3.876   1.050  1.00  0.00    -0.252 OA
BRANCH   2   4
ATOM      4  O   UNL     1       8.558  -3.850  -0.969  1.00  0.00    -0.481 OA
ATOM      5  H   UNL     1       8.147  -4.781  -1.169  1.00  0.00     0.296 HD
ENDBRANCH   2   4
ENDBRANCH   1   2
BRANCH   1   6
ATOM      6  C   UNL     1       7.339  -1.528  -0.381  1.00  0.00     0.047 C 
BRANCH   6   7
ATOM      7  C   UNL     1       6.531  -0.359   0.010  1.00  0.00    -0.047 A 
ATOM      8  C   UNL     1       5.996  -0.333   1.292  1.00  0.00     0.004 A 
ATOM      9  C   UNL     1       6.257   0.713  -0.800  1.00  0.00     0.004 A 
ATOM     10  C   UNL     1       5.221   0.752   1.697  1.00  0.00     0.000 A 
ATOM     11  C   UNL     1       5.494   1.802  -0.429  1.00  0.00     0.000 A 
ATOM     12  C   UNL     1       4.975   1.799   0.851  1.00  0.00     0.000 A 
ENDBRANCH   6   7
ENDBRANCH   1   6
TORSDOF 4
ENDMDL
