@<TRIPOS>MOLECULE
/home/cewinharhar/GITHUB/reincatalyze/data/processed/docking_pred/2023-Apr-25-1829_maxeplen10_maxtrainstep200_exh32_gamma099_lrac3e-4_lrcr1e-3/1a0a4210c7fbec369f44508687af2363e72d8760_ligand_2.pdbqt
 12 12 0 0 0
SMALL
GASTEIGER

@<TRIPOS>ATOM
      1  C          8.4290   -0.7030   -2.0570 C.3     1  UNL1        0.1270
      2  C          8.4030   -1.9370   -2.8620 C.2     1  UNL1        0.3030
      3  O          7.2950   -2.4010   -3.2210 O.2     1  UNL1       -0.2520
      4  O          9.5680   -2.5840   -3.2250 O.3     1  UNL1       -0.4810
      5  H         10.4440   -2.5420   -2.6720 H       1  UNL1        0.2960
      6  C          7.0330   -0.0940   -2.1240 C.3     1  UNL1        0.0470
      7  C          6.4590    0.1280   -0.7850 C.2     1  UNL1       -0.0470
      8  C          6.5820   -0.8880    0.1560 C.2     1  UNL1        0.0040
      9  C          5.8030    1.2650   -0.3910 C.2     1  UNL1        0.0040
     10  C          6.0470   -0.7170    1.4310 C.2     1  UNL1        0.0000
     11  C          5.2620    1.4640    0.8640 C.2     1  UNL1        0.0000
     12  C          5.3990    0.4370    1.7770 C.2     1  UNL1        0.0000
@<TRIPOS>BOND
     1     4     2    1
     2     4     5    1
     3     3     2    2
     4     2     1    1
     5     6     1    1
     6     6     7    1
     7     7     9    2
     8     7     8    1
     9     9    11    1
    10     8    10    2
    11    11    12    2
    12    10    12    1
