@<TRIPOS>MOLECULE
/home/cewinharhar/GITHUB/reincatalyze/data/processed/docking_pred/2023-Apr-25-1829_maxeplen10_maxtrainstep200_exh32_gamma099_lrac3e-4_lrcr1e-3/1a0a4210c7fbec369f44508687af2363e72d8760_ligand_2.pdbqt
 12 12 0 0 0
SMALL
GASTEIGER

@<TRIPOS>ATOM
      1  C          4.9780    1.7880    0.6820 C.3     1  UNL1        0.1270
      2  C          4.4820    1.1310    1.9040 C.2     1  UNL1        0.3030
      3  O          5.1930    0.2560    2.4520 O.2     1  UNL1       -0.2520
      4  O          3.2570    1.4600    2.4520 O.3     1  UNL1       -0.4810
      5  H          2.7390    2.3270    2.2170 H       1  UNL1        0.2960
      6  C          6.5010    1.7830    0.7570 C.3     1  UNL1        0.0470
      7  C          7.1080    1.0020   -0.3350 C.2     1  UNL1       -0.0470
      8  C          8.4460    1.2270   -0.6340 C.2     1  UNL1        0.0040
      9  C          6.4510    0.0650   -1.0900 C.2     1  UNL1        0.0040
     10  C          9.0540    0.5130   -1.6640 C.2     1  UNL1        0.0000
     11  C          7.0250   -0.6590   -2.1160 C.2     1  UNL1        0.0000
     12  C          8.3560   -0.4120   -2.3910 C.2     1  UNL1        0.0000
@<TRIPOS>BOND
     1    12    11    2
     2    12    10    1
     3    11     9    1
     4    10     8    2
     5     9     7    2
     6     8     7    1
     7     7     6    1
     8     1     6    1
     9     1     2    1
    10     2     3    2
    11     2     4    1
    12     5     4    1
