@<TRIPOS>MOLECULE
/home/cewinharhar/GITHUB/reincatalyze/data/processed/docking_pred/2023-Apr-25-1829_maxeplen10_maxtrainstep200_exh32_gamma099_lrac3e-4_lrcr1e-3/1a0a4210c7fbec369f44508687af2363e72d8760_ligand_2.pdbqt
 12 12 0 0 0
SMALL
GASTEIGER

@<TRIPOS>ATOM
      1  C          8.1980    0.2790   -2.2730 C.3     1  UNL1        0.1270
      2  C          9.3270    0.4010   -1.3330 C.2     1  UNL1        0.3030
      3  O          9.4120   -0.4110   -0.3820 O.2     1  UNL1       -0.2520
      4  O         10.2850    1.3850   -1.4830 O.3     1  UNL1       -0.4810
      5  H         10.0960    2.3080   -1.9160 H       1  UNL1        0.2960
      6  C          7.1070   -0.5140   -1.5630 C.3     1  UNL1        0.0470
      7  C          6.3260    0.3230   -0.6350 C.2     1  UNL1       -0.0470
      8  C          6.1200   -0.1490    0.6560 C.2     1  UNL1        0.0040
      9  C          5.7770    1.5400   -0.9480 C.2     1  UNL1        0.0040
     10  C          5.3810    0.6110    1.5600 C.2     1  UNL1        0.0000
     11  C          5.0410    2.3160   -0.0750 C.2     1  UNL1        0.0000
     12  C          4.8520    1.8200    1.2000 C.2     1  UNL1        0.0000
@<TRIPOS>BOND
     1     1     6    1
     2     1     2    1
     3     5     4    1
     4     6     7    1
     5     4     2    1
     6     2     3    2
     7     9     7    2
     8     9    11    1
     9     7     8    1
    10    11    12    2
    11     8    10    2
    12    12    10    1
