@<TRIPOS>MOLECULE
/home/cewinharhar/GITHUB/reincatalyze/data/processed/docking_pred/2023-Apr-25-1829_maxeplen10_maxtrainstep200_exh32_gamma099_lrac3e-4_lrcr1e-3/1e16add1d5649bf0b13dd0d86c7d3fc630d89625_ligand_2.pdbqt
 12 12 0 0 0
SMALL
GASTEIGER

@<TRIPOS>ATOM
      1  C          4.9910    1.7790    0.7620 C.3     1  UNL1        0.1270
      2  C          4.4510    1.0980    1.9520 C.2     1  UNL1        0.3030
      3  O          5.1240    0.1840    2.4840 O.2     1  UNL1       -0.2520
      4  O          3.2260    1.4470    2.4870 O.3     1  UNL1       -0.4810
      5  H          2.3290    1.0160    2.1960 H       1  UNL1        0.2960
      6  C          6.5100    1.7580    0.8850 C.3     1  UNL1        0.0470
      7  C          7.1510    1.0800   -0.2560 C.2     1  UNL1       -0.0470
      8  C          6.3780    0.2150   -1.0210 C.2     1  UNL1        0.0040
      9  C          8.4630    1.2330   -0.6240 C.2     1  UNL1        0.0040
     10  C          6.9500   -0.4490   -2.1040 C.2     1  UNL1        0.0000
     11  C          9.0580    0.5900   -1.6910 C.2     1  UNL1        0.0000
     12  C          8.2650   -0.2650   -2.4320 C.2     1  UNL1        0.0000
@<TRIPOS>BOND
     1    12    10    2
     2    12    11    1
     3    10     8    1
     4    11     9    2
     5     8     7    2
     6     9     7    1
     7     7     6    1
     8     1     6    1
     9     1     2    1
    10     2     3    2
    11     2     4    1
    12     5     4    1
