@<TRIPOS>MOLECULE
/home/cewinharhar/GITHUB/reincatalyze/data/processed/docking_pred/2023-Apr-25-1829_maxeplen10_maxtrainstep200_exh32_gamma099_lrac3e-4_lrcr1e-3/1e16add1d5649bf0b13dd0d86c7d3fc630d89625_ligand_2.pdbqt
 12 12 0 0 0
SMALL
GASTEIGER

@<TRIPOS>ATOM
      1  C          5.5880    2.8620   -0.0810 C.3     1  UNL1        0.1270
      2  C          6.2820    3.8420    0.7720 C.2     1  UNL1        0.3030
      3  O          6.9190    4.7750    0.2280 O.2     1  UNL1       -0.2520
      4  O          6.2410    3.7530    2.1510 O.3     1  UNL1       -0.4810
      5  H          5.7740    2.9810    2.6610 H       1  UNL1        0.2960
      6  C          4.9560    1.8290    0.8450 C.3     1  UNL1        0.0470
      7  C          5.7250    0.5720    0.8820 C.2     1  UNL1       -0.0470
      8  C          5.7890   -0.1200    2.0850 C.2     1  UNL1        0.0040
      9  C          6.3930    0.0290   -0.1850 C.2     1  UNL1        0.0040
     10  C          6.5110   -1.3090    2.1610 C.2     1  UNL1        0.0000
     11  C          7.1160   -1.1460   -0.1420 C.2     1  UNL1        0.0000
     12  C          7.1630   -1.8120    1.0680 C.2     1  UNL1        0.0000
@<TRIPOS>BOND
     1     9    11    1
     2     9     7    2
     3    11    12    2
     4     1     2    1
     5     1     6    1
     6     3     2    2
     7     2     4    1
     8     6     7    1
     9     7     8    1
    10    12    10    1
    11     8    10    2
    12     4     5    1
