@<TRIPOS>MOLECULE
/home/cewinharhar/GITHUB/reincatalyze/data/processed/docking_pred/2023-Apr-25-1829_maxeplen10_maxtrainstep200_exh32_gamma099_lrac3e-4_lrcr1e-3/1e16add1d5649bf0b13dd0d86c7d3fc630d89625_ligand_2.pdbqt
 12 12 0 0 0
SMALL
GASTEIGER

@<TRIPOS>ATOM
      1  C          8.4410   -0.6190   -2.1140 C.3     1  UNL1        0.1270
      2  C          8.4470   -1.8860   -2.8670 C.2     1  UNL1        0.3030
      3  O          7.3560   -2.3570   -3.2670 O.2     1  UNL1       -0.2520
      4  O          9.6240   -2.5570   -3.1380 O.3     1  UNL1       -0.4810
      5  H         10.4510   -2.1100   -3.5740 H       1  UNL1        0.2960
      6  C          7.0180   -0.0760   -2.1620 C.3     1  UNL1        0.0470
      7  C          6.4600    0.1410   -0.8150 C.2     1  UNL1       -0.0470
      8  C          6.6030   -0.8740    0.1230 C.2     1  UNL1        0.0040
      9  C          5.8000    1.2730   -0.4120 C.2     1  UNL1        0.0040
     10  C          6.0830   -0.7080    1.4050 C.2     1  UNL1        0.0000
     11  C          5.2750    1.4670    0.8500 C.2     1  UNL1        0.0000
     12  C          5.4310    0.4410    1.7610 C.2     1  UNL1        0.0000
@<TRIPOS>BOND
     1     5     4    1
     2     3     2    2
     3     4     2    1
     4     2     1    1
     5     6     1    1
     6     6     7    1
     7     7     9    2
     8     7     8    1
     9     9    11    1
    10     8    10    2
    11    11    12    2
    12    10    12    1
