@<TRIPOS>MOLECULE
/home/cewinharhar/GITHUB/reincatalyze/data/processed/docking_pred/2023-Apr-25-1829_maxeplen10_maxtrainstep200_exh32_gamma099_lrac3e-4_lrcr1e-3/1e16add1d5649bf0b13dd0d86c7d3fc630d89625_ligand_2.pdbqt
 12 12 0 0 0
SMALL
GASTEIGER

@<TRIPOS>ATOM
      1  C          8.4630   -0.5210   -2.0840 C.3     1  UNL1        0.1270
      2  C          8.4710   -1.7980   -2.8200 C.2     1  UNL1        0.3030
      3  O          9.5660   -2.3750   -3.0170 O.2     1  UNL1       -0.2520
      4  O          7.3020   -2.3650   -3.2890 O.3     1  UNL1       -0.4810
      5  H          7.0250   -3.3460   -3.1000 H       1  UNL1        0.2960
      6  C          7.0270   -0.0090   -2.0910 C.3     1  UNL1        0.0470
      7  C          6.4670    0.0930   -0.7320 C.2     1  UNL1       -0.0470
      8  C          5.8000    1.2620   -0.3860 C.2     1  UNL1        0.0040
      9  C          6.5580   -0.8800    0.2290 C.2     1  UNL1        0.0040
     10  C          5.2610    1.3980    0.8920 C.2     1  UNL1        0.0000
     11  C          6.0350   -0.7760    1.5030 C.2     1  UNL1        0.0000
     12  C          5.3780    0.3980    1.8180 C.2     1  UNL1        0.0000
@<TRIPOS>BOND
     1     4     5    1
     2     4     2    1
     3     3     2    2
     4     2     1    1
     5     6     1    1
     6     6     7    1
     7     7     8    2
     8     7     9    1
     9     8    10    1
    10     9    11    2
    11    10    12    2
    12    11    12    1
