MODEL 1
REMARK VINA RESULT:      -6.7      0.000      0.000
REMARK SMILES O=C(O)CCc1ccccc1
REMARK SMILES IDX 4 1 2 2 1 3 3 4 5 6 6 7 7 8 11 9 8 10 10 11 9 12
REMARK H PARENT 3 5
REMARK Flexibility Score: inf
ROOT
ATOM      1  C   UNL     1       4.991   1.779   0.762  1.00  0.00     0.127 C 
ENDROOT
BRANCH   1   2
ATOM      2  C   UNL     1       4.451   1.098   1.952  1.00  0.00     0.303 C 
ATOM      3  O   UNL     1       5.124   0.184   2.484  1.00  0.00    -0.252 OA
BRANCH   2   4
ATOM      4  O   UNL     1       3.226   1.447   2.487  1.00  0.00    -0.481 OA
ATOM      5  H   UNL     1       2.329   1.016   2.196  1.00  0.00     0.296 HD
ENDBRANCH   2   4
ENDBRANCH   1   2
BRANCH   1   6
ATOM      6  C   UNL     1       6.510   1.758   0.885  1.00  0.00     0.047 C 
BRANCH   6   7
ATOM      7  C   UNL     1       7.151   1.080  -0.256  1.00  0.00    -0.047 A 
ATOM      8  C   UNL     1       6.378   0.215  -1.021  1.00  0.00     0.004 A 
ATOM      9  C   UNL     1       8.463   1.233  -0.624  1.00  0.00     0.004 A 
ATOM     10  C   UNL     1       6.950  -0.449  -2.104  1.00  0.00     0.000 A 
ATOM     11  C   UNL     1       9.058   0.590  -1.691  1.00  0.00     0.000 A 
ATOM     12  C   UNL     1       8.265  -0.265  -2.432  1.00  0.00     0.000 A 
ENDBRANCH   6   7
ENDBRANCH   1   6
TORSDOF 4
ENDMDL
MODEL 2
REMARK VINA RESULT:      -6.7      3.324      5.060
REMARK SMILES O=C(O)CCc1ccccc1
REMARK SMILES IDX 4 1 2 2 1 3 3 4 5 6 6 7 7 8 11 9 8 10 10 11 9 12
REMARK H PARENT 3 5
REMARK Flexibility Score: inf
ROOT
ATOM      1  C   UNL     1       8.463  -0.521  -2.084  1.00  0.00     0.127 C 
ENDROOT
BRANCH   1   2
ATOM      2  C   UNL     1       8.471  -1.798  -2.820  1.00  0.00     0.303 C 
ATOM      3  O   UNL     1       9.566  -2.375  -3.017  1.00  0.00    -0.252 OA
BRANCH   2   4
ATOM      4  O   UNL     1       7.302  -2.365  -3.289  1.00  0.00    -0.481 OA
ATOM      5  H   UNL     1       7.025  -3.346  -3.100  1.00  0.00     0.296 HD
ENDBRANCH   2   4
ENDBRANCH   1   2
BRANCH   1   6
ATOM      6  C   UNL     1       7.027  -0.009  -2.091  1.00  0.00     0.047 C 
BRANCH   6   7
ATOM      7  C   UNL     1       6.467   0.093  -0.732  1.00  0.00    -0.047 A 
ATOM      8  C   UNL     1       5.800   1.262  -0.386  1.00  0.00     0.004 A 
ATOM      9  C   UNL     1       6.558  -0.880   0.229  1.00  0.00     0.004 A 
ATOM     10  C   UNL     1       5.261   1.398   0.892  1.00  0.00     0.000 A 
ATOM     11  C   UNL     1       6.035  -0.776   1.503  1.00  0.00     0.000 A 
ATOM     12  C   UNL     1       5.378   0.398   1.818  1.00  0.00     0.000 A 
ENDBRANCH   6   7
ENDBRANCH   1   6
TORSDOF 4
ENDMDL
MODEL 3
REMARK VINA RESULT:      -6.7      3.327      5.154
REMARK SMILES O=C(O)CCc1ccccc1
REMARK SMILES IDX 4 1 2 2 1 3 3 4 5 6 6 7 7 8 11 9 8 10 10 11 9 12
REMARK H PARENT 3 5
REMARK Flexibility Score: inf
ROOT
ATOM      1  C   UNL     1       8.441  -0.619  -2.114  1.00  0.00     0.127 C 
ENDROOT
BRANCH   1   2
ATOM      2  C   UNL     1       8.447  -1.886  -2.867  1.00  0.00     0.303 C 
ATOM      3  O   UNL     1       7.356  -2.357  -3.267  1.00  0.00    -0.252 OA
BRANCH   2   4
ATOM      4  O   UNL     1       9.624  -2.557  -3.138  1.00  0.00    -0.481 OA
ATOM      5  H   UNL     1      10.451  -2.110  -3.574  1.00  0.00     0.296 HD
ENDBRANCH   2   4
ENDBRANCH   1   2
BRANCH   1   6
ATOM      6  C   UNL     1       7.018  -0.076  -2.162  1.00  0.00     0.047 C 
BRANCH   6   7
ATOM      7  C   UNL     1       6.460   0.141  -0.815  1.00  0.00    -0.047 A 
ATOM      8  C   UNL     1       6.603  -0.874   0.123  1.00  0.00     0.004 A 
ATOM      9  C   UNL     1       5.800   1.273  -0.412  1.00  0.00     0.004 A 
ATOM     10  C   UNL     1       6.083  -0.708   1.405  1.00  0.00     0.000 A 
ATOM     11  C   UNL     1       5.275   1.467   0.850  1.00  0.00     0.000 A 
ATOM     12  C   UNL     1       5.431   0.441   1.761  1.00  0.00     0.000 A 
ENDBRANCH   6   7
ENDBRANCH   1   6
TORSDOF 4
ENDMDL
MODEL 4
REMARK VINA RESULT:      -6.7      2.672      3.366
REMARK SMILES O=C(O)CCc1ccccc1
REMARK SMILES IDX 4 1 2 2 1 3 3 4 5 6 6 7 7 8 11 9 8 10 10 11 9 12
REMARK H PARENT 3 5
REMARK Flexibility Score: inf
ROOT
ATOM      1  C   UNL     1       5.588   2.862  -0.081  1.00  0.00     0.127 C 
ENDROOT
BRANCH   1   2
ATOM      2  C   UNL     1       6.282   3.842   0.772  1.00  0.00     0.303 C 
ATOM      3  O   UNL     1       6.919   4.775   0.228  1.00  0.00    -0.252 OA
BRANCH   2   4
ATOM      4  O   UNL     1       6.241   3.753   2.151  1.00  0.00    -0.481 OA
ATOM      5  H   UNL     1       5.774   2.981   2.661  1.00  0.00     0.296 HD
ENDBRANCH   2   4
ENDBRANCH   1   2
BRANCH   1   6
ATOM      6  C   UNL     1       4.956   1.829   0.845  1.00  0.00     0.047 C 
BRANCH   6   7
ATOM      7  C   UNL     1       5.725   0.572   0.882  1.00  0.00    -0.047 A 
ATOM      8  C   UNL     1       5.789  -0.120   2.085  1.00  0.00     0.004 A 
ATOM      9  C   UNL     1       6.393   0.029  -0.185  1.00  0.00     0.004 A 
ATOM     10  C   UNL     1       6.511  -1.309   2.161  1.00  0.00     0.000 A 
ATOM     11  C   UNL     1       7.116  -1.146  -0.142  1.00  0.00     0.000 A 
ATOM     12  C   UNL     1       7.163  -1.812   1.068  1.00  0.00     0.000 A 
ENDBRANCH   6   7
ENDBRANCH   1   6
TORSDOF 4
ENDMDL
MODEL 5
REMARK VINA RESULT:      -6.6      3.652      5.350
REMARK SMILES O=C(O)CCc1ccccc1
REMARK SMILES IDX 4 1 2 2 1 3 3 4 5 6 6 7 7 8 11 9 8 10 10 11 9 12
REMARK H PARENT 3 5
REMARK Flexibility Score: inf
ROOT
ATOM      1  C   UNL     1       8.306  -1.070  -2.229  1.00  0.00     0.127 C 
ENDROOT
BRANCH   1   2
ATOM      2  C   UNL     1       8.584  -2.194  -3.140  1.00  0.00     0.303 C 
ATOM      3  O   UNL     1       7.631  -2.712  -3.770  1.00  0.00    -0.252 OA
BRANCH   2   4
ATOM      4  O   UNL     1       9.865  -2.682  -3.312  1.00  0.00    -0.481 OA
ATOM      5  H   UNL     1      10.347  -2.717  -4.229  1.00  0.00     0.296 HD
ENDBRANCH   2   4
ENDBRANCH   1   2
BRANCH   1   6
ATOM      6  C   UNL     1       7.553  -1.638  -1.032  1.00  0.00     0.047 C 
BRANCH   6   7
ATOM      7  C   UNL     1       6.747  -0.614  -0.345  1.00  0.00    -0.047 A 
ATOM      8  C   UNL     1       6.385   0.521  -1.060  1.00  0.00     0.004 A 
ATOM      9  C   UNL     1       6.327  -0.689   0.958  1.00  0.00     0.004 A 
ATOM     10  C   UNL     1       5.629   1.516  -0.442  1.00  0.00     0.000 A 
ATOM     11  C   UNL     1       5.577   0.278   1.597  1.00  0.00     0.000 A 
ATOM     12  C   UNL     1       5.233   1.395   0.862  1.00  0.00     0.000 A 
ENDBRANCH   6   7
ENDBRANCH   1   6
TORSDOF 4
ENDMDL
