@<TRIPOS>MOLECULE
/home/cewinharhar/GITHUB/reincatalyze/data/processed/docking_pred/2023-Apr-25-1829_maxeplen10_maxtrainstep200_exh32_gamma099_lrac3e-4_lrcr1e-3/1e16add1d5649bf0b13dd0d86c7d3fc630d89625_ligand_2.pdbqt
 12 12 0 0 0
SMALL
GASTEIGER

@<TRIPOS>ATOM
      1  C          8.3060   -1.0700   -2.2290 C.3     1  UNL1        0.1270
      2  C          8.5840   -2.1940   -3.1400 C.2     1  UNL1        0.3030
      3  O          7.6310   -2.7120   -3.7700 O.2     1  UNL1       -0.2520
      4  O          9.8650   -2.6820   -3.3120 O.3     1  UNL1       -0.4810
      5  H         10.3470   -2.7170   -4.2290 H       1  UNL1        0.2960
      6  C          7.5530   -1.6380   -1.0320 C.3     1  UNL1        0.0470
      7  C          6.7470   -0.6140   -0.3450 C.2     1  UNL1       -0.0470
      8  C          6.3850    0.5210   -1.0600 C.2     1  UNL1        0.0040
      9  C          6.3270   -0.6890    0.9580 C.2     1  UNL1        0.0040
     10  C          5.6290    1.5160   -0.4420 C.2     1  UNL1        0.0000
     11  C          5.5770    0.2780    1.5970 C.2     1  UNL1        0.0000
     12  C          5.2330    1.3950    0.8620 C.2     1  UNL1        0.0000
@<TRIPOS>BOND
     1     5     4    1
     2     3     2    2
     3     4     2    1
     4     2     1    1
     5     1     6    1
     6     8    10    1
     7     8     7    2
     8     6     7    1
     9    10    12    2
    10     7     9    1
    11    12    11    1
    12     9    11    2
