MODEL 1
REMARK VINA RESULT:      -7.4      0.000      0.000
REMARK SMILES O=C(O)CCc1ccccc1
REMARK SMILES IDX 4 1 2 2 1 3 3 4 5 6 6 7 7 8 11 9 8 10 10 11 9 12
REMARK H PARENT 3 5
REMARK Flexibility Score: inf
ROOT
ATOM      1  C   UNL     1       8.491  -0.705  -2.065  1.00  0.00     0.127 C 
ENDROOT
BRANCH   1   2
ATOM      2  C   UNL     1       8.475  -1.925  -2.891  1.00  0.00     0.303 C 
ATOM      3  O   UNL     1       9.551  -2.537  -3.087  1.00  0.00    -0.252 OA
BRANCH   2   4
ATOM      4  O   UNL     1       7.304  -2.403  -3.446  1.00  0.00    -0.481 OA
ATOM      5  H   UNL     1       7.069  -3.411  -3.509  1.00  0.00     0.296 HD
ENDBRANCH   2   4
ENDBRANCH   1   2
BRANCH   1   6
ATOM      6  C   UNL     1       7.103  -0.081  -2.161  1.00  0.00     0.047 C 
BRANCH   6   7
ATOM      7  C   UNL     1       6.500   0.139  -0.834  1.00  0.00    -0.047 A 
ATOM      8  C   UNL     1       6.646  -0.857   0.123  1.00  0.00     0.004 A 
ATOM      9  C   UNL     1       5.796   1.257  -0.468  1.00  0.00     0.004 A 
ATOM     10  C   UNL     1       6.084  -0.688   1.388  1.00  0.00     0.000 A 
ATOM     11  C   UNL     1       5.228   1.454   0.775  1.00  0.00     0.000 A 
ATOM     12  C   UNL     1       5.389   0.446   1.706  1.00  0.00     0.000 A 
ENDBRANCH   6   7
ENDBRANCH   1   6
TORSDOF 4
ENDMDL
MODEL 2
REMARK VINA RESULT:      -7.3      0.144      1.434
REMARK SMILES O=C(O)CCc1ccccc1
REMARK SMILES IDX 4 1 2 2 1 3 3 4 5 6 6 7 7 8 11 9 8 10 10 11 9 12
REMARK H PARENT 3 5
REMARK Flexibility Score: inf
ROOT
ATOM      1  C   UNL     1       8.432  -0.579  -2.226  1.00  0.00     0.127 C 
ENDROOT
BRANCH   1   2
ATOM      2  C   UNL     1       8.447  -1.876  -2.925  1.00  0.00     0.303 C 
ATOM      3  O   UNL     1       9.542  -2.465  -3.085  1.00  0.00    -0.252 OA
BRANCH   2   4
ATOM      4  O   UNL     1       7.284  -2.450  -3.402  1.00  0.00    -0.481 OA
ATOM      5  H   UNL     1       6.736  -2.063  -4.192  1.00  0.00     0.296 HD
ENDBRANCH   2   4
ENDBRANCH   1   2
BRANCH   1   6
ATOM      6  C   UNL     1       6.983  -0.108  -2.185  1.00  0.00     0.047 C 
BRANCH   6   7
ATOM      7  C   UNL     1       6.475   0.009  -0.807  1.00  0.00    -0.047 A 
ATOM      8  C   UNL     1       5.875   1.204  -0.431  1.00  0.00     0.004 A 
ATOM      9  C   UNL     1       6.554  -0.975   0.145  1.00  0.00     0.004 A 
ATOM     10  C   UNL     1       5.388   1.356   0.866  1.00  0.00     0.000 A 
ATOM     11  C   UNL     1       6.081  -0.856   1.437  1.00  0.00     0.000 A 
ATOM     12  C   UNL     1       5.491   0.344   1.782  1.00  0.00     0.000 A 
ENDBRANCH   6   7
ENDBRANCH   1   6
TORSDOF 4
ENDMDL
MODEL 3
REMARK VINA RESULT:      -7.3      0.590      1.041
REMARK SMILES O=C(O)CCc1ccccc1
REMARK SMILES IDX 4 1 2 2 1 3 3 4 5 6 6 7 7 8 11 9 8 10 10 11 9 12
REMARK H PARENT 3 5
REMARK Flexibility Score: inf
ROOT
ATOM      1  C   UNL     1       8.297  -0.877  -1.936  1.00  0.00     0.127 C 
ENDROOT
BRANCH   1   2
ATOM      2  C   UNL     1       8.412  -2.010  -2.871  1.00  0.00     0.303 C 
ATOM      3  O   UNL     1       9.545  -2.497  -3.096  1.00  0.00    -0.252 OA
BRANCH   2   4
ATOM      4  O   UNL     1       7.300  -2.541  -3.497  1.00  0.00    -0.481 OA
ATOM      5  H   UNL     1       7.083  -3.555  -3.516  1.00  0.00     0.296 HD
ENDBRANCH   2   4
ENDBRANCH   1   2
BRANCH   1   6
ATOM      6  C   UNL     1       7.506  -1.369  -0.730  1.00  0.00     0.047 C 
BRANCH   6   7
ATOM      7  C   UNL     1       6.641  -0.318  -0.166  1.00  0.00    -0.047 A 
ATOM      8  C   UNL     1       6.188  -0.474   1.138  1.00  0.00     0.004 A 
ATOM      9  C   UNL     1       6.239   0.810  -0.834  1.00  0.00     0.004 A 
ATOM     10  C   UNL     1       5.363   0.496   1.705  1.00  0.00     0.000 A 
ATOM     11  C   UNL     1       5.424   1.789  -0.301  1.00  0.00     0.000 A 
ATOM     12  C   UNL     1       4.989   1.606   0.997  1.00  0.00     0.000 A 
ENDBRANCH   6   7
ENDBRANCH   1   6
TORSDOF 4
ENDMDL
MODEL 4
REMARK VINA RESULT:      -6.8      3.371      5.090
REMARK SMILES O=C(O)CCc1ccccc1
REMARK SMILES IDX 4 1 2 2 1 3 3 4 5 6 6 7 7 8 11 9 8 10 10 11 9 12
REMARK H PARENT 3 5
REMARK Flexibility Score: inf
ROOT
ATOM      1  C   UNL     1       4.997   1.769   0.727  1.00  0.00     0.127 C 
ENDROOT
BRANCH   1   2
ATOM      2  C   UNL     1       4.466   1.109   1.933  1.00  0.00     0.303 C 
ATOM      3  O   UNL     1       5.147   0.211   2.480  1.00  0.00    -0.252 OA
BRANCH   2   4
ATOM      4  O   UNL     1       3.241   1.462   2.466  1.00  0.00    -0.481 OA
ATOM      5  H   UNL     1       3.105   1.732   3.458  1.00  0.00     0.296 HD
ENDBRANCH   2   4
ENDBRANCH   1   2
BRANCH   1   6
ATOM      6  C   UNL     1       6.518   1.707   0.815  1.00  0.00     0.047 C 
BRANCH   6   7
ATOM      7  C   UNL     1       7.107   0.937  -0.295  1.00  0.00    -0.047 A 
ATOM      8  C   UNL     1       8.417   1.219  -0.663  1.00  0.00     0.004 A 
ATOM      9  C   UNL     1       6.458  -0.040  -1.005  1.00  0.00     0.004 A 
ATOM     10  C   UNL     1       9.007   0.517  -1.712  1.00  0.00     0.000 A 
ATOM     11  C   UNL     1       7.015  -0.753  -2.048  1.00  0.00     0.000 A 
ATOM     12  C   UNL     1       8.318  -0.450  -2.391  1.00  0.00     0.000 A 
ENDBRANCH   6   7
ENDBRANCH   1   6
TORSDOF 4
ENDMDL
MODEL 5
REMARK VINA RESULT:      -6.6      1.916      2.643
REMARK SMILES O=C(O)CCc1ccccc1
REMARK SMILES IDX 4 1 2 2 1 3 3 4 5 6 6 7 7 8 11 9 8 10 10 11 9 12
REMARK H PARENT 3 5
REMARK Flexibility Score: inf
ROOT
ATOM      1  C   UNL     1       8.281   0.312  -2.188  1.00  0.00     0.127 C 
ENDROOT
BRANCH   1   2
ATOM      2  C   UNL     1       9.394   0.353  -1.224  1.00  0.00     0.303 C 
ATOM      3  O   UNL     1       9.403  -0.466  -0.274  1.00  0.00    -0.252 OA
BRANCH   2   4
ATOM      4  O   UNL     1      10.421   1.269  -1.348  1.00  0.00    -0.481 OA
ATOM      5  H   UNL     1      11.387   1.013  -1.627  1.00  0.00     0.296 HD
ENDBRANCH   2   4
ENDBRANCH   1   2
BRANCH   1   6
ATOM      6  C   UNL     1       7.172  -0.522  -1.556  1.00  0.00     0.047 C 
BRANCH   6   7
ATOM      7  C   UNL     1       6.370   0.256  -0.595  1.00  0.00    -0.047 A 
ATOM      8  C   UNL     1       5.859   1.479  -1.009  1.00  0.00     0.004 A 
ATOM      9  C   UNL     1       6.092  -0.133   0.690  1.00  0.00     0.004 A 
ATOM     10  C   UNL     1       5.101   2.247  -0.126  1.00  0.00     0.000 A 
ATOM     11  C   UNL     1       5.345   0.604   1.588  1.00  0.00     0.000 A 
ATOM     12  C   UNL     1       4.850   1.817   1.148  1.00  0.00     0.000 A 
ENDBRANCH   6   7
ENDBRANCH   1   6
TORSDOF 4
ENDMDL
