@<TRIPOS>MOLECULE
/home/cewinharhar/GITHUB/reincatalyze/data/processed/docking_pred/2023-Apr-25-1829_maxeplen10_maxtrainstep200_exh32_gamma099_lrac3e-4_lrcr1e-3/1e8ffecbec14ce573bf52adb8829230239be76a8_ligand_2.pdbqt
 12 12 0 0 0
SMALL
GASTEIGER

@<TRIPOS>ATOM
      1  C          8.4320   -0.5790   -2.2260 C.3     1  UNL1        0.1270
      2  C          8.4470   -1.8760   -2.9250 C.2     1  UNL1        0.3030
      3  O          9.5420   -2.4650   -3.0850 O.2     1  UNL1       -0.2520
      4  O          7.2840   -2.4500   -3.4020 O.3     1  UNL1       -0.4810
      5  H          6.7360   -2.0630   -4.1920 H       1  UNL1        0.2960
      6  C          6.9830   -0.1080   -2.1850 C.3     1  UNL1        0.0470
      7  C          6.4750    0.0090   -0.8070 C.2     1  UNL1       -0.0470
      8  C          5.8750    1.2040   -0.4310 C.2     1  UNL1        0.0040
      9  C          6.5540   -0.9750    0.1450 C.2     1  UNL1        0.0040
     10  C          5.3880    1.3560    0.8660 C.2     1  UNL1        0.0000
     11  C          6.0810   -0.8560    1.4370 C.2     1  UNL1        0.0000
     12  C          5.4910    0.3440    1.7820 C.2     1  UNL1        0.0000
@<TRIPOS>BOND
     1     5     4    1
     2     4     2    1
     3     3     2    2
     4     2     1    1
     5     1     6    1
     6     6     7    1
     7     7     8    2
     8     7     9    1
     9     8    10    1
    10     9    11    2
    11    10    12    2
    12    11    12    1
