@<TRIPOS>MOLECULE
/home/cewinharhar/GITHUB/reincatalyze/data/processed/docking_pred/2023-Apr-25-1829_maxeplen10_maxtrainstep200_exh32_gamma099_lrac3e-4_lrcr1e-3/1e8ffecbec14ce573bf52adb8829230239be76a8_ligand_2.pdbqt
 12 12 0 0 0
SMALL
GASTEIGER

@<TRIPOS>ATOM
      1  C          8.2970   -0.8770   -1.9360 C.3     1  UNL1        0.1270
      2  C          8.4120   -2.0100   -2.8710 C.2     1  UNL1        0.3030
      3  O          9.5450   -2.4970   -3.0960 O.2     1  UNL1       -0.2520
      4  O          7.3000   -2.5410   -3.4970 O.3     1  UNL1       -0.4810
      5  H          7.0830   -3.5550   -3.5160 H       1  UNL1        0.2960
      6  C          7.5060   -1.3690   -0.7300 C.3     1  UNL1        0.0470
      7  C          6.6410   -0.3180   -0.1660 C.2     1  UNL1       -0.0470
      8  C          6.1880   -0.4740    1.1380 C.2     1  UNL1        0.0040
      9  C          6.2390    0.8100   -0.8340 C.2     1  UNL1        0.0040
     10  C          5.3630    0.4960    1.7050 C.2     1  UNL1        0.0000
     11  C          5.4240    1.7890   -0.3010 C.2     1  UNL1        0.0000
     12  C          4.9890    1.6060    0.9970 C.2     1  UNL1        0.0000
@<TRIPOS>BOND
     1     5     4    1
     2     4     2    1
     3     3     2    2
     4     2     1    1
     5     1     6    1
     6     9    11    1
     7     9     7    2
     8     6     7    1
     9    11    12    2
    10     7     8    1
    11    12    10    1
    12     8    10    2
