@<TRIPOS>MOLECULE
/home/cewinharhar/GITHUB/reincatalyze/data/processed/docking_pred/2023-Apr-25-1829_maxeplen10_maxtrainstep200_exh32_gamma099_lrac3e-4_lrcr1e-3/1e8ffecbec14ce573bf52adb8829230239be76a8_ligand_2.pdbqt
 12 12 0 0 0
SMALL
GASTEIGER

@<TRIPOS>ATOM
      1  C          8.4910   -0.7050   -2.0650 C.3     1  UNL1        0.1270
      2  C          8.4750   -1.9250   -2.8910 C.2     1  UNL1        0.3030
      3  O          9.5510   -2.5370   -3.0870 O.2     1  UNL1       -0.2520
      4  O          7.3040   -2.4030   -3.4460 O.3     1  UNL1       -0.4810
      5  H          7.0690   -3.4110   -3.5090 H       1  UNL1        0.2960
      6  C          7.1030   -0.0810   -2.1610 C.3     1  UNL1        0.0470
      7  C          6.5000    0.1390   -0.8340 C.2     1  UNL1       -0.0470
      8  C          6.6460   -0.8570    0.1230 C.2     1  UNL1        0.0040
      9  C          5.7960    1.2570   -0.4680 C.2     1  UNL1        0.0040
     10  C          6.0840   -0.6880    1.3880 C.2     1  UNL1        0.0000
     11  C          5.2280    1.4540    0.7750 C.2     1  UNL1        0.0000
     12  C          5.3890    0.4460    1.7060 C.2     1  UNL1        0.0000
@<TRIPOS>BOND
     1     5     4    1
     2     4     2    1
     3     3     2    2
     4     2     1    1
     5     6     1    1
     6     6     7    1
     7     7     9    2
     8     7     8    1
     9     9    11    1
    10     8    10    2
    11    11    12    2
    12    10    12    1
