@<TRIPOS>MOLECULE
/home/cewinharhar/GITHUB/reincatalyze/data/processed/docking_pred/2023-Apr-25-1829_maxeplen10_maxtrainstep200_exh32_gamma099_lrac3e-4_lrcr1e-3/1ec3d4ded79b7f38a98788c4b0a5da992fc20b58_ligand_2.pdbqt
 12 12 0 0 0
SMALL
GASTEIGER

@<TRIPOS>ATOM
      1  C          8.4340   -0.6930   -2.0940 C.3     1  UNL1        0.1270
      2  C          8.4060   -1.9370   -2.8830 C.2     1  UNL1        0.3030
      3  O          7.2970   -2.4060   -3.2340 O.2     1  UNL1       -0.2520
      4  O          9.5700   -2.5890   -3.2410 O.3     1  UNL1       -0.4810
      5  H          9.8590   -2.7470   -4.2240 H       1  UNL1        0.2960
      6  C          7.0370   -0.0870   -2.1620 C.3     1  UNL1        0.0470
      7  C          6.4650    0.1440   -0.8240 C.2     1  UNL1       -0.0470
      8  C          6.6190   -0.8510    0.1330 C.2     1  UNL1        0.0040
      9  C          5.7810    1.2710   -0.4460 C.2     1  UNL1        0.0040
     10  C          6.0860   -0.6720    1.4090 C.2     1  UNL1        0.0000
     11  C          5.2430    1.4780    0.8080 C.2     1  UNL1        0.0000
     12  C          5.4110    0.4710    1.7390 C.2     1  UNL1        0.0000
@<TRIPOS>BOND
     1     5     4    1
     2     4     2    1
     3     3     2    2
     4     2     1    1
     5     6     1    1
     6     6     7    1
     7     7     9    2
     8     7     8    1
     9     9    11    1
    10     8    10    2
    11    11    12    2
    12    10    12    1
