@<TRIPOS>MOLECULE
/home/cewinharhar/GITHUB/reincatalyze/data/processed/docking_pred/2023-Apr-25-1829_maxeplen10_maxtrainstep200_exh32_gamma099_lrac3e-4_lrcr1e-3/1ec3d4ded79b7f38a98788c4b0a5da992fc20b58_ligand_2.pdbqt
 12 12 0 0 0
SMALL
GASTEIGER

@<TRIPOS>ATOM
      1  C          8.1990   -1.5270    1.1220 C.3     1  UNL1        0.1270
      2  C          8.4610   -2.7300    0.3120 C.2     1  UNL1        0.3030
      3  O          9.0850   -3.6850    0.8320 O.2     1  UNL1       -0.2520
      4  O          8.0340   -2.8230   -0.9980 O.3     1  UNL1       -0.4810
      5  H          8.1870   -2.0800   -1.7050 H       1  UNL1        0.2960
      6  C          6.6870   -1.4170    1.2840 C.3     1  UNL1        0.0470
      7  C          6.1600   -0.1530    0.7400 C.2     1  UNL1       -0.0470
      8  C          5.3770    0.6400    1.5700 C.2     1  UNL1        0.0040
      9  C          6.3800    0.3060   -0.5330 C.2     1  UNL1        0.0040
     10  C          4.8550    1.8400    1.0900 C.2     1  UNL1        0.0000
     11  C          5.8780    1.4890   -1.0380 C.2     1  UNL1        0.0000
     12  C          5.1020    2.2550   -0.1900 C.2     1  UNL1        0.0000
@<TRIPOS>BOND
     1     5     4    1
     2    11     9    1
     3    11    12    2
     4     4     2    1
     5     9     7    2
     6    12    10    1
     7     2     3    2
     8     2     1    1
     9     7     6    1
    10     7     8    1
    11    10     8    2
    12     1     6    1
