@<TRIPOS>MOLECULE
/home/cewinharhar/GITHUB/reincatalyze/data/processed/docking_pred/2023-Apr-25-1829_maxeplen10_maxtrainstep200_exh32_gamma099_lrac3e-4_lrcr1e-3/1ec3d4ded79b7f38a98788c4b0a5da992fc20b58_ligand_2.pdbqt
 12 12 0 0 0
SMALL
GASTEIGER

@<TRIPOS>ATOM
      1  C          8.2130    0.3060   -2.0480 C.3     1  UNL1        0.1270
      2  C          9.3990    0.3920   -1.1780 C.2     1  UNL1        0.3030
      3  O          9.4850   -0.3800   -0.1940 O.2     1  UNL1       -0.2520
      4  O         10.4110    1.2980   -1.4290 O.3     1  UNL1       -0.4810
      5  H         10.3270    2.3160   -1.2480 H       1  UNL1        0.2960
      6  C          7.2040   -0.5930   -1.3420 C.3     1  UNL1        0.0470
      7  C          6.3740    0.1530   -0.3790 C.2     1  UNL1       -0.0470
      8  C          6.1450   -0.4190    0.8670 C.2     1  UNL1        0.0040
      9  C          5.7990    1.3740   -0.6180 C.2     1  UNL1        0.0040
     10  C          5.3600    0.2530    1.8020 C.2     1  UNL1        0.0000
     11  C          5.0180    2.0640    0.2870 C.2     1  UNL1        0.0000
     12  C          4.8070    1.4710    1.5160 C.2     1  UNL1        0.0000
@<TRIPOS>BOND
     1     1     6    1
     2     1     2    1
     3     4     5    1
     4     4     2    1
     5     6     7    1
     6     2     3    2
     7     9     7    2
     8     9    11    1
     9     7     8    1
    10    11    12    2
    11     8    10    2
    12    12    10    1
