MODEL 1
REMARK VINA RESULT:      -7.3      0.000      0.000
REMARK SMILES O=C(O)CCc1ccccc1
REMARK SMILES IDX 4 1 2 2 1 3 3 4 5 6 6 7 7 8 11 9 8 10 10 11 9 12
REMARK H PARENT 3 5
REMARK Flexibility Score: inf
ROOT
ATOM      1  C   UNL     1       8.472  -0.591  -2.226  1.00  0.00     0.127 C 
ENDROOT
BRANCH   1   2
ATOM      2  C   UNL     1       8.477  -1.884  -2.931  1.00  0.00     0.303 C 
ATOM      3  O   UNL     1       9.570  -2.474  -3.106  1.00  0.00    -0.252 OA
BRANCH   2   4
ATOM      4  O   UNL     1       7.309  -2.454  -3.399  1.00  0.00    -0.481 OA
ATOM      5  H   UNL     1       6.513  -2.714  -2.787  1.00  0.00     0.296 HD
ENDBRANCH   2   4
ENDBRANCH   1   2
BRANCH   1   6
ATOM      6  C   UNL     1       7.031  -0.095  -2.208  1.00  0.00     0.047 C 
BRANCH   6   7
ATOM      7  C   UNL     1       6.505   0.036  -0.838  1.00  0.00    -0.047 A 
ATOM      8  C   UNL     1       5.897   1.234  -0.483  1.00  0.00     0.004 A 
ATOM      9  C   UNL     1       6.573  -0.937   0.126  1.00  0.00     0.004 A 
ATOM     10  C   UNL     1       5.392   1.399   0.805  1.00  0.00     0.000 A 
ATOM     11  C   UNL     1       6.083  -0.804   1.410  1.00  0.00     0.000 A 
ATOM     12  C   UNL     1       5.485   0.398   1.734  1.00  0.00     0.000 A 
ENDBRANCH   6   7
ENDBRANCH   1   6
TORSDOF 4
ENDMDL
MODEL 2
REMARK VINA RESULT:      -7.3      0.134      1.729
REMARK SMILES O=C(O)CCc1ccccc1
REMARK SMILES IDX 4 1 2 2 1 3 3 4 5 6 6 7 7 8 11 9 8 10 10 11 9 12
REMARK H PARENT 3 5
REMARK Flexibility Score: inf
ROOT
ATOM      1  C   UNL     1       8.434  -0.693  -2.094  1.00  0.00     0.127 C 
ENDROOT
BRANCH   1   2
ATOM      2  C   UNL     1       8.406  -1.937  -2.883  1.00  0.00     0.303 C 
ATOM      3  O   UNL     1       7.297  -2.406  -3.234  1.00  0.00    -0.252 OA
BRANCH   2   4
ATOM      4  O   UNL     1       9.570  -2.589  -3.241  1.00  0.00    -0.481 OA
ATOM      5  H   UNL     1       9.859  -2.747  -4.224  1.00  0.00     0.296 HD
ENDBRANCH   2   4
ENDBRANCH   1   2
BRANCH   1   6
ATOM      6  C   UNL     1       7.037  -0.087  -2.162  1.00  0.00     0.047 C 
BRANCH   6   7
ATOM      7  C   UNL     1       6.465   0.144  -0.824  1.00  0.00    -0.047 A 
ATOM      8  C   UNL     1       6.619  -0.851   0.133  1.00  0.00     0.004 A 
ATOM      9  C   UNL     1       5.781   1.271  -0.446  1.00  0.00     0.004 A 
ATOM     10  C   UNL     1       6.086  -0.672   1.409  1.00  0.00     0.000 A 
ATOM     11  C   UNL     1       5.243   1.478   0.808  1.00  0.00     0.000 A 
ATOM     12  C   UNL     1       5.411   0.471   1.739  1.00  0.00     0.000 A 
ENDBRANCH   6   7
ENDBRANCH   1   6
TORSDOF 4
ENDMDL
MODEL 3
REMARK VINA RESULT:      -6.8      3.364      5.083
REMARK SMILES O=C(O)CCc1ccccc1
REMARK SMILES IDX 4 1 2 2 1 3 3 4 5 6 6 7 7 8 11 9 8 10 10 11 9 12
REMARK H PARENT 3 5
REMARK Flexibility Score: inf
ROOT
ATOM      1  C   UNL     1       5.010   1.730   0.708  1.00  0.00     0.127 C 
ENDROOT
BRANCH   1   2
ATOM      2  C   UNL     1       4.485   1.083   1.924  1.00  0.00     0.303 C 
ATOM      3  O   UNL     1       5.168   0.189   2.476  1.00  0.00    -0.252 OA
BRANCH   2   4
ATOM      4  O   UNL     1       3.265   1.444   2.462  1.00  0.00    -0.481 OA
ATOM      5  H   UNL     1       3.074   1.474   3.481  1.00  0.00     0.296 HD
ENDBRANCH   2   4
ENDBRANCH   1   2
BRANCH   1   6
ATOM      6  C   UNL     1       6.530   1.738   0.826  1.00  0.00     0.047 C 
BRANCH   6   7
ATOM      7  C   UNL     1       7.178   1.036  -0.295  1.00  0.00    -0.047 A 
ATOM      8  C   UNL     1       6.414   0.143  -1.037  1.00  0.00     0.004 A 
ATOM      9  C   UNL     1       8.489   1.190  -0.665  1.00  0.00     0.004 A 
ATOM     10  C   UNL     1       6.993  -0.546  -2.101  1.00  0.00     0.000 A 
ATOM     11  C   UNL     1       9.091   0.523  -1.714  1.00  0.00     0.000 A 
ATOM     12  C   UNL     1       8.307  -0.359  -2.432  1.00  0.00     0.000 A 
ENDBRANCH   6   7
ENDBRANCH   1   6
TORSDOF 4
ENDMDL
MODEL 4
REMARK VINA RESULT:      -6.7      1.963      2.653
REMARK SMILES O=C(O)CCc1ccccc1
REMARK SMILES IDX 4 1 2 2 1 3 3 4 5 6 6 7 7 8 11 9 8 10 10 11 9 12
REMARK H PARENT 3 5
REMARK Flexibility Score: inf
ROOT
ATOM      1  C   UNL     1       8.213   0.306  -2.048  1.00  0.00     0.127 C 
ENDROOT
BRANCH   1   2
ATOM      2  C   UNL     1       9.399   0.392  -1.178  1.00  0.00     0.303 C 
ATOM      3  O   UNL     1       9.485  -0.380  -0.194  1.00  0.00    -0.252 OA
BRANCH   2   4
ATOM      4  O   UNL     1      10.411   1.298  -1.429  1.00  0.00    -0.481 OA
ATOM      5  H   UNL     1      10.327   2.316  -1.248  1.00  0.00     0.296 HD
ENDBRANCH   2   4
ENDBRANCH   1   2
BRANCH   1   6
ATOM      6  C   UNL     1       7.204  -0.593  -1.342  1.00  0.00     0.047 C 
BRANCH   6   7
ATOM      7  C   UNL     1       6.374   0.153  -0.379  1.00  0.00    -0.047 A 
ATOM      8  C   UNL     1       6.145  -0.419   0.867  1.00  0.00     0.004 A 
ATOM      9  C   UNL     1       5.799   1.374  -0.618  1.00  0.00     0.004 A 
ATOM     10  C   UNL     1       5.360   0.253   1.802  1.00  0.00     0.000 A 
ATOM     11  C   UNL     1       5.018   2.064   0.287  1.00  0.00     0.000 A 
ATOM     12  C   UNL     1       4.807   1.471   1.516  1.00  0.00     0.000 A 
ENDBRANCH   6   7
ENDBRANCH   1   6
TORSDOF 4
ENDMDL
MODEL 5
REMARK VINA RESULT:      -6.6      1.887      2.856
REMARK SMILES O=C(O)CCc1ccccc1
REMARK SMILES IDX 4 1 2 2 1 3 3 4 5 6 6 7 7 8 11 9 8 10 10 11 9 12
REMARK H PARENT 3 5
REMARK Flexibility Score: inf
ROOT
ATOM      1  C   UNL     1       8.199  -1.527   1.122  1.00  0.00     0.127 C 
ENDROOT
BRANCH   1   2
ATOM      2  C   UNL     1       8.461  -2.730   0.312  1.00  0.00     0.303 C 
ATOM      3  O   UNL     1       9.085  -3.685   0.832  1.00  0.00    -0.252 OA
BRANCH   2   4
ATOM      4  O   UNL     1       8.034  -2.823  -0.998  1.00  0.00    -0.481 OA
ATOM      5  H   UNL     1       8.187  -2.080  -1.705  1.00  0.00     0.296 HD
ENDBRANCH   2   4
ENDBRANCH   1   2
BRANCH   1   6
ATOM      6  C   UNL     1       6.687  -1.417   1.284  1.00  0.00     0.047 C 
BRANCH   6   7
ATOM      7  C   UNL     1       6.160  -0.153   0.740  1.00  0.00    -0.047 A 
ATOM      8  C   UNL     1       5.377   0.640   1.570  1.00  0.00     0.004 A 
ATOM      9  C   UNL     1       6.380   0.306  -0.533  1.00  0.00     0.004 A 
ATOM     10  C   UNL     1       4.855   1.840   1.090  1.00  0.00     0.000 A 
ATOM     11  C   UNL     1       5.878   1.489  -1.038  1.00  0.00     0.000 A 
ATOM     12  C   UNL     1       5.102   2.255  -0.190  1.00  0.00     0.000 A 
ENDBRANCH   6   7
ENDBRANCH   1   6
TORSDOF 4
ENDMDL
