@<TRIPOS>MOLECULE
/home/cewinharhar/GITHUB/reincatalyze/data/processed/docking_pred/2023-Apr-25-1829_maxeplen10_maxtrainstep200_exh32_gamma099_lrac3e-4_lrcr1e-3/1ec3d4ded79b7f38a98788c4b0a5da992fc20b58_ligand_2.pdbqt
 12 12 0 0 0
SMALL
GASTEIGER

@<TRIPOS>ATOM
      1  C          8.4720   -0.5910   -2.2260 C.3     1  UNL1        0.1270
      2  C          8.4770   -1.8840   -2.9310 C.2     1  UNL1        0.3030
      3  O          9.5700   -2.4740   -3.1060 O.2     1  UNL1       -0.2520
      4  O          7.3090   -2.4540   -3.3990 O.3     1  UNL1       -0.4810
      5  H          6.5130   -2.7140   -2.7870 H       1  UNL1        0.2960
      6  C          7.0310   -0.0950   -2.2080 C.3     1  UNL1        0.0470
      7  C          6.5050    0.0360   -0.8380 C.2     1  UNL1       -0.0470
      8  C          5.8970    1.2340   -0.4830 C.2     1  UNL1        0.0040
      9  C          6.5730   -0.9370    0.1260 C.2     1  UNL1        0.0040
     10  C          5.3920    1.3990    0.8050 C.2     1  UNL1        0.0000
     11  C          6.0830   -0.8040    1.4100 C.2     1  UNL1        0.0000
     12  C          5.4850    0.3980    1.7340 C.2     1  UNL1        0.0000
@<TRIPOS>BOND
     1     4     2    1
     2     4     5    1
     3     3     2    2
     4     2     1    1
     5     1     6    1
     6     6     7    1
     7     7     8    2
     8     7     9    1
     9     8    10    1
    10     9    11    2
    11    10    12    2
    12    11    12    1
