@<TRIPOS>MOLECULE
/home/cewinharhar/GITHUB/reincatalyze/data/processed/docking_pred/2023-Apr-25-1829_maxeplen10_maxtrainstep200_exh32_gamma099_lrac3e-4_lrcr1e-3/1ec3d4ded79b7f38a98788c4b0a5da992fc20b58_ligand_2.pdbqt
 12 12 0 0 0
SMALL
GASTEIGER

@<TRIPOS>ATOM
      1  C          5.0100    1.7300    0.7080 C.3     1  UNL1        0.1270
      2  C          4.4850    1.0830    1.9240 C.2     1  UNL1        0.3030
      3  O          5.1680    0.1890    2.4760 O.2     1  UNL1       -0.2520
      4  O          3.2650    1.4440    2.4620 O.3     1  UNL1       -0.4810
      5  H          3.0740    1.4740    3.4810 H       1  UNL1        0.2960
      6  C          6.5300    1.7380    0.8260 C.3     1  UNL1        0.0470
      7  C          7.1780    1.0360   -0.2950 C.2     1  UNL1       -0.0470
      8  C          6.4140    0.1430   -1.0370 C.2     1  UNL1        0.0040
      9  C          8.4890    1.1900   -0.6650 C.2     1  UNL1        0.0040
     10  C          6.9930   -0.5460   -2.1010 C.2     1  UNL1        0.0000
     11  C          9.0910    0.5230   -1.7140 C.2     1  UNL1        0.0000
     12  C          8.3070   -0.3590   -2.4320 C.2     1  UNL1        0.0000
@<TRIPOS>BOND
     1    12    10    2
     2    12    11    1
     3    10     8    1
     4    11     9    2
     5     8     7    2
     6     9     7    1
     7     7     6    1
     8     1     6    1
     9     1     2    1
    10     2     4    1
    11     2     3    2
    12     4     5    1
