MODEL 1
REMARK VINA RESULT:      -7.3      0.000      0.000
REMARK SMILES O=C(O)CCc1ccccc1
REMARK SMILES IDX 4 1 2 2 1 3 3 4 5 6 6 7 7 8 11 9 8 10 10 11 9 12
REMARK H PARENT 3 5
REMARK Flexibility Score: inf
ROOT
ATOM      1  C   UNL     1       8.461  -0.612  -2.184  1.00  0.00     0.127 C 
ENDROOT
BRANCH   1   2
ATOM      2  C   UNL     1       8.463  -1.892  -2.914  1.00  0.00     0.303 C 
ATOM      3  O   UNL     1       9.552  -2.489  -3.086  1.00  0.00    -0.252 OA
BRANCH   2   4
ATOM      4  O   UNL     1       7.294  -2.441  -3.406  1.00  0.00    -0.481 OA
ATOM      5  H   UNL     1       6.802  -3.236  -2.958  1.00  0.00     0.296 HD
ENDBRANCH   2   4
ENDBRANCH   1   2
BRANCH   1   6
ATOM      6  C   UNL     1       7.022  -0.111  -2.161  1.00  0.00     0.047 C 
BRANCH   6   7
ATOM      7  C   UNL     1       6.496   0.006  -0.790  1.00  0.00    -0.047 A 
ATOM      8  C   UNL     1       5.869   1.192  -0.428  1.00  0.00     0.004 A 
ATOM      9  C   UNL     1       6.581  -0.970   0.170  1.00  0.00     0.004 A 
ATOM     10  C   UNL     1       5.364   1.343   0.862  1.00  0.00     0.000 A 
ATOM     11  C   UNL     1       6.090  -0.852   1.455  1.00  0.00     0.000 A 
ATOM     12  C   UNL     1       5.474   0.339   1.785  1.00  0.00     0.000 A 
ENDBRANCH   6   7
ENDBRANCH   1   6
TORSDOF 4
ENDMDL
MODEL 2
REMARK VINA RESULT:      -7.2      0.181      1.733
REMARK SMILES O=C(O)CCc1ccccc1
REMARK SMILES IDX 4 1 2 2 1 3 3 4 5 6 6 7 7 8 11 9 8 10 10 11 9 12
REMARK H PARENT 3 5
REMARK Flexibility Score: inf
ROOT
ATOM      1  C   UNL     1       8.432  -0.726  -2.045  1.00  0.00     0.127 C 
ENDROOT
BRANCH   1   2
ATOM      2  C   UNL     1       8.410  -1.944  -2.873  1.00  0.00     0.303 C 
ATOM      3  O   UNL     1       7.304  -2.412  -3.233  1.00  0.00    -0.252 OA
BRANCH   2   4
ATOM      4  O   UNL     1       9.578  -2.574  -3.258  1.00  0.00    -0.481 OA
ATOM      5  H   UNL     1       9.863  -2.699  -4.247  1.00  0.00     0.296 HD
ENDBRANCH   2   4
ENDBRANCH   1   2
BRANCH   1   6
ATOM      6  C   UNL     1       7.049  -0.092  -2.144  1.00  0.00     0.047 C 
BRANCH   6   7
ATOM      7  C   UNL     1       6.458   0.161  -0.818  1.00  0.00    -0.047 A 
ATOM      8  C   UNL     1       6.606  -0.814   0.161  1.00  0.00     0.004 A 
ATOM      9  C   UNL     1       5.760   1.289  -0.472  1.00  0.00     0.004 A 
ATOM     10  C   UNL     1       6.055  -0.614   1.425  1.00  0.00     0.000 A 
ATOM     11  C   UNL     1       5.204   1.517   0.771  1.00  0.00     0.000 A 
ATOM     12  C   UNL     1       5.367   0.530   1.723  1.00  0.00     0.000 A 
ENDBRANCH   6   7
ENDBRANCH   1   6
TORSDOF 4
ENDMDL
MODEL 3
REMARK VINA RESULT:      -7.2      0.660      1.146
REMARK SMILES O=C(O)CCc1ccccc1
REMARK SMILES IDX 4 1 2 2 1 3 3 4 5 6 6 7 7 8 11 9 8 10 10 11 9 12
REMARK H PARENT 3 5
REMARK Flexibility Score: inf
ROOT
ATOM      1  C   UNL     1       8.289  -0.900  -1.865  1.00  0.00     0.127 C 
ENDROOT
BRANCH   1   2
ATOM      2  C   UNL     1       8.390  -1.979  -2.864  1.00  0.00     0.303 C 
ATOM      3  O   UNL     1       9.519  -2.459  -3.123  1.00  0.00    -0.252 OA
BRANCH   2   4
ATOM      4  O   UNL     1       7.273  -2.467  -3.513  1.00  0.00    -0.481 OA
ATOM      5  H   UNL     1       6.349  -1.997  -3.495  1.00  0.00     0.296 HD
ENDBRANCH   2   4
ENDBRANCH   1   2
BRANCH   1   6
ATOM      6  C   UNL     1       7.414  -1.421  -0.731  1.00  0.00     0.047 C 
BRANCH   6   7
ATOM      7  C   UNL     1       6.582  -0.359  -0.138  1.00  0.00    -0.047 A 
ATOM      8  C   UNL     1       6.260   0.738  -0.929  1.00  0.00     0.004 A 
ATOM      9  C   UNL     1       6.099  -0.363   1.145  1.00  0.00     0.004 A 
ATOM     10  C   UNL     1       5.481   1.766  -0.402  1.00  0.00     0.000 A 
ATOM     11  C   UNL     1       5.325   0.639   1.695  1.00  0.00     0.000 A 
ATOM     12  C   UNL     1       5.023   1.716   0.886  1.00  0.00     0.000 A 
ENDBRANCH   6   7
ENDBRANCH   1   6
TORSDOF 4
ENDMDL
MODEL 4
REMARK VINA RESULT:      -6.8      3.367      5.054
REMARK SMILES O=C(O)CCc1ccccc1
REMARK SMILES IDX 4 1 2 2 1 3 3 4 5 6 6 7 7 8 11 9 8 10 10 11 9 12
REMARK H PARENT 3 5
REMARK Flexibility Score: inf
ROOT
ATOM      1  C   UNL     1       5.010   1.773   0.729  1.00  0.00     0.127 C 
ENDROOT
BRANCH   1   2
ATOM      2  C   UNL     1       4.474   1.110   1.930  1.00  0.00     0.303 C 
ATOM      3  O   UNL     1       5.152   0.209   2.478  1.00  0.00    -0.252 OA
BRANCH   2   4
ATOM      4  O   UNL     1       3.248   1.462   2.460  1.00  0.00    -0.481 OA
ATOM      5  H   UNL     1       3.136   1.988   3.347  1.00  0.00     0.296 HD
ENDBRANCH   2   4
ENDBRANCH   1   2
BRANCH   1   6
ATOM      6  C   UNL     1       6.530   1.698   0.816  1.00  0.00     0.047 C 
BRANCH   6   7
ATOM      7  C   UNL     1       7.114   0.934  -0.301  1.00  0.00    -0.047 A 
ATOM      8  C   UNL     1       8.424   1.214  -0.670  1.00  0.00     0.004 A 
ATOM      9  C   UNL     1       6.460  -0.036  -1.015  1.00  0.00     0.004 A 
ATOM     10  C   UNL     1       9.009   0.517  -1.726  1.00  0.00     0.000 A 
ATOM     11  C   UNL     1       7.012  -0.744  -2.065  1.00  0.00     0.000 A 
ATOM     12  C   UNL     1       8.315  -0.443  -2.410  1.00  0.00     0.000 A 
ENDBRANCH   6   7
ENDBRANCH   1   6
TORSDOF 4
ENDMDL
MODEL 5
REMARK VINA RESULT:      -6.6      3.829      4.900
REMARK SMILES O=C(O)CCc1ccccc1
REMARK SMILES IDX 4 1 2 2 1 3 3 4 5 6 6 7 7 8 11 9 8 10 10 11 9 12
REMARK H PARENT 3 5
REMARK Flexibility Score: inf
ROOT
ATOM      1  C   UNL     1       5.626   2.833  -0.070  1.00  0.00     0.127 C 
ENDROOT
BRANCH   1   2
ATOM      2  C   UNL     1       6.274   3.860   0.765  1.00  0.00     0.303 C 
ATOM      3  O   UNL     1       6.922   4.775   0.205  1.00  0.00    -0.252 OA
BRANCH   2   4
ATOM      4  O   UNL     1       6.178   3.833   2.143  1.00  0.00    -0.481 OA
ATOM      5  H   UNL     1       5.940   2.981   2.685  1.00  0.00     0.296 HD
ENDBRANCH   2   4
ENDBRANCH   1   2
BRANCH   1   6
ATOM      6  C   UNL     1       4.978   1.829   0.877  1.00  0.00     0.047 C 
BRANCH   6   7
ATOM      7  C   UNL     1       5.756   0.581   0.981  1.00  0.00    -0.047 A 
ATOM      8  C   UNL     1       6.561   0.222  -0.093  1.00  0.00     0.004 A 
ATOM      9  C   UNL     1       5.743  -0.264   2.060  1.00  0.00     0.004 A 
ATOM     10  C   UNL     1       7.306  -0.955  -0.036  1.00  0.00     0.000 A 
ATOM     11  C   UNL     1       6.470  -1.435   2.148  1.00  0.00     0.000 A 
ATOM     12  C   UNL     1       7.260  -1.767   1.064  1.00  0.00     0.000 A 
ENDBRANCH   6   7
ENDBRANCH   1   6
TORSDOF 4
ENDMDL
