@<TRIPOS>MOLECULE
/home/cewinharhar/GITHUB/reincatalyze/data/processed/docking_pred/2023-Apr-25-1829_maxeplen10_maxtrainstep200_exh32_gamma099_lrac3e-4_lrcr1e-3/1f3204452a604bf2b5a1468570937d609aafa137_ligand_2.pdbqt
 12 12 0 0 0
SMALL
GASTEIGER

@<TRIPOS>ATOM
      1  C          8.4610   -0.6120   -2.1840 C.3     1  UNL1        0.1270
      2  C          8.4630   -1.8920   -2.9140 C.2     1  UNL1        0.3030
      3  O          9.5520   -2.4890   -3.0860 O.2     1  UNL1       -0.2520
      4  O          7.2940   -2.4410   -3.4060 O.3     1  UNL1       -0.4810
      5  H          6.8020   -3.2360   -2.9580 H       1  UNL1        0.2960
      6  C          7.0220   -0.1110   -2.1610 C.3     1  UNL1        0.0470
      7  C          6.4960    0.0060   -0.7900 C.2     1  UNL1       -0.0470
      8  C          5.8690    1.1920   -0.4280 C.2     1  UNL1        0.0040
      9  C          6.5810   -0.9700    0.1700 C.2     1  UNL1        0.0040
     10  C          5.3640    1.3430    0.8620 C.2     1  UNL1        0.0000
     11  C          6.0900   -0.8520    1.4550 C.2     1  UNL1        0.0000
     12  C          5.4740    0.3390    1.7850 C.2     1  UNL1        0.0000
@<TRIPOS>BOND
     1     4     5    1
     2     4     2    1
     3     3     2    2
     4     2     1    1
     5     1     6    1
     6     6     7    1
     7     7     8    2
     8     7     9    1
     9     8    10    1
    10     9    11    2
    11    10    12    2
    12    11    12    1
