@<TRIPOS>MOLECULE
/home/cewinharhar/GITHUB/reincatalyze/data/processed/docking_pred/2023-Apr-25-1829_maxeplen10_maxtrainstep200_exh32_gamma099_lrac3e-4_lrcr1e-3/1f3204452a604bf2b5a1468570937d609aafa137_ligand_2.pdbqt
 12 12 0 0 0
SMALL
GASTEIGER

@<TRIPOS>ATOM
      1  C          8.4320   -0.7260   -2.0450 C.3     1  UNL1        0.1270
      2  C          8.4100   -1.9440   -2.8730 C.2     1  UNL1        0.3030
      3  O          7.3040   -2.4120   -3.2330 O.2     1  UNL1       -0.2520
      4  O          9.5780   -2.5740   -3.2580 O.3     1  UNL1       -0.4810
      5  H          9.8630   -2.6990   -4.2470 H       1  UNL1        0.2960
      6  C          7.0490   -0.0920   -2.1440 C.3     1  UNL1        0.0470
      7  C          6.4580    0.1610   -0.8180 C.2     1  UNL1       -0.0470
      8  C          6.6060   -0.8140    0.1610 C.2     1  UNL1        0.0040
      9  C          5.7600    1.2890   -0.4720 C.2     1  UNL1        0.0040
     10  C          6.0550   -0.6140    1.4250 C.2     1  UNL1        0.0000
     11  C          5.2040    1.5170    0.7710 C.2     1  UNL1        0.0000
     12  C          5.3670    0.5300    1.7230 C.2     1  UNL1        0.0000
@<TRIPOS>BOND
     1     5     4    1
     2     4     2    1
     3     3     2    2
     4     2     1    1
     5     6     1    1
     6     6     7    1
     7     7     9    2
     8     7     8    1
     9     9    11    1
    10     8    10    2
    11    11    12    2
    12    10    12    1
