@<TRIPOS>MOLECULE
/home/cewinharhar/GITHUB/reincatalyze/data/processed/docking_pred/2023-Apr-25-1829_maxeplen10_maxtrainstep200_exh32_gamma099_lrac3e-4_lrcr1e-3/1f3204452a604bf2b5a1468570937d609aafa137_ligand_2.pdbqt
 12 12 0 0 0
SMALL
GASTEIGER

@<TRIPOS>ATOM
      1  C          5.0100    1.7730    0.7290 C.3     1  UNL1        0.1270
      2  C          4.4740    1.1100    1.9300 C.2     1  UNL1        0.3030
      3  O          5.1520    0.2090    2.4780 O.2     1  UNL1       -0.2520
      4  O          3.2480    1.4620    2.4600 O.3     1  UNL1       -0.4810
      5  H          3.1360    1.9880    3.3470 H       1  UNL1        0.2960
      6  C          6.5300    1.6980    0.8160 C.3     1  UNL1        0.0470
      7  C          7.1140    0.9340   -0.3010 C.2     1  UNL1       -0.0470
      8  C          8.4240    1.2140   -0.6700 C.2     1  UNL1        0.0040
      9  C          6.4600   -0.0360   -1.0150 C.2     1  UNL1        0.0040
     10  C          9.0090    0.5170   -1.7260 C.2     1  UNL1        0.0000
     11  C          7.0120   -0.7440   -2.0650 C.2     1  UNL1        0.0000
     12  C          8.3150   -0.4430   -2.4100 C.2     1  UNL1        0.0000
@<TRIPOS>BOND
     1    12    11    2
     2    12    10    1
     3    11     9    1
     4    10     8    2
     5     9     7    2
     6     8     7    1
     7     7     6    1
     8     1     6    1
     9     1     2    1
    10     2     4    1
    11     2     3    2
    12     4     5    1
