@<TRIPOS>MOLECULE
/home/cewinharhar/GITHUB/reincatalyze/data/processed/docking_pred/2023-Apr-25-1829_maxeplen10_maxtrainstep200_exh32_gamma099_lrac3e-4_lrcr1e-3/1f3204452a604bf2b5a1468570937d609aafa137_ligand_2.pdbqt
 12 12 0 0 0
SMALL
GASTEIGER

@<TRIPOS>ATOM
      1  C          5.6260    2.8330   -0.0700 C.3     1  UNL1        0.1270
      2  C          6.2740    3.8600    0.7650 C.2     1  UNL1        0.3030
      3  O          6.9220    4.7750    0.2050 O.2     1  UNL1       -0.2520
      4  O          6.1780    3.8330    2.1430 O.3     1  UNL1       -0.4810
      5  H          5.9400    2.9810    2.6850 H       1  UNL1        0.2960
      6  C          4.9780    1.8290    0.8770 C.3     1  UNL1        0.0470
      7  C          5.7560    0.5810    0.9810 C.2     1  UNL1       -0.0470
      8  C          6.5610    0.2220   -0.0930 C.2     1  UNL1        0.0040
      9  C          5.7430   -0.2640    2.0600 C.2     1  UNL1        0.0040
     10  C          7.3060   -0.9550   -0.0360 C.2     1  UNL1        0.0000
     11  C          6.4700   -1.4350    2.1480 C.2     1  UNL1        0.0000
     12  C          7.2600   -1.7670    1.0640 C.2     1  UNL1        0.0000
@<TRIPOS>BOND
     1     8    10    1
     2     8     7    2
     3     1     2    1
     4     1     6    1
     5    10    12    2
     6     3     2    2
     7     2     4    1
     8     6     7    1
     9     7     9    1
    10    12    11    1
    11     9    11    2
    12     4     5    1
