@<TRIPOS>MOLECULE
/home/cewinharhar/GITHUB/reincatalyze/data/processed/docking_pred/2023-Apr-25-1829_maxeplen10_maxtrainstep200_exh32_gamma099_lrac3e-4_lrcr1e-3/1f3204452a604bf2b5a1468570937d609aafa137_ligand_2.pdbqt
 12 12 0 0 0
SMALL
GASTEIGER

@<TRIPOS>ATOM
      1  C          8.2890   -0.9000   -1.8650 C.3     1  UNL1        0.1270
      2  C          8.3900   -1.9790   -2.8640 C.2     1  UNL1        0.3030
      3  O          9.5190   -2.4590   -3.1230 O.2     1  UNL1       -0.2520
      4  O          7.2730   -2.4670   -3.5130 O.3     1  UNL1       -0.4810
      5  H          6.3490   -1.9970   -3.4950 H       1  UNL1        0.2960
      6  C          7.4140   -1.4210   -0.7310 C.3     1  UNL1        0.0470
      7  C          6.5820   -0.3590   -0.1380 C.2     1  UNL1       -0.0470
      8  C          6.2600    0.7380   -0.9290 C.2     1  UNL1        0.0040
      9  C          6.0990   -0.3630    1.1450 C.2     1  UNL1        0.0040
     10  C          5.4810    1.7660   -0.4020 C.2     1  UNL1        0.0000
     11  C          5.3250    0.6390    1.6950 C.2     1  UNL1        0.0000
     12  C          5.0230    1.7160    0.8860 C.2     1  UNL1        0.0000
@<TRIPOS>BOND
     1     4     5    1
     2     4     2    1
     3     3     2    2
     4     2     1    1
     5     1     6    1
     6     8    10    1
     7     8     7    2
     8     6     7    1
     9    10    12    2
    10     7     9    1
    11    12    11    1
    12     9    11    2
