@<TRIPOS>MOLECULE
/home/cewinharhar/GITHUB/reincatalyze/data/processed/docking_pred/2023-Apr-25-1829_maxeplen10_maxtrainstep200_exh32_gamma099_lrac3e-4_lrcr1e-3/1f53ccdef65850680f3a99c865464637782ca6a5_ligand_2.pdbqt
 12 12 0 0 0
SMALL
GASTEIGER

@<TRIPOS>ATOM
      1  C          8.2170   -0.8930   -1.9420 C.3     1  UNL1        0.1270
      2  C          8.3770   -2.0130   -2.8860 C.2     1  UNL1        0.3030
      3  O          9.5270   -2.4620   -3.1030 O.2     1  UNL1       -0.2520
      4  O          7.2900   -2.5740   -3.5290 O.3     1  UNL1       -0.4810
      5  H          6.4220   -2.0510   -3.7490 H       1  UNL1        0.2960
      6  C          7.3220   -1.3850   -0.8110 C.3     1  UNL1        0.0470
      7  C          6.5310   -0.2940   -0.2140 C.2     1  UNL1       -0.0470
      8  C          6.1360   -0.4230    1.1120 C.2     1  UNL1        0.0040
      9  C          6.1440    0.8450   -0.8710 C.2     1  UNL1        0.0040
     10  C          5.3820    0.5850    1.7100 C.2     1  UNL1        0.0000
     11  C          5.3970    1.8600   -0.3070 C.2     1  UNL1        0.0000
     12  C          5.0190    1.7050    1.0130 C.2     1  UNL1        0.0000
@<TRIPOS>BOND
     1     5     4    1
     2     4     2    1
     3     3     2    2
     4     2     1    1
     5     1     6    1
     6     9    11    1
     7     9     7    2
     8     6     7    1
     9    11    12    2
    10     7     8    1
    11    12    10    1
    12     8    10    2
