@<TRIPOS>MOLECULE
/home/cewinharhar/GITHUB/reincatalyze/data/processed/docking_pred/2023-Apr-25-1829_maxeplen10_maxtrainstep200_exh32_gamma099_lrac3e-4_lrcr1e-3/1f53ccdef65850680f3a99c865464637782ca6a5_ligand_2.pdbqt
 12 12 0 0 0
SMALL
GASTEIGER

@<TRIPOS>ATOM
      1  C          8.4470   -0.6360   -2.1630 C.3     1  UNL1        0.1270
      2  C          8.4640   -1.9020   -2.9160 C.2     1  UNL1        0.3030
      3  O          9.5570   -2.4930   -3.0810 O.2     1  UNL1       -0.2520
      4  O          7.3060   -2.4460   -3.4370 O.3     1  UNL1       -0.4810
      5  H          6.4390   -1.9010   -3.5970 H       1  UNL1        0.2960
      6  C          7.0130   -0.1180   -2.1900 C.3     1  UNL1        0.0470
      7  C          6.4720    0.0910   -0.8350 C.2     1  UNL1       -0.0470
      8  C          6.6190   -0.9340    0.0920 C.2     1  UNL1        0.0040
      9  C          5.8240    1.2230   -0.4140 C.2     1  UNL1        0.0040
     10  C          6.1150   -0.7770    1.3820 C.2     1  UNL1        0.0000
     11  C          5.3150    1.4090    0.8550 C.2     1  UNL1        0.0000
     12  C          5.4740    0.3740    1.7550 C.2     1  UNL1        0.0000
@<TRIPOS>BOND
     1     5     4    1
     2     4     2    1
     3     3     2    2
     4     2     1    1
     5     6     1    1
     6     6     7    1
     7     7     9    2
     8     7     8    1
     9     9    11    1
    10     8    10    2
    11    11    12    2
    12    10    12    1
