@<TRIPOS>MOLECULE
/home/cewinharhar/GITHUB/reincatalyze/data/processed/docking_pred/2023-Apr-25-1829_maxeplen10_maxtrainstep200_exh32_gamma099_lrac3e-4_lrcr1e-3/1f53ccdef65850680f3a99c865464637782ca6a5_ligand_2.pdbqt
 12 12 0 0 0
SMALL
GASTEIGER

@<TRIPOS>ATOM
      1  C          8.3580    0.2720   -2.1250 C.3     1  UNL1        0.1270
      2  C          9.4600    0.3740   -1.1520 C.2     1  UNL1        0.3030
      3  O          9.4760   -0.4080   -0.1720 O.2     1  UNL1       -0.2520
      4  O         10.4670    1.3080   -1.3010 O.3     1  UNL1       -0.4810
      5  H         11.0040    1.7030   -0.5070 H       1  UNL1        0.2960
      6  C          7.2580   -0.5560   -1.4710 C.3     1  UNL1        0.0470
      7  C          6.4190    0.2490   -0.5660 C.2     1  UNL1       -0.0470
      8  C          6.1720   -0.2450    0.7090 C.2     1  UNL1        0.0040
      9  C          5.8530    1.4570   -0.8870 C.2     1  UNL1        0.0040
     10  C          5.3780    0.4860    1.5920 C.2     1  UNL1        0.0000
     11  C          5.0630    2.2030   -0.0350 C.2     1  UNL1        0.0000
     12  C          4.8340    1.6860    1.2250 C.2     1  UNL1        0.0000
@<TRIPOS>BOND
     1     1     6    1
     2     1     2    1
     3     6     7    1
     4     4     2    1
     5     4     5    1
     6     2     3    2
     7     9     7    2
     8     9    11    1
     9     7     8    1
    10    11    12    2
    11     8    10    2
    12    12    10    1
