@<TRIPOS>MOLECULE
/home/cewinharhar/GITHUB/reincatalyze/data/processed/docking_pred/2023-Apr-25-1829_maxeplen10_maxtrainstep200_exh32_gamma099_lrac3e-4_lrcr1e-3/1f53ccdef65850680f3a99c865464637782ca6a5_ligand_2.pdbqt
 12 12 0 0 0
SMALL
GASTEIGER

@<TRIPOS>ATOM
      1  C          4.9920    1.7360    0.7080 C.3     1  UNL1        0.1270
      2  C          4.4720    1.0920    1.9270 C.2     1  UNL1        0.3030
      3  O          5.1590    0.2020    2.4810 O.2     1  UNL1       -0.2520
      4  O          3.2510    1.4510    2.4660 O.3     1  UNL1       -0.4810
      5  H          2.5270    0.7660    2.7500 H       1  UNL1        0.2960
      6  C          6.5130    1.6930    0.7920 C.3     1  UNL1        0.0470
      7  C          7.1100    0.9290   -0.3180 C.2     1  UNL1       -0.0470
      8  C          8.4250    1.2060   -0.6700 C.2     1  UNL1        0.0040
      9  C          6.4630   -0.0400   -1.0420 C.2     1  UNL1        0.0040
     10  C          9.0220    0.5090   -1.7180 C.2     1  UNL1        0.0000
     11  C          7.0270   -0.7470   -2.0840 C.2     1  UNL1        0.0000
     12  C          8.3350   -0.4490   -2.4120 C.2     1  UNL1        0.0000
@<TRIPOS>BOND
     1    12    11    2
     2    12    10    1
     3    11     9    1
     4    10     8    2
     5     9     7    2
     6     8     7    1
     7     7     6    1
     8     1     6    1
     9     1     2    1
    10     2     4    1
    11     2     3    2
    12     4     5    1
