@<TRIPOS>MOLECULE
/home/cewinharhar/GITHUB/reincatalyze/data/processed/docking_pred/2023-Apr-25-1829_maxeplen10_maxtrainstep200_exh32_gamma099_lrac3e-4_lrcr1e-3/1f774135605f6656ff2aa9e322f53f2a679c664c_ligand_2.pdbqt
 12 12 0 0 0
SMALL
GASTEIGER

@<TRIPOS>ATOM
      1  C          8.4100   -0.8340   -1.8850 C.3     1  UNL1        0.1270
      2  C          8.3870   -1.9700   -2.8240 C.2     1  UNL1        0.3030
      3  O          7.2800   -2.3970   -3.2300 O.2     1  UNL1       -0.2520
      4  O          9.5540   -2.5650   -3.2620 O.3     1  UNL1       -0.4810
      5  H          9.6340   -3.5750   -3.4820 H       1  UNL1        0.2960
      6  C          7.0870   -0.0940   -2.0440 C.3     1  UNL1        0.0470
      7  C          6.4440    0.1810   -0.7470 C.2     1  UNL1       -0.0470
      8  C          6.5390   -0.7850    0.2470 C.2     1  UNL1        0.0040
      9  C          5.7480    1.3220   -0.4420 C.2     1  UNL1        0.0040
     10  C          5.9380   -0.5650    1.4850 C.2     1  UNL1        0.0000
     11  C          5.1430    1.5700    0.7740 C.2     1  UNL1        0.0000
     12  C          5.2530    0.5910    1.7420 C.2     1  UNL1        0.0000
@<TRIPOS>BOND
     1     5     4    1
     2     4     2    1
     3     3     2    2
     4     2     1    1
     5     6     1    1
     6     6     7    1
     7     7     9    2
     8     7     8    1
     9     9    11    1
    10     8    10    2
    11    11    12    2
    12    10    12    1
