@<TRIPOS>MOLECULE
/home/cewinharhar/GITHUB/reincatalyze/data/processed/docking_pred/2023-Apr-25-1829_maxeplen10_maxtrainstep200_exh32_gamma099_lrac3e-4_lrcr1e-3/1f774135605f6656ff2aa9e322f53f2a679c664c_ligand_2.pdbqt
 12 12 0 0 0
SMALL
GASTEIGER

@<TRIPOS>ATOM
      1  C          5.6270    2.8250   -0.0470 C.3     1  UNL1        0.1270
      2  C          6.2800    3.8530    0.7820 C.2     1  UNL1        0.3030
      3  O          6.9140    4.7750    0.2160 O.2     1  UNL1       -0.2520
      4  O          6.2060    3.8200    2.1610 O.3     1  UNL1       -0.4810
      5  H          6.9360    3.3980    2.7640 H       1  UNL1        0.2960
      6  C          5.0030    1.8110    0.9050 C.3     1  UNL1        0.0470
      7  C          5.7930    0.5710    0.9920 C.2     1  UNL1       -0.0470
      8  C          6.6580    0.2720   -0.0540 C.2     1  UNL1        0.0040
      9  C          5.7390   -0.3230    2.0300 C.2     1  UNL1        0.0040
     10  C          7.4180   -0.8960   -0.0100 C.2     1  UNL1        0.0000
     11  C          6.4780   -1.4870    2.1020 C.2     1  UNL1        0.0000
     12  C          7.3290   -1.7580    1.0480 C.2     1  UNL1        0.0000
@<TRIPOS>BOND
     1     8    10    1
     2     8     7    2
     3     1     2    1
     4     1     6    1
     5    10    12    2
     6     3     2    2
     7     2     4    1
     8     6     7    1
     9     7     9    1
    10    12    11    1
    11     9    11    2
    12     4     5    1
