@<TRIPOS>MOLECULE
/home/cewinharhar/GITHUB/reincatalyze/data/processed/docking_pred/2023-Apr-25-1829_maxeplen10_maxtrainstep200_exh32_gamma099_lrac3e-4_lrcr1e-3/1f774135605f6656ff2aa9e322f53f2a679c664c_ligand_2.pdbqt
 12 12 0 0 0
SMALL
GASTEIGER

@<TRIPOS>ATOM
      1  C          8.2370   -0.8890   -1.9100 C.3     1  UNL1        0.1270
      2  C          8.3940   -1.9980   -2.8680 C.2     1  UNL1        0.3030
      3  O          9.5430   -2.4440   -3.0940 O.2     1  UNL1       -0.2520
      4  O          7.3050   -2.5510   -3.5140 O.3     1  UNL1       -0.4810
      5  H          7.1200   -3.5700   -3.5550 H       1  UNL1        0.2960
      6  C          7.2850   -1.3700   -0.8200 C.3     1  UNL1        0.0470
      7  C          6.5040   -0.2650   -0.2370 C.2     1  UNL1       -0.0470
      8  C          6.0990   -0.3780    1.0870 C.2     1  UNL1        0.0040
      9  C          6.1370    0.8750   -0.9050 C.2     1  UNL1        0.0040
     10  C          5.3530    0.6440    1.6720 C.2     1  UNL1        0.0000
     11  C          5.4000    1.9040   -0.3540 C.2     1  UNL1        0.0000
     12  C          5.0100    1.7630    0.9630 C.2     1  UNL1        0.0000
@<TRIPOS>BOND
     1     5     4    1
     2     4     2    1
     3     3     2    2
     4     2     1    1
     5     1     6    1
     6     9    11    1
     7     9     7    2
     8     6     7    1
     9    11    12    2
    10     7     8    1
    11    12    10    1
    12     8    10    2
