@<TRIPOS>MOLECULE
/home/cewinharhar/GITHUB/reincatalyze/data/processed/docking_pred/2023-Apr-25-1829_maxeplen10_maxtrainstep200_exh32_gamma099_lrac3e-4_lrcr1e-3/1f774135605f6656ff2aa9e322f53f2a679c664c_ligand_2.pdbqt
 12 12 0 0 0
SMALL
GASTEIGER

@<TRIPOS>ATOM
      1  C          8.4580   -0.6140   -2.1880 C.3     1  UNL1        0.1270
      2  C          8.4780   -1.9080   -2.8920 C.2     1  UNL1        0.3030
      3  O          9.5730   -2.5010   -3.0380 O.2     1  UNL1       -0.2520
      4  O          7.3210   -2.4760   -3.3890 O.3     1  UNL1       -0.4810
      5  H          6.8550   -3.2970   -2.9600 H       1  UNL1        0.2960
      6  C          7.0090   -0.1410   -2.1610 C.3     1  UNL1        0.0470
      7  C          6.4880   -0.0240   -0.7880 C.2     1  UNL1       -0.0470
      8  C          5.8660    1.1640   -0.4240 C.2     1  UNL1        0.0040
      9  C          6.5740   -1.0010    0.1700 C.2     1  UNL1        0.0040
     10  C          5.3660    1.3150    0.8680 C.2     1  UNL1        0.0000
     11  C          6.0880   -0.8820    1.4570 C.2     1  UNL1        0.0000
     12  C          5.4760    0.3100    1.7900 C.2     1  UNL1        0.0000
@<TRIPOS>BOND
     1     4     5    1
     2     4     2    1
     3     3     2    2
     4     2     1    1
     5     1     6    1
     6     6     7    1
     7     7     8    2
     8     7     9    1
     9     8    10    1
    10     9    11    2
    11    10    12    2
    12    11    12    1
