@<TRIPOS>MOLECULE
/home/cewinharhar/GITHUB/reincatalyze/data/processed/docking_pred/2023-Apr-25-1829_maxeplen10_maxtrainstep200_exh32_gamma099_lrac3e-4_lrcr1e-3/1f774135605f6656ff2aa9e322f53f2a679c664c_ligand_2.pdbqt
 12 12 0 0 0
SMALL
GASTEIGER

@<TRIPOS>ATOM
      1  C          5.0070    1.7650    0.7280 C.3     1  UNL1        0.1270
      2  C          4.4740    1.1040    1.9320 C.2     1  UNL1        0.3030
      3  O          5.1540    0.2050    2.4790 O.2     1  UNL1       -0.2520
      4  O          3.2490    1.4560    2.4640 O.3     1  UNL1       -0.4810
      5  H          2.5390    0.7670    2.7750 H       1  UNL1        0.2960
      6  C          6.5270    1.6970    0.8150 C.3     1  UNL1        0.0470
      7  C          7.1140    0.9300   -0.2980 C.2     1  UNL1       -0.0470
      8  C          8.4210    1.2150   -0.6720 C.2     1  UNL1        0.0040
      9  C          6.4640   -0.0490   -1.0060 C.2     1  UNL1        0.0040
     10  C          9.0090    0.5150   -1.7240 C.2     1  UNL1        0.0000
     11  C          7.0180   -0.7590   -2.0520 C.2     1  UNL1        0.0000
     12  C          8.3190   -0.4530   -2.4010 C.2     1  UNL1        0.0000
@<TRIPOS>BOND
     1    12    11    2
     2    12    10    1
     3    11     9    1
     4    10     8    2
     5     9     7    2
     6     8     7    1
     7     7     6    1
     8     1     6    1
     9     1     2    1
    10     2     4    1
    11     2     3    2
    12     4     5    1
