MODEL 1
REMARK VINA RESULT:      -7.3      0.000      0.000
REMARK SMILES O=C(O)CCc1ccccc1
REMARK SMILES IDX 4 1 2 2 1 3 3 4 5 6 6 7 7 8 11 9 8 10 10 11 9 12
REMARK H PARENT 3 5
REMARK Flexibility Score: inf
ROOT
ATOM      1  C   UNL     1       8.458  -0.614  -2.188  1.00  0.00     0.127 C 
ENDROOT
BRANCH   1   2
ATOM      2  C   UNL     1       8.478  -1.908  -2.892  1.00  0.00     0.303 C 
ATOM      3  O   UNL     1       9.573  -2.501  -3.038  1.00  0.00    -0.252 OA
BRANCH   2   4
ATOM      4  O   UNL     1       7.321  -2.476  -3.389  1.00  0.00    -0.481 OA
ATOM      5  H   UNL     1       6.855  -3.297  -2.960  1.00  0.00     0.296 HD
ENDBRANCH   2   4
ENDBRANCH   1   2
BRANCH   1   6
ATOM      6  C   UNL     1       7.009  -0.141  -2.161  1.00  0.00     0.047 C 
BRANCH   6   7
ATOM      7  C   UNL     1       6.488  -0.024  -0.788  1.00  0.00    -0.047 A 
ATOM      8  C   UNL     1       5.866   1.164  -0.424  1.00  0.00     0.004 A 
ATOM      9  C   UNL     1       6.574  -1.001   0.170  1.00  0.00     0.004 A 
ATOM     10  C   UNL     1       5.366   1.315   0.868  1.00  0.00     0.000 A 
ATOM     11  C   UNL     1       6.088  -0.882   1.457  1.00  0.00     0.000 A 
ATOM     12  C   UNL     1       5.476   0.310   1.790  1.00  0.00     0.000 A 
ENDBRANCH   6   7
ENDBRANCH   1   6
TORSDOF 4
ENDMDL
MODEL 2
REMARK VINA RESULT:      -7.3      0.654      1.629
REMARK SMILES O=C(O)CCc1ccccc1
REMARK SMILES IDX 4 1 2 2 1 3 3 4 5 6 6 7 7 8 11 9 8 10 10 11 9 12
REMARK H PARENT 3 5
REMARK Flexibility Score: inf
ROOT
ATOM      1  C   UNL     1       8.237  -0.889  -1.910  1.00  0.00     0.127 C 
ENDROOT
BRANCH   1   2
ATOM      2  C   UNL     1       8.394  -1.998  -2.868  1.00  0.00     0.303 C 
ATOM      3  O   UNL     1       9.543  -2.444  -3.094  1.00  0.00    -0.252 OA
BRANCH   2   4
ATOM      4  O   UNL     1       7.305  -2.551  -3.514  1.00  0.00    -0.481 OA
ATOM      5  H   UNL     1       7.120  -3.570  -3.555  1.00  0.00     0.296 HD
ENDBRANCH   2   4
ENDBRANCH   1   2
BRANCH   1   6
ATOM      6  C   UNL     1       7.285  -1.370  -0.820  1.00  0.00     0.047 C 
BRANCH   6   7
ATOM      7  C   UNL     1       6.504  -0.265  -0.237  1.00  0.00    -0.047 A 
ATOM      8  C   UNL     1       6.099  -0.378   1.087  1.00  0.00     0.004 A 
ATOM      9  C   UNL     1       6.137   0.875  -0.905  1.00  0.00     0.004 A 
ATOM     10  C   UNL     1       5.353   0.644   1.672  1.00  0.00     0.000 A 
ATOM     11  C   UNL     1       5.400   1.904  -0.354  1.00  0.00     0.000 A 
ATOM     12  C   UNL     1       5.010   1.763   0.963  1.00  0.00     0.000 A 
ENDBRANCH   6   7
ENDBRANCH   1   6
TORSDOF 4
ENDMDL
MODEL 3
REMARK VINA RESULT:      -7.2      0.268      1.744
REMARK SMILES O=C(O)CCc1ccccc1
REMARK SMILES IDX 4 1 2 2 1 3 3 4 5 6 6 7 7 8 11 9 8 10 10 11 9 12
REMARK H PARENT 3 5
REMARK Flexibility Score: inf
ROOT
ATOM      1  C   UNL     1       8.410  -0.834  -1.885  1.00  0.00     0.127 C 
ENDROOT
BRANCH   1   2
ATOM      2  C   UNL     1       8.387  -1.970  -2.824  1.00  0.00     0.303 C 
ATOM      3  O   UNL     1       7.280  -2.397  -3.230  1.00  0.00    -0.252 OA
BRANCH   2   4
ATOM      4  O   UNL     1       9.554  -2.565  -3.262  1.00  0.00    -0.481 OA
ATOM      5  H   UNL     1       9.634  -3.575  -3.482  1.00  0.00     0.296 HD
ENDBRANCH   2   4
ENDBRANCH   1   2
BRANCH   1   6
ATOM      6  C   UNL     1       7.087  -0.094  -2.044  1.00  0.00     0.047 C 
BRANCH   6   7
ATOM      7  C   UNL     1       6.444   0.181  -0.747  1.00  0.00    -0.047 A 
ATOM      8  C   UNL     1       6.539  -0.785   0.247  1.00  0.00     0.004 A 
ATOM      9  C   UNL     1       5.748   1.322  -0.442  1.00  0.00     0.004 A 
ATOM     10  C   UNL     1       5.938  -0.565   1.485  1.00  0.00     0.000 A 
ATOM     11  C   UNL     1       5.143   1.570   0.774  1.00  0.00     0.000 A 
ATOM     12  C   UNL     1       5.253   0.591   1.742  1.00  0.00     0.000 A 
ENDBRANCH   6   7
ENDBRANCH   1   6
TORSDOF 4
ENDMDL
MODEL 4
REMARK VINA RESULT:      -6.8      3.375      5.054
REMARK SMILES O=C(O)CCc1ccccc1
REMARK SMILES IDX 4 1 2 2 1 3 3 4 5 6 6 7 7 8 11 9 8 10 10 11 9 12
REMARK H PARENT 3 5
REMARK Flexibility Score: inf
ROOT
ATOM      1  C   UNL     1       5.007   1.765   0.728  1.00  0.00     0.127 C 
ENDROOT
BRANCH   1   2
ATOM      2  C   UNL     1       4.474   1.104   1.932  1.00  0.00     0.303 C 
ATOM      3  O   UNL     1       5.154   0.205   2.479  1.00  0.00    -0.252 OA
BRANCH   2   4
ATOM      4  O   UNL     1       3.249   1.456   2.464  1.00  0.00    -0.481 OA
ATOM      5  H   UNL     1       2.539   0.767   2.775  1.00  0.00     0.296 HD
ENDBRANCH   2   4
ENDBRANCH   1   2
BRANCH   1   6
ATOM      6  C   UNL     1       6.527   1.697   0.815  1.00  0.00     0.047 C 
BRANCH   6   7
ATOM      7  C   UNL     1       7.114   0.930  -0.298  1.00  0.00    -0.047 A 
ATOM      8  C   UNL     1       8.421   1.215  -0.672  1.00  0.00     0.004 A 
ATOM      9  C   UNL     1       6.464  -0.049  -1.006  1.00  0.00     0.004 A 
ATOM     10  C   UNL     1       9.009   0.515  -1.724  1.00  0.00     0.000 A 
ATOM     11  C   UNL     1       7.018  -0.759  -2.052  1.00  0.00     0.000 A 
ATOM     12  C   UNL     1       8.319  -0.453  -2.401  1.00  0.00     0.000 A 
ENDBRANCH   6   7
ENDBRANCH   1   6
TORSDOF 4
ENDMDL
MODEL 5
REMARK VINA RESULT:      -6.6      3.838      4.905
REMARK SMILES O=C(O)CCc1ccccc1
REMARK SMILES IDX 4 1 2 2 1 3 3 4 5 6 6 7 7 8 11 9 8 10 10 11 9 12
REMARK H PARENT 3 5
REMARK Flexibility Score: inf
ROOT
ATOM      1  C   UNL     1       5.627   2.825  -0.047  1.00  0.00     0.127 C 
ENDROOT
BRANCH   1   2
ATOM      2  C   UNL     1       6.280   3.853   0.782  1.00  0.00     0.303 C 
ATOM      3  O   UNL     1       6.914   4.775   0.216  1.00  0.00    -0.252 OA
BRANCH   2   4
ATOM      4  O   UNL     1       6.206   3.820   2.161  1.00  0.00    -0.481 OA
ATOM      5  H   UNL     1       6.936   3.398   2.764  1.00  0.00     0.296 HD
ENDBRANCH   2   4
ENDBRANCH   1   2
BRANCH   1   6
ATOM      6  C   UNL     1       5.003   1.811   0.905  1.00  0.00     0.047 C 
BRANCH   6   7
ATOM      7  C   UNL     1       5.793   0.571   0.992  1.00  0.00    -0.047 A 
ATOM      8  C   UNL     1       6.658   0.272  -0.054  1.00  0.00     0.004 A 
ATOM      9  C   UNL     1       5.739  -0.323   2.030  1.00  0.00     0.004 A 
ATOM     10  C   UNL     1       7.418  -0.896  -0.010  1.00  0.00     0.000 A 
ATOM     11  C   UNL     1       6.478  -1.487   2.102  1.00  0.00     0.000 A 
ATOM     12  C   UNL     1       7.329  -1.758   1.048  1.00  0.00     0.000 A 
ENDBRANCH   6   7
ENDBRANCH   1   6
TORSDOF 4
ENDMDL
