@<TRIPOS>MOLECULE
/home/cewinharhar/GITHUB/reincatalyze/data/processed/docking_pred/2023-Apr-25-1829_maxeplen10_maxtrainstep200_exh32_gamma099_lrac3e-4_lrcr1e-3/2037f81c995398ea407fbfc0a5ecaefc5001139a_ligand_2.pdbqt
 12 12 0 0 0
SMALL
GASTEIGER

@<TRIPOS>ATOM
      1  C          8.4500   -0.6830   -2.0910 C.3     1  UNL1        0.1270
      2  C          8.4110   -1.9250   -2.8820 C.2     1  UNL1        0.3030
      3  O          7.2970   -2.3990   -3.2110 O.2     1  UNL1       -0.2520
      4  O          9.5700   -2.5710   -3.2660 O.3     1  UNL1       -0.4810
      5  H         10.0890   -3.2280   -2.6540 H       1  UNL1        0.2960
      6  C          7.0620   -0.0570   -2.1700 C.3     1  UNL1        0.0470
      7  C          6.4790    0.1710   -0.8360 C.2     1  UNL1       -0.0470
      8  C          6.6380   -0.8190    0.1250 C.2     1  UNL1        0.0040
      9  C          5.7800    1.2920   -0.4670 C.2     1  UNL1        0.0040
     10  C          6.0950   -0.6420    1.3970 C.2     1  UNL1        0.0000
     11  C          5.2310    1.4960    0.7840 C.2     1  UNL1        0.0000
     12  C          5.4050    0.4940    1.7180 C.2     1  UNL1        0.0000
@<TRIPOS>BOND
     1     4     2    1
     2     4     5    1
     3     3     2    2
     4     2     1    1
     5     6     1    1
     6     6     7    1
     7     7     9    2
     8     7     8    1
     9     9    11    1
    10     8    10    2
    11    11    12    2
    12    10    12    1
