@<TRIPOS>MOLECULE
/home/cewinharhar/GITHUB/reincatalyze/data/processed/docking_pred/2023-Apr-25-1829_maxeplen10_maxtrainstep200_exh32_gamma099_lrac3e-4_lrcr1e-3/2037f81c995398ea407fbfc0a5ecaefc5001139a_ligand_2.pdbqt
 12 12 0 0 0
SMALL
GASTEIGER

@<TRIPOS>ATOM
      1  C          8.1490    0.3050   -2.1170 C.3     1  UNL1        0.1270
      2  C          9.3320    0.3920   -1.2430 C.2     1  UNL1        0.3030
      3  O          9.4370   -0.4090   -0.2850 O.2     1  UNL1       -0.2520
      4  O         10.3200    1.3340   -1.4600 O.3     1  UNL1       -0.4810
      5  H         10.1980    2.1610   -2.0740 H       1  UNL1        0.2960
      6  C          7.1300   -0.5780   -1.4040 C.3     1  UNL1        0.0470
      7  C          6.3350    0.1760   -0.4180 C.2     1  UNL1       -0.0470
      8  C          6.1270   -0.4000    0.8300 C.2     1  UNL1        0.0040
      9  C          5.7750    1.4080   -0.6370 C.2     1  UNL1        0.0040
     10  C          5.3750    0.2790    1.7870 C.2     1  UNL1        0.0000
     11  C          5.0270    2.1050    0.2900 C.2     1  UNL1        0.0000
     12  C          4.8350    1.5080    1.5210 C.2     1  UNL1        0.0000
@<TRIPOS>BOND
     1     1     6    1
     2     1     2    1
     3     5     4    1
     4     4     2    1
     5     6     7    1
     6     2     3    2
     7     9     7    2
     8     9    11    1
     9     7     8    1
    10    11    12    2
    11     8    10    2
    12    12    10    1
