@<TRIPOS>MOLECULE
/home/cewinharhar/GITHUB/reincatalyze/data/processed/docking_pred/2023-Apr-25-1829_maxeplen10_maxtrainstep200_exh32_gamma099_lrac3e-4_lrcr1e-3/2037f81c995398ea407fbfc0a5ecaefc5001139a_ligand_2.pdbqt
 12 12 0 0 0
SMALL
GASTEIGER

@<TRIPOS>ATOM
      1  C          8.3200   -0.9270   -1.8490 C.3     1  UNL1        0.1270
      2  C          8.4270   -2.0050   -2.8480 C.2     1  UNL1        0.3030
      3  O          9.5590   -2.4750   -3.1120 O.2     1  UNL1       -0.2520
      4  O          7.3110   -2.5030   -3.4920 O.3     1  UNL1       -0.4810
      5  H          6.3680   -2.5360   -3.0620 H       1  UNL1        0.2960
      6  C          7.4550   -1.4550   -0.7110 C.3     1  UNL1        0.0470
      7  C          6.6170   -0.4010   -0.1140 C.2     1  UNL1       -0.0470
      8  C          6.2930    0.7000   -0.8980 C.2     1  UNL1        0.0040
      9  C          6.1310   -0.4160    1.1680 C.2     1  UNL1        0.0040
     10  C          5.5070    1.7210   -0.3670 C.2     1  UNL1        0.0000
     11  C          5.3510    0.5790    1.7230 C.2     1  UNL1        0.0000
     12  C          5.0460    1.6610    0.9200 C.2     1  UNL1        0.0000
@<TRIPOS>BOND
     1     4     5    1
     2     4     2    1
     3     3     2    2
     4     2     1    1
     5     1     6    1
     6     8    10    1
     7     8     7    2
     8     6     7    1
     9    10    12    2
    10     7     9    1
    11    12    11    1
    12     9    11    2
