@<TRIPOS>MOLECULE
/home/cewinharhar/GITHUB/reincatalyze/data/processed/docking_pred/2023-Apr-25-1829_maxeplen10_maxtrainstep200_exh32_gamma099_lrac3e-4_lrcr1e-3/2037f81c995398ea407fbfc0a5ecaefc5001139a_ligand_2.pdbqt
 12 12 0 0 0
SMALL
GASTEIGER

@<TRIPOS>ATOM
      1  C          8.4660   -0.5840   -2.2400 C.3     1  UNL1        0.1270
      2  C          8.4780   -1.8880   -2.9260 C.2     1  UNL1        0.3030
      3  O          9.5670   -2.4980   -3.0470 O.2     1  UNL1       -0.2520
      4  O          7.3200   -2.4470   -3.4310 O.3     1  UNL1       -0.4810
      5  H          6.5260   -1.8890   -3.7950 H       1  UNL1        0.2960
      6  C          7.0170   -0.1100   -2.2060 C.3     1  UNL1        0.0470
      7  C          6.5020    0.0070   -0.8300 C.2     1  UNL1       -0.0470
      8  C          5.8630    1.1860   -0.4690 C.2     1  UNL1        0.0040
      9  C          6.6100   -0.9630    0.1330 C.2     1  UNL1        0.0040
     10  C          5.3680    1.3370    0.8250 C.2     1  UNL1        0.0000
     11  C          6.1310   -0.8440    1.4220 C.2     1  UNL1        0.0000
     12  C          5.5010    0.3400    1.7520 C.2     1  UNL1        0.0000
@<TRIPOS>BOND
     1     5     4    1
     2     4     2    1
     3     3     2    2
     4     2     1    1
     5     1     6    1
     6     6     7    1
     7     7     8    2
     8     7     9    1
     9     8    10    1
    10     9    11    2
    11    10    12    2
    12    11    12    1
