@<TRIPOS>MOLECULE
/home/cewinharhar/GITHUB/reincatalyze/data/processed/docking_pred/2023-Apr-25-1829_maxeplen10_maxtrainstep200_exh32_gamma099_lrac3e-4_lrcr1e-3/2037f81c995398ea407fbfc0a5ecaefc5001139a_ligand_2.pdbqt
 12 12 0 0 0
SMALL
GASTEIGER

@<TRIPOS>ATOM
      1  C          4.9770    1.7660    0.7130 C.3     1  UNL1        0.1270
      2  C          4.4640    1.1080    1.9280 C.2     1  UNL1        0.3030
      3  O          5.1590    0.2190    2.4740 O.2     1  UNL1       -0.2520
      4  O          3.2420    1.4530    2.4720 O.3     1  UNL1       -0.4810
      5  H          3.1370    1.9590    3.3710 H       1  UNL1        0.2960
      6  C          6.4970    1.7970    0.8280 C.3     1  UNL1        0.0470
      7  C          7.1530    1.0920   -0.2880 C.2     1  UNL1       -0.0470
      8  C          6.3800    0.2410   -1.0680 C.2     1  UNL1        0.0040
      9  C          8.4790    1.2060   -0.6170 C.2     1  UNL1        0.0040
     10  C          6.9660   -0.4480   -2.1290 C.2     1  UNL1        0.0000
     11  C          9.0880    0.5380   -1.6600 C.2     1  UNL1        0.0000
     12  C          8.2950   -0.3020   -2.4180 C.2     1  UNL1        0.0000
@<TRIPOS>BOND
     1    12    10    2
     2    12    11    1
     3    10     8    1
     4    11     9    2
     5     8     7    2
     6     9     7    1
     7     7     6    1
     8     1     6    1
     9     1     2    1
    10     2     4    1
    11     2     3    2
    12     4     5    1
