MODEL 1
REMARK VINA RESULT:      -7.3      0.000      0.000
REMARK SMILES O=C(O)CCc1ccccc1
REMARK SMILES IDX 4 1 2 2 1 3 3 4 5 6 6 7 7 8 11 9 8 10 10 11 9 12
REMARK H PARENT 3 5
REMARK Flexibility Score: inf
ROOT
ATOM      1  C   UNL     1       8.466  -0.584  -2.240  1.00  0.00     0.127 C 
ENDROOT
BRANCH   1   2
ATOM      2  C   UNL     1       8.478  -1.888  -2.926  1.00  0.00     0.303 C 
ATOM      3  O   UNL     1       9.567  -2.498  -3.047  1.00  0.00    -0.252 OA
BRANCH   2   4
ATOM      4  O   UNL     1       7.320  -2.447  -3.431  1.00  0.00    -0.481 OA
ATOM      5  H   UNL     1       6.526  -1.889  -3.795  1.00  0.00     0.296 HD
ENDBRANCH   2   4
ENDBRANCH   1   2
BRANCH   1   6
ATOM      6  C   UNL     1       7.017  -0.110  -2.206  1.00  0.00     0.047 C 
BRANCH   6   7
ATOM      7  C   UNL     1       6.502   0.007  -0.830  1.00  0.00    -0.047 A 
ATOM      8  C   UNL     1       5.863   1.186  -0.469  1.00  0.00     0.004 A 
ATOM      9  C   UNL     1       6.610  -0.963   0.133  1.00  0.00     0.004 A 
ATOM     10  C   UNL     1       5.368   1.337   0.825  1.00  0.00     0.000 A 
ATOM     11  C   UNL     1       6.131  -0.844   1.422  1.00  0.00     0.000 A 
ATOM     12  C   UNL     1       5.501   0.340   1.752  1.00  0.00     0.000 A 
ENDBRANCH   6   7
ENDBRANCH   1   6
TORSDOF 4
ENDMDL
MODEL 2
REMARK VINA RESULT:      -7.2      0.176      1.731
REMARK SMILES O=C(O)CCc1ccccc1
REMARK SMILES IDX 4 1 2 2 1 3 3 4 5 6 6 7 7 8 11 9 8 10 10 11 9 12
REMARK H PARENT 3 5
REMARK Flexibility Score: inf
ROOT
ATOM      1  C   UNL     1       8.450  -0.683  -2.091  1.00  0.00     0.127 C 
ENDROOT
BRANCH   1   2
ATOM      2  C   UNL     1       8.411  -1.925  -2.882  1.00  0.00     0.303 C 
ATOM      3  O   UNL     1       7.297  -2.399  -3.211  1.00  0.00    -0.252 OA
BRANCH   2   4
ATOM      4  O   UNL     1       9.570  -2.571  -3.266  1.00  0.00    -0.481 OA
ATOM      5  H   UNL     1      10.089  -3.228  -2.654  1.00  0.00     0.296 HD
ENDBRANCH   2   4
ENDBRANCH   1   2
BRANCH   1   6
ATOM      6  C   UNL     1       7.062  -0.057  -2.170  1.00  0.00     0.047 C 
BRANCH   6   7
ATOM      7  C   UNL     1       6.479   0.171  -0.836  1.00  0.00    -0.047 A 
ATOM      8  C   UNL     1       6.638  -0.819   0.125  1.00  0.00     0.004 A 
ATOM      9  C   UNL     1       5.780   1.292  -0.467  1.00  0.00     0.004 A 
ATOM     10  C   UNL     1       6.095  -0.642   1.397  1.00  0.00     0.000 A 
ATOM     11  C   UNL     1       5.231   1.496   0.784  1.00  0.00     0.000 A 
ATOM     12  C   UNL     1       5.405   0.494   1.718  1.00  0.00     0.000 A 
ENDBRANCH   6   7
ENDBRANCH   1   6
TORSDOF 4
ENDMDL
MODEL 3
REMARK VINA RESULT:      -7.2      0.653      1.145
REMARK SMILES O=C(O)CCc1ccccc1
REMARK SMILES IDX 4 1 2 2 1 3 3 4 5 6 6 7 7 8 11 9 8 10 10 11 9 12
REMARK H PARENT 3 5
REMARK Flexibility Score: inf
ROOT
ATOM      1  C   UNL     1       8.320  -0.927  -1.849  1.00  0.00     0.127 C 
ENDROOT
BRANCH   1   2
ATOM      2  C   UNL     1       8.427  -2.005  -2.848  1.00  0.00     0.303 C 
ATOM      3  O   UNL     1       9.559  -2.475  -3.112  1.00  0.00    -0.252 OA
BRANCH   2   4
ATOM      4  O   UNL     1       7.311  -2.503  -3.492  1.00  0.00    -0.481 OA
ATOM      5  H   UNL     1       6.368  -2.536  -3.062  1.00  0.00     0.296 HD
ENDBRANCH   2   4
ENDBRANCH   1   2
BRANCH   1   6
ATOM      6  C   UNL     1       7.455  -1.455  -0.711  1.00  0.00     0.047 C 
BRANCH   6   7
ATOM      7  C   UNL     1       6.617  -0.401  -0.114  1.00  0.00    -0.047 A 
ATOM      8  C   UNL     1       6.293   0.700  -0.898  1.00  0.00     0.004 A 
ATOM      9  C   UNL     1       6.131  -0.416   1.168  1.00  0.00     0.004 A 
ATOM     10  C   UNL     1       5.507   1.721  -0.367  1.00  0.00     0.000 A 
ATOM     11  C   UNL     1       5.351   0.579   1.723  1.00  0.00     0.000 A 
ATOM     12  C   UNL     1       5.046   1.661   0.920  1.00  0.00     0.000 A 
ENDBRANCH   6   7
ENDBRANCH   1   6
TORSDOF 4
ENDMDL
MODEL 4
REMARK VINA RESULT:      -6.8      3.389      5.086
REMARK SMILES O=C(O)CCc1ccccc1
REMARK SMILES IDX 4 1 2 2 1 3 3 4 5 6 6 7 7 8 11 9 8 10 10 11 9 12
REMARK H PARENT 3 5
REMARK Flexibility Score: inf
ROOT
ATOM      1  C   UNL     1       4.977   1.766   0.713  1.00  0.00     0.127 C 
ENDROOT
BRANCH   1   2
ATOM      2  C   UNL     1       4.464   1.108   1.928  1.00  0.00     0.303 C 
ATOM      3  O   UNL     1       5.159   0.219   2.474  1.00  0.00    -0.252 OA
BRANCH   2   4
ATOM      4  O   UNL     1       3.242   1.453   2.472  1.00  0.00    -0.481 OA
ATOM      5  H   UNL     1       3.137   1.959   3.371  1.00  0.00     0.296 HD
ENDBRANCH   2   4
ENDBRANCH   1   2
BRANCH   1   6
ATOM      6  C   UNL     1       6.497   1.797   0.828  1.00  0.00     0.047 C 
BRANCH   6   7
ATOM      7  C   UNL     1       7.153   1.092  -0.288  1.00  0.00    -0.047 A 
ATOM      8  C   UNL     1       6.380   0.241  -1.068  1.00  0.00     0.004 A 
ATOM      9  C   UNL     1       8.479   1.206  -0.617  1.00  0.00     0.004 A 
ATOM     10  C   UNL     1       6.966  -0.448  -2.129  1.00  0.00     0.000 A 
ATOM     11  C   UNL     1       9.088   0.538  -1.660  1.00  0.00     0.000 A 
ATOM     12  C   UNL     1       8.295  -0.302  -2.418  1.00  0.00     0.000 A 
ENDBRANCH   6   7
ENDBRANCH   1   6
TORSDOF 4
ENDMDL
MODEL 5
REMARK VINA RESULT:      -6.6      1.921      2.633
REMARK SMILES O=C(O)CCc1ccccc1
REMARK SMILES IDX 4 1 2 2 1 3 3 4 5 6 6 7 7 8 11 9 8 10 10 11 9 12
REMARK H PARENT 3 5
REMARK Flexibility Score: inf
ROOT
ATOM      1  C   UNL     1       8.149   0.305  -2.117  1.00  0.00     0.127 C 
ENDROOT
BRANCH   1   2
ATOM      2  C   UNL     1       9.332   0.392  -1.243  1.00  0.00     0.303 C 
ATOM      3  O   UNL     1       9.437  -0.409  -0.285  1.00  0.00    -0.252 OA
BRANCH   2   4
ATOM      4  O   UNL     1      10.320   1.334  -1.460  1.00  0.00    -0.481 OA
ATOM      5  H   UNL     1      10.198   2.161  -2.074  1.00  0.00     0.296 HD
ENDBRANCH   2   4
ENDBRANCH   1   2
BRANCH   1   6
ATOM      6  C   UNL     1       7.130  -0.578  -1.404  1.00  0.00     0.047 C 
BRANCH   6   7
ATOM      7  C   UNL     1       6.335   0.176  -0.418  1.00  0.00    -0.047 A 
ATOM      8  C   UNL     1       6.127  -0.400   0.830  1.00  0.00     0.004 A 
ATOM      9  C   UNL     1       5.775   1.408  -0.637  1.00  0.00     0.004 A 
ATOM     10  C   UNL     1       5.375   0.279   1.787  1.00  0.00     0.000 A 
ATOM     11  C   UNL     1       5.027   2.105   0.290  1.00  0.00     0.000 A 
ATOM     12  C   UNL     1       4.835   1.508   1.521  1.00  0.00     0.000 A 
ENDBRANCH   6   7
ENDBRANCH   1   6
TORSDOF 4
ENDMDL
