@<TRIPOS>MOLECULE
/home/cewinharhar/GITHUB/reincatalyze/data/processed/docking_pred/2023-Apr-25-1829_maxeplen10_maxtrainstep200_exh32_gamma099_lrac3e-4_lrcr1e-3/21195065f8807259401ec3420f3b6dd683f2acc0_ligand_2.pdbqt
 12 12 0 0 0
SMALL
GASTEIGER

@<TRIPOS>ATOM
      1  C          8.4410   -0.7410   -2.0110 C.3     1  UNL1        0.1270
      2  C          8.4000   -1.9440   -2.8610 C.2     1  UNL1        0.3030
      3  O          7.2860   -2.3920   -3.2210 O.2     1  UNL1       -0.2520
      4  O          9.5580   -2.5800   -3.2650 O.3     1  UNL1       -0.4810
      5  H         10.4400   -2.5660   -2.7200 H       1  UNL1        0.2960
      6  C          7.0760   -0.0700   -2.1170 C.3     1  UNL1        0.0470
      7  C          6.4710    0.1700   -0.7950 C.2     1  UNL1       -0.0470
      8  C          6.5940   -0.8220    0.1700 C.2     1  UNL1        0.0040
      9  C          5.7850    1.3030   -0.4400 C.2     1  UNL1        0.0040
     10  C          6.0290   -0.6340    1.4300 C.2     1  UNL1        0.0000
     11  C          5.2150    1.5180    0.7990 C.2     1  UNL1        0.0000
     12  C          5.3520    0.5140    1.7370 C.2     1  UNL1        0.0000
@<TRIPOS>BOND
     1     4     2    1
     2     4     5    1
     3     3     2    2
     4     2     1    1
     5     6     1    1
     6     6     7    1
     7     7     9    2
     8     7     8    1
     9     9    11    1
    10     8    10    2
    11    11    12    2
    12    10    12    1
