@<TRIPOS>MOLECULE
/home/cewinharhar/GITHUB/reincatalyze/data/processed/docking_pred/2023-Apr-25-1829_maxeplen10_maxtrainstep200_exh32_gamma099_lrac3e-4_lrcr1e-3/21195065f8807259401ec3420f3b6dd683f2acc0_ligand_2.pdbqt
 12 12 0 0 0
SMALL
GASTEIGER

@<TRIPOS>ATOM
      1  C          8.2020   -0.8690   -1.9570 C.3     1  UNL1        0.1270
      2  C          8.3570   -2.0060   -2.8820 C.2     1  UNL1        0.3030
      3  O          9.5020   -2.4810   -3.0700 O.2     1  UNL1       -0.2520
      4  O          7.2720   -2.5530   -3.5390 O.3     1  UNL1       -0.4810
      5  H          6.3160   -2.1520   -3.4990 H       1  UNL1        0.2960
      6  C          7.4650   -1.3890   -0.7280 C.3     1  UNL1        0.0470
      7  C          6.6050   -0.3590   -0.1180 C.2     1  UNL1       -0.0470
      8  C          6.2720    0.7510   -0.8840 C.2     1  UNL1        0.0040
      9  C          6.1080   -0.4070    1.1590 C.2     1  UNL1        0.0040
     10  C          5.4660    1.7500   -0.3400 C.2     1  UNL1        0.0000
     11  C          5.3080    0.5650    1.7260 C.2     1  UNL1        0.0000
     12  C          4.9940    1.6570    0.9410 C.2     1  UNL1        0.0000
@<TRIPOS>BOND
     1     4     5    1
     2     4     2    1
     3     3     2    2
     4     2     1    1
     5     1     6    1
     6     8    10    1
     7     8     7    2
     8     6     7    1
     9    10    12    2
    10     7     9    1
    11    12    11    1
    12     9    11    2
