@<TRIPOS>MOLECULE
/home/cewinharhar/GITHUB/reincatalyze/data/processed/docking_pred/2023-Apr-25-1829_maxeplen10_maxtrainstep200_exh32_gamma099_lrac3e-4_lrcr1e-3/21195065f8807259401ec3420f3b6dd683f2acc0_ligand_2.pdbqt
 12 12 0 0 0
SMALL
GASTEIGER

@<TRIPOS>ATOM
      1  C          8.1190   -0.7360   -2.1290 C.3     1  UNL1        0.1270
      2  C          8.3030   -1.9430   -2.9530 C.2     1  UNL1        0.3030
      3  O          9.4550   -2.4210   -3.0780 O.2     1  UNL1       -0.2520
      4  O          7.2360   -2.5530   -3.5840 O.3     1  UNL1       -0.4810
      5  H          6.7190   -2.1280   -4.3760 H       1  UNL1        0.2960
      6  C          7.6070   -1.1960   -0.7680 C.3     1  UNL1        0.0470
      7  C          6.6870   -0.2180   -0.1610 C.2     1  UNL1       -0.0470
      8  C          6.2160   -0.4720    1.1210 C.2     1  UNL1        0.0040
      9  C          6.2490    0.9310   -0.7690 C.2     1  UNL1        0.0040
     10  C          5.3390    0.4260    1.7270 C.2     1  UNL1        0.0000
     11  C          5.3820    1.8400   -0.1960 C.2     1  UNL1        0.0000
     12  C          4.9300    1.5600    1.0790 C.2     1  UNL1        0.0000
@<TRIPOS>BOND
     1     5     4    1
     2     4     2    1
     3     3     2    2
     4     2     1    1
     5     1     6    1
     6     9    11    1
     7     9     7    2
     8     6     7    1
     9    11    12    2
    10     7     8    1
    11    12    10    1
    12     8    10    2
