@<TRIPOS>MOLECULE
/home/cewinharhar/GITHUB/reincatalyze/data/processed/docking_pred/2023-Apr-25-1829_maxeplen10_maxtrainstep200_exh32_gamma099_lrac3e-4_lrcr1e-3/21195065f8807259401ec3420f3b6dd683f2acc0_ligand_2.pdbqt
 12 12 0 0 0
SMALL
GASTEIGER

@<TRIPOS>ATOM
      1  C          4.9940    1.7700    0.7340 C.3     1  UNL1        0.1270
      2  C          4.4710    1.1050    1.9400 C.2     1  UNL1        0.3030
      3  O          5.1620    0.2130    2.4870 O.2     1  UNL1       -0.2520
      4  O          3.2440    1.4460    2.4760 O.3     1  UNL1       -0.4810
      5  H          3.1020    1.6920    3.4730 H       1  UNL1        0.2960
      6  C          6.5150    1.7160    0.8160 C.3     1  UNL1        0.0470
      7  C          7.1050    0.9490   -0.2960 C.2     1  UNL1       -0.0470
      8  C          8.4180    1.2250   -0.6570 C.2     1  UNL1        0.0040
      9  C          6.4530   -0.0200   -1.0140 C.2     1  UNL1        0.0040
     10  C          9.0090    0.5260   -1.7070 C.2     1  UNL1        0.0000
     11  C          7.0100   -0.7300   -2.0590 C.2     1  UNL1        0.0000
     12  C          8.3170   -0.4330   -2.3950 C.2     1  UNL1        0.0000
@<TRIPOS>BOND
     1    12    11    2
     2    12    10    1
     3    11     9    1
     4    10     8    2
     5     9     7    2
     6     8     7    1
     7     7     6    1
     8     1     6    1
     9     1     2    1
    10     2     4    1
    11     2     3    2
    12     4     5    1
