MODEL 1
REMARK VINA RESULT:      -7.3      0.000      0.000
REMARK SMILES O=C(O)CCc1ccccc1
REMARK SMILES IDX 4 1 2 2 1 3 3 4 5 6 6 7 7 8 11 9 8 10 10 11 9 12
REMARK H PARENT 3 5
REMARK Flexibility Score: inf
ROOT
ATOM      1  C   UNL     1       8.463  -0.633  -2.159  1.00  0.00     0.127 C 
ENDROOT
BRANCH   1   2
ATOM      2  C   UNL     1       8.476  -1.898  -2.914  1.00  0.00     0.303 C 
ATOM      3  O   UNL     1       9.569  -2.487  -3.089  1.00  0.00    -0.252 OA
BRANCH   2   4
ATOM      4  O   UNL     1       7.314  -2.443  -3.426  1.00  0.00    -0.481 OA
ATOM      5  H   UNL     1       6.376  -2.020  -3.294  1.00  0.00     0.296 HD
ENDBRANCH   2   4
ENDBRANCH   1   2
BRANCH   1   6
ATOM      6  C   UNL     1       7.023  -0.131  -2.150  1.00  0.00     0.047 C 
BRANCH   6   7
ATOM      7  C   UNL     1       6.488  -0.004  -0.783  1.00  0.00    -0.047 A 
ATOM      8  C   UNL     1       5.850   1.181  -0.438  1.00  0.00     0.004 A 
ATOM      9  C   UNL     1       6.575  -0.969   0.188  1.00  0.00     0.004 A 
ATOM     10  C   UNL     1       5.336   1.342   0.847  1.00  0.00     0.000 A 
ATOM     11  C   UNL     1       6.077  -0.840   1.469  1.00  0.00     0.000 A 
ATOM     12  C   UNL     1       5.448   0.349   1.782  1.00  0.00     0.000 A 
ENDBRANCH   6   7
ENDBRANCH   1   6
TORSDOF 4
ENDMDL
MODEL 2
REMARK VINA RESULT:      -7.3      0.176      1.733
REMARK SMILES O=C(O)CCc1ccccc1
REMARK SMILES IDX 4 1 2 2 1 3 3 4 5 6 6 7 7 8 11 9 8 10 10 11 9 12
REMARK H PARENT 3 5
REMARK Flexibility Score: inf
ROOT
ATOM      1  C   UNL     1       8.441  -0.741  -2.011  1.00  0.00     0.127 C 
ENDROOT
BRANCH   1   2
ATOM      2  C   UNL     1       8.400  -1.944  -2.861  1.00  0.00     0.303 C 
ATOM      3  O   UNL     1       7.286  -2.392  -3.221  1.00  0.00    -0.252 OA
BRANCH   2   4
ATOM      4  O   UNL     1       9.558  -2.580  -3.265  1.00  0.00    -0.481 OA
ATOM      5  H   UNL     1      10.440  -2.566  -2.720  1.00  0.00     0.296 HD
ENDBRANCH   2   4
ENDBRANCH   1   2
BRANCH   1   6
ATOM      6  C   UNL     1       7.076  -0.070  -2.117  1.00  0.00     0.047 C 
BRANCH   6   7
ATOM      7  C   UNL     1       6.471   0.170  -0.795  1.00  0.00    -0.047 A 
ATOM      8  C   UNL     1       6.594  -0.822   0.170  1.00  0.00     0.004 A 
ATOM      9  C   UNL     1       5.785   1.303  -0.440  1.00  0.00     0.004 A 
ATOM     10  C   UNL     1       6.029  -0.634   1.430  1.00  0.00     0.000 A 
ATOM     11  C   UNL     1       5.215   1.518   0.799  1.00  0.00     0.000 A 
ATOM     12  C   UNL     1       5.352   0.514   1.737  1.00  0.00     0.000 A 
ENDBRANCH   6   7
ENDBRANCH   1   6
TORSDOF 4
ENDMDL
MODEL 3
REMARK VINA RESULT:      -7.2      0.625      1.107
REMARK SMILES O=C(O)CCc1ccccc1
REMARK SMILES IDX 4 1 2 2 1 3 3 4 5 6 6 7 7 8 11 9 8 10 10 11 9 12
REMARK H PARENT 3 5
REMARK Flexibility Score: inf
ROOT
ATOM      1  C   UNL     1       8.202  -0.869  -1.957  1.00  0.00     0.127 C 
ENDROOT
BRANCH   1   2
ATOM      2  C   UNL     1       8.357  -2.006  -2.882  1.00  0.00     0.303 C 
ATOM      3  O   UNL     1       9.502  -2.481  -3.070  1.00  0.00    -0.252 OA
BRANCH   2   4
ATOM      4  O   UNL     1       7.272  -2.553  -3.539  1.00  0.00    -0.481 OA
ATOM      5  H   UNL     1       6.316  -2.152  -3.499  1.00  0.00     0.296 HD
ENDBRANCH   2   4
ENDBRANCH   1   2
BRANCH   1   6
ATOM      6  C   UNL     1       7.465  -1.389  -0.728  1.00  0.00     0.047 C 
BRANCH   6   7
ATOM      7  C   UNL     1       6.605  -0.359  -0.118  1.00  0.00    -0.047 A 
ATOM      8  C   UNL     1       6.272   0.751  -0.884  1.00  0.00     0.004 A 
ATOM      9  C   UNL     1       6.108  -0.407   1.159  1.00  0.00     0.004 A 
ATOM     10  C   UNL     1       5.466   1.750  -0.340  1.00  0.00     0.000 A 
ATOM     11  C   UNL     1       5.308   0.565   1.726  1.00  0.00     0.000 A 
ATOM     12  C   UNL     1       4.994   1.657   0.941  1.00  0.00     0.000 A 
ENDBRANCH   6   7
ENDBRANCH   1   6
TORSDOF 4
ENDMDL
MODEL 4
REMARK VINA RESULT:      -7.1      0.627      1.603
REMARK SMILES O=C(O)CCc1ccccc1
REMARK SMILES IDX 4 1 2 2 1 3 3 4 5 6 6 7 7 8 11 9 8 10 10 11 9 12
REMARK H PARENT 3 5
REMARK Flexibility Score: inf
ROOT
ATOM      1  C   UNL     1       8.119  -0.736  -2.129  1.00  0.00     0.127 C 
ENDROOT
BRANCH   1   2
ATOM      2  C   UNL     1       8.303  -1.943  -2.953  1.00  0.00     0.303 C 
ATOM      3  O   UNL     1       9.455  -2.421  -3.078  1.00  0.00    -0.252 OA
BRANCH   2   4
ATOM      4  O   UNL     1       7.236  -2.553  -3.584  1.00  0.00    -0.481 OA
ATOM      5  H   UNL     1       6.719  -2.128  -4.376  1.00  0.00     0.296 HD
ENDBRANCH   2   4
ENDBRANCH   1   2
BRANCH   1   6
ATOM      6  C   UNL     1       7.607  -1.196  -0.768  1.00  0.00     0.047 C 
BRANCH   6   7
ATOM      7  C   UNL     1       6.687  -0.218  -0.161  1.00  0.00    -0.047 A 
ATOM      8  C   UNL     1       6.216  -0.472   1.121  1.00  0.00     0.004 A 
ATOM      9  C   UNL     1       6.249   0.931  -0.769  1.00  0.00     0.004 A 
ATOM     10  C   UNL     1       5.339   0.426   1.727  1.00  0.00     0.000 A 
ATOM     11  C   UNL     1       5.382   1.840  -0.196  1.00  0.00     0.000 A 
ATOM     12  C   UNL     1       4.930   1.560   1.079  1.00  0.00     0.000 A 
ENDBRANCH   6   7
ENDBRANCH   1   6
TORSDOF 4
ENDMDL
MODEL 5
REMARK VINA RESULT:      -6.8      3.381      5.067
REMARK SMILES O=C(O)CCc1ccccc1
REMARK SMILES IDX 4 1 2 2 1 3 3 4 5 6 6 7 7 8 11 9 8 10 10 11 9 12
REMARK H PARENT 3 5
REMARK Flexibility Score: inf
ROOT
ATOM      1  C   UNL     1       4.994   1.770   0.734  1.00  0.00     0.127 C 
ENDROOT
BRANCH   1   2
ATOM      2  C   UNL     1       4.471   1.105   1.940  1.00  0.00     0.303 C 
ATOM      3  O   UNL     1       5.162   0.213   2.487  1.00  0.00    -0.252 OA
BRANCH   2   4
ATOM      4  O   UNL     1       3.244   1.446   2.476  1.00  0.00    -0.481 OA
ATOM      5  H   UNL     1       3.102   1.692   3.473  1.00  0.00     0.296 HD
ENDBRANCH   2   4
ENDBRANCH   1   2
BRANCH   1   6
ATOM      6  C   UNL     1       6.515   1.716   0.816  1.00  0.00     0.047 C 
BRANCH   6   7
ATOM      7  C   UNL     1       7.105   0.949  -0.296  1.00  0.00    -0.047 A 
ATOM      8  C   UNL     1       8.418   1.225  -0.657  1.00  0.00     0.004 A 
ATOM      9  C   UNL     1       6.453  -0.020  -1.014  1.00  0.00     0.004 A 
ATOM     10  C   UNL     1       9.009   0.526  -1.707  1.00  0.00     0.000 A 
ATOM     11  C   UNL     1       7.010  -0.730  -2.059  1.00  0.00     0.000 A 
ATOM     12  C   UNL     1       8.317  -0.433  -2.395  1.00  0.00     0.000 A 
ENDBRANCH   6   7
ENDBRANCH   1   6
TORSDOF 4
ENDMDL
