@<TRIPOS>MOLECULE
/home/cewinharhar/GITHUB/reincatalyze/data/processed/docking_pred/2023-Apr-25-1829_maxeplen10_maxtrainstep200_exh32_gamma099_lrac3e-4_lrcr1e-3/22478e644e92021fed45641255b53d2cc77f0790_ligand_2.pdbqt
 12 12 0 0 0
SMALL
GASTEIGER

@<TRIPOS>ATOM
      1  C          4.9890    1.7780    0.7410 C.3     1  UNL1        0.1270
      2  C          4.4560    1.1070    1.9400 C.2     1  UNL1        0.3030
      3  O          5.1360    0.2030    2.4800 O.2     1  UNL1       -0.2520
      4  O          3.2320    1.4570    2.4760 O.3     1  UNL1       -0.4810
      5  H          2.4810    0.7720    2.6840 H       1  UNL1        0.2960
      6  C          6.5090    1.7720    0.8620 C.3     1  UNL1        0.0470
      7  C          7.1540    1.0820   -0.2690 C.2     1  UNL1       -0.0470
      8  C          6.3800    0.2180   -1.0350 C.2     1  UNL1        0.0040
      9  C          8.4710    1.2200   -0.6250 C.2     1  UNL1        0.0040
     10  C          6.9570   -0.4580   -2.1090 C.2     1  UNL1        0.0000
     11  C          9.0700    0.5650   -1.6820 C.2     1  UNL1        0.0000
     12  C          8.2770   -0.2880   -2.4250 C.2     1  UNL1        0.0000
@<TRIPOS>BOND
     1    12    10    2
     2    12    11    1
     3    10     8    1
     4    11     9    2
     5     8     7    2
     6     9     7    1
     7     7     6    1
     8     1     6    1
     9     1     2    1
    10     2     4    1
    11     2     3    2
    12     4     5    1
