@<TRIPOS>MOLECULE
/home/cewinharhar/GITHUB/reincatalyze/data/processed/docking_pred/2023-Apr-25-1829_maxeplen10_maxtrainstep200_exh32_gamma099_lrac3e-4_lrcr1e-3/22478e644e92021fed45641255b53d2cc77f0790_ligand_2.pdbqt
 12 12 0 0 0
SMALL
GASTEIGER

@<TRIPOS>ATOM
      1  C          8.4720   -0.5930   -2.2230 C.3     1  UNL1        0.1270
      2  C          8.4900   -1.8870   -2.9290 C.2     1  UNL1        0.3030
      3  O          9.5840   -2.4800   -3.0770 O.2     1  UNL1       -0.2520
      4  O          7.3310   -2.4520   -3.4250 O.3     1  UNL1       -0.4810
      5  H          6.3830   -2.2090   -3.0840 H       1  UNL1        0.2960
      6  C          7.0230   -0.1210   -2.1900 C.3     1  UNL1        0.0470
      7  C          6.5060   -0.0100   -0.8140 C.2     1  UNL1       -0.0470
      8  C          5.8660    1.1680   -0.4500 C.2     1  UNL1        0.0040
      9  C          6.6120   -0.9840    0.1450 C.2     1  UNL1        0.0040
     10  C          5.3690    1.3130    0.8440 C.2     1  UNL1        0.0000
     11  C          6.1300   -0.8710    1.4340 C.2     1  UNL1        0.0000
     12  C          5.5000    0.3120    1.7680 C.2     1  UNL1        0.0000
@<TRIPOS>BOND
     1     4     5    1
     2     4     2    1
     3     3     2    2
     4     2     1    1
     5     1     6    1
     6     6     7    1
     7     7     8    2
     8     7     9    1
     9     8    10    1
    10     9    11    2
    11    10    12    2
    12    11    12    1
