@<TRIPOS>MOLECULE
/home/cewinharhar/GITHUB/reincatalyze/data/processed/docking_pred/2023-Apr-25-1829_maxeplen10_maxtrainstep200_exh32_gamma099_lrac3e-4_lrcr1e-3/22478e644e92021fed45641255b53d2cc77f0790_ligand_2.pdbqt
 12 12 0 0 0
SMALL
GASTEIGER

@<TRIPOS>ATOM
      1  C          8.4540   -0.7640   -1.9980 C.3     1  UNL1        0.1270
      2  C          8.4520   -1.9540   -2.8670 C.2     1  UNL1        0.3030
      3  O          9.5390   -2.5270   -3.1110 O.2     1  UNL1       -0.2520
      4  O          7.2810   -2.4450   -3.4130 O.3     1  UNL1       -0.4810
      5  H          6.5150   -1.8400   -3.7630 H       1  UNL1        0.2960
      6  C          7.0680   -0.1370   -2.0930 C.3     1  UNL1        0.0470
      7  C          6.4720    0.0990   -0.7660 C.2     1  UNL1       -0.0470
      8  C          6.5950   -0.8990    0.1930 C.2     1  UNL1        0.0040
      9  C          5.7950    1.2340   -0.3990 C.2     1  UNL1        0.0040
     10  C          6.0390   -0.7160    1.4580 C.2     1  UNL1        0.0000
     11  C          5.2350    1.4460    0.8440 C.2     1  UNL1        0.0000
     12  C          5.3720    0.4350    1.7760 C.2     1  UNL1        0.0000
@<TRIPOS>BOND
     1     5     4    1
     2     4     2    1
     3     3     2    2
     4     2     1    1
     5     6     1    1
     6     6     7    1
     7     7     9    2
     8     7     8    1
     9     9    11    1
    10     8    10    2
    11    11    12    2
    12    10    12    1
