MODEL 1
REMARK VINA RESULT:      -7.3      0.000      0.000
REMARK SMILES O=C(O)CCc1ccccc1
REMARK SMILES IDX 4 1 2 2 1 3 3 4 5 6 6 7 7 8 11 9 8 10 10 11 9 12
REMARK H PARENT 3 5
REMARK Flexibility Score: inf
ROOT
ATOM      1  C   UNL     1       8.454  -0.764  -1.998  1.00  0.00     0.127 C 
ENDROOT
BRANCH   1   2
ATOM      2  C   UNL     1       8.452  -1.954  -2.867  1.00  0.00     0.303 C 
ATOM      3  O   UNL     1       9.539  -2.527  -3.111  1.00  0.00    -0.252 OA
BRANCH   2   4
ATOM      4  O   UNL     1       7.281  -2.445  -3.413  1.00  0.00    -0.481 OA
ATOM      5  H   UNL     1       6.515  -1.840  -3.763  1.00  0.00     0.296 HD
ENDBRANCH   2   4
ENDBRANCH   1   2
BRANCH   1   6
ATOM      6  C   UNL     1       7.068  -0.137  -2.093  1.00  0.00     0.047 C 
BRANCH   6   7
ATOM      7  C   UNL     1       6.472   0.099  -0.766  1.00  0.00    -0.047 A 
ATOM      8  C   UNL     1       6.595  -0.899   0.193  1.00  0.00     0.004 A 
ATOM      9  C   UNL     1       5.795   1.234  -0.399  1.00  0.00     0.004 A 
ATOM     10  C   UNL     1       6.039  -0.716   1.458  1.00  0.00     0.000 A 
ATOM     11  C   UNL     1       5.235   1.446   0.844  1.00  0.00     0.000 A 
ATOM     12  C   UNL     1       5.372   0.435   1.776  1.00  0.00     0.000 A 
ENDBRANCH   6   7
ENDBRANCH   1   6
TORSDOF 4
ENDMDL
MODEL 2
REMARK VINA RESULT:      -7.3      0.150      1.437
REMARK SMILES O=C(O)CCc1ccccc1
REMARK SMILES IDX 4 1 2 2 1 3 3 4 5 6 6 7 7 8 11 9 8 10 10 11 9 12
REMARK H PARENT 3 5
REMARK Flexibility Score: inf
ROOT
ATOM      1  C   UNL     1       8.472  -0.593  -2.223  1.00  0.00     0.127 C 
ENDROOT
BRANCH   1   2
ATOM      2  C   UNL     1       8.490  -1.887  -2.929  1.00  0.00     0.303 C 
ATOM      3  O   UNL     1       9.584  -2.480  -3.077  1.00  0.00    -0.252 OA
BRANCH   2   4
ATOM      4  O   UNL     1       7.331  -2.452  -3.425  1.00  0.00    -0.481 OA
ATOM      5  H   UNL     1       6.383  -2.209  -3.084  1.00  0.00     0.296 HD
ENDBRANCH   2   4
ENDBRANCH   1   2
BRANCH   1   6
ATOM      6  C   UNL     1       7.023  -0.121  -2.190  1.00  0.00     0.047 C 
BRANCH   6   7
ATOM      7  C   UNL     1       6.506  -0.010  -0.814  1.00  0.00    -0.047 A 
ATOM      8  C   UNL     1       5.866   1.168  -0.450  1.00  0.00     0.004 A 
ATOM      9  C   UNL     1       6.612  -0.984   0.145  1.00  0.00     0.004 A 
ATOM     10  C   UNL     1       5.369   1.313   0.844  1.00  0.00     0.000 A 
ATOM     11  C   UNL     1       6.130  -0.871   1.434  1.00  0.00     0.000 A 
ATOM     12  C   UNL     1       5.500   0.312   1.768  1.00  0.00     0.000 A 
ENDBRANCH   6   7
ENDBRANCH   1   6
TORSDOF 4
ENDMDL
MODEL 3
REMARK VINA RESULT:      -7.2      0.555      1.567
REMARK SMILES O=C(O)CCc1ccccc1
REMARK SMILES IDX 4 1 2 2 1 3 3 4 5 6 6 7 7 8 11 9 8 10 10 11 9 12
REMARK H PARENT 3 5
REMARK Flexibility Score: inf
ROOT
ATOM      1  C   UNL     1       8.270  -0.883  -1.947  1.00  0.00     0.127 C 
ENDROOT
BRANCH   1   2
ATOM      2  C   UNL     1       8.394  -2.029  -2.865  1.00  0.00     0.303 C 
ATOM      3  O   UNL     1       9.528  -2.528  -3.061  1.00  0.00    -0.252 OA
BRANCH   2   4
ATOM      4  O   UNL     1       7.292  -2.561  -3.506  1.00  0.00    -0.481 OA
ATOM      5  H   UNL     1       7.241  -3.540  -3.842  1.00  0.00     0.296 HD
ENDBRANCH   2   4
ENDBRANCH   1   2
BRANCH   1   6
ATOM      6  C   UNL     1       7.598  -1.396  -0.679  1.00  0.00     0.047 C 
BRANCH   6   7
ATOM      7  C   UNL     1       6.696  -0.394  -0.084  1.00  0.00    -0.047 A 
ATOM      8  C   UNL     1       6.338   0.704  -0.857  1.00  0.00     0.004 A 
ATOM      9  C   UNL     1       6.181  -0.456   1.185  1.00  0.00     0.004 A 
ATOM     10  C   UNL     1       5.492   1.676  -0.327  1.00  0.00     0.000 A 
ATOM     11  C   UNL     1       5.341   0.490   1.738  1.00  0.00     0.000 A 
ATOM     12  C   UNL     1       5.004   1.571   0.946  1.00  0.00     0.000 A 
ENDBRANCH   6   7
ENDBRANCH   1   6
TORSDOF 4
ENDMDL
MODEL 4
REMARK VINA RESULT:      -7.1      0.603      1.420
REMARK SMILES O=C(O)CCc1ccccc1
REMARK SMILES IDX 4 1 2 2 1 3 3 4 5 6 6 7 7 8 11 9 8 10 10 11 9 12
REMARK H PARENT 3 5
REMARK Flexibility Score: inf
ROOT
ATOM      1  C   UNL     1       8.293  -0.868  -1.920  1.00  0.00     0.127 C 
ENDROOT
BRANCH   1   2
ATOM      2  C   UNL     1       8.357  -1.989  -2.874  1.00  0.00     0.303 C 
ATOM      3  O   UNL     1       7.288  -2.455  -3.333  1.00  0.00    -0.252 OA
BRANCH   2   4
ATOM      4  O   UNL     1       9.566  -2.530  -3.268  1.00  0.00    -0.481 OA
ATOM      5  H   UNL     1      10.250  -2.946  -2.609  1.00  0.00     0.296 HD
ENDBRANCH   2   4
ENDBRANCH   1   2
BRANCH   1   6
ATOM      6  C   UNL     1       7.499  -1.352  -0.712  1.00  0.00     0.047 C 
BRANCH   6   7
ATOM      7  C   UNL     1       6.633  -0.297  -0.157  1.00  0.00    -0.047 A 
ATOM      8  C   UNL     1       6.176  -0.445   1.147  1.00  0.00     0.004 A 
ATOM      9  C   UNL     1       6.234   0.828  -0.832  1.00  0.00     0.004 A 
ATOM     10  C   UNL     1       5.349   0.529   1.705  1.00  0.00     0.000 A 
ATOM     11  C   UNL     1       5.417   1.810  -0.307  1.00  0.00     0.000 A 
ATOM     12  C   UNL     1       4.978   1.634   0.990  1.00  0.00     0.000 A 
ENDBRANCH   6   7
ENDBRANCH   1   6
TORSDOF 4
ENDMDL
MODEL 5
REMARK VINA RESULT:      -6.8      3.380      5.092
REMARK SMILES O=C(O)CCc1ccccc1
REMARK SMILES IDX 4 1 2 2 1 3 3 4 5 6 6 7 7 8 11 9 8 10 10 11 9 12
REMARK H PARENT 3 5
REMARK Flexibility Score: inf
ROOT
ATOM      1  C   UNL     1       4.989   1.778   0.741  1.00  0.00     0.127 C 
ENDROOT
BRANCH   1   2
ATOM      2  C   UNL     1       4.456   1.107   1.940  1.00  0.00     0.303 C 
ATOM      3  O   UNL     1       5.136   0.203   2.480  1.00  0.00    -0.252 OA
BRANCH   2   4
ATOM      4  O   UNL     1       3.232   1.457   2.476  1.00  0.00    -0.481 OA
ATOM      5  H   UNL     1       2.481   0.772   2.684  1.00  0.00     0.296 HD
ENDBRANCH   2   4
ENDBRANCH   1   2
BRANCH   1   6
ATOM      6  C   UNL     1       6.509   1.772   0.862  1.00  0.00     0.047 C 
BRANCH   6   7
ATOM      7  C   UNL     1       7.154   1.082  -0.269  1.00  0.00    -0.047 A 
ATOM      8  C   UNL     1       6.380   0.218  -1.035  1.00  0.00     0.004 A 
ATOM      9  C   UNL     1       8.471   1.220  -0.625  1.00  0.00     0.004 A 
ATOM     10  C   UNL     1       6.957  -0.458  -2.109  1.00  0.00     0.000 A 
ATOM     11  C   UNL     1       9.070   0.565  -1.682  1.00  0.00     0.000 A 
ATOM     12  C   UNL     1       8.277  -0.288  -2.425  1.00  0.00     0.000 A 
ENDBRANCH   6   7
ENDBRANCH   1   6
TORSDOF 4
ENDMDL
