@<TRIPOS>MOLECULE
/home/cewinharhar/GITHUB/reincatalyze/data/processed/docking_pred/2023-Apr-25-1829_maxeplen10_maxtrainstep200_exh32_gamma099_lrac3e-4_lrcr1e-3/22478e644e92021fed45641255b53d2cc77f0790_ligand_2.pdbqt
 12 12 0 0 0
SMALL
GASTEIGER

@<TRIPOS>ATOM
      1  C          8.2930   -0.8680   -1.9200 C.3     1  UNL1        0.1270
      2  C          8.3570   -1.9890   -2.8740 C.2     1  UNL1        0.3030
      3  O          7.2880   -2.4550   -3.3330 O.2     1  UNL1       -0.2520
      4  O          9.5660   -2.5300   -3.2680 O.3     1  UNL1       -0.4810
      5  H         10.2500   -2.9460   -2.6090 H       1  UNL1        0.2960
      6  C          7.4990   -1.3520   -0.7120 C.3     1  UNL1        0.0470
      7  C          6.6330   -0.2970   -0.1570 C.2     1  UNL1       -0.0470
      8  C          6.1760   -0.4450    1.1470 C.2     1  UNL1        0.0040
      9  C          6.2340    0.8280   -0.8320 C.2     1  UNL1        0.0040
     10  C          5.3490    0.5290    1.7050 C.2     1  UNL1        0.0000
     11  C          5.4170    1.8100   -0.3070 C.2     1  UNL1        0.0000
     12  C          4.9780    1.6340    0.9900 C.2     1  UNL1        0.0000
@<TRIPOS>BOND
     1     3     2    2
     2     4     2    1
     3     4     5    1
     4     2     1    1
     5     1     6    1
     6     9    11    1
     7     9     7    2
     8     6     7    1
     9    11    12    2
    10     7     8    1
    11    12    10    1
    12     8    10    2
