@<TRIPOS>MOLECULE
/home/cewinharhar/GITHUB/reincatalyze/data/processed/docking_pred/2023-Apr-25-1829_maxeplen10_maxtrainstep200_exh32_gamma099_lrac3e-4_lrcr1e-3/225d7738cc918e3754e3779366d54ccb252183f1_ligand_2.pdbqt
 12 12 0 0 0
SMALL
GASTEIGER

@<TRIPOS>ATOM
      1  C          8.2490    0.1750   -2.2450 C.3     1  UNL1        0.1270
      2  C          9.3510    0.3400   -1.2810 C.2     1  UNL1        0.3030
      3  O          9.4120   -0.4310   -0.2950 O.2     1  UNL1       -0.2520
      4  O         10.3110    1.3200   -1.4460 O.3     1  UNL1       -0.4810
      5  H         10.2180    2.2820   -1.0690 H       1  UNL1        0.2960
      6  C          7.1370   -0.5830   -1.5290 C.3     1  UNL1        0.0470
      7  C          6.3470    0.2930   -0.6450 C.2     1  UNL1       -0.0470
      8  C          6.1160   -0.1310    0.6580 C.2     1  UNL1        0.0040
      9  C          5.8130    1.5020   -1.0100 C.2     1  UNL1        0.0040
     10  C          5.3680    0.6660    1.5220 C.2     1  UNL1        0.0000
     11  C          5.0690    2.3140   -0.1780 C.2     1  UNL1        0.0000
     12  C          4.8550    1.8660    1.1110 C.2     1  UNL1        0.0000
@<TRIPOS>BOND
     1     1     6    1
     2     1     2    1
     3     6     7    1
     4     4     2    1
     5     4     5    1
     6     2     3    2
     7     9     7    2
     8     9    11    1
     9     7     8    1
    10    11    12    2
    11     8    10    2
    12    12    10    1
