@<TRIPOS>MOLECULE
/home/cewinharhar/GITHUB/reincatalyze/data/processed/docking_pred/2023-Apr-25-1829_maxeplen10_maxtrainstep200_exh32_gamma099_lrac3e-4_lrcr1e-3/225d7738cc918e3754e3779366d54ccb252183f1_ligand_2.pdbqt
 12 12 0 0 0
SMALL
GASTEIGER

@<TRIPOS>ATOM
      1  C          8.4610   -0.6020   -2.2000 C.3     1  UNL1        0.1270
      2  C          8.4720   -1.8900   -2.9150 C.2     1  UNL1        0.3030
      3  O          9.5620   -2.4900   -3.0640 O.2     1  UNL1       -0.2520
      4  O          7.3100   -2.4440   -3.4170 O.3     1  UNL1       -0.4810
      5  H          6.8380   -3.2650   -2.9960 H       1  UNL1        0.2960
      6  C          7.0170   -0.1140   -2.1760 C.3     1  UNL1        0.0470
      7  C          6.4920    0.0030   -0.8040 C.2     1  UNL1       -0.0470
      8  C          5.8560    1.1860   -0.4460 C.2     1  UNL1        0.0040
      9  C          6.5870   -0.9680    0.1580 C.2     1  UNL1        0.0040
     10  C          5.3520    1.3370    0.8440 C.2     1  UNL1        0.0000
     11  C          6.0980   -0.8490    1.4440 C.2     1  UNL1        0.0000
     12  C          5.4720    0.3380    1.7710 C.2     1  UNL1        0.0000
@<TRIPOS>BOND
     1     4     5    1
     2     4     2    1
     3     3     2    2
     4     2     1    1
     5     1     6    1
     6     6     7    1
     7     7     8    2
     8     7     9    1
     9     8    10    1
    10     9    11    2
    11    10    12    2
    12    11    12    1
