@<TRIPOS>MOLECULE
/home/cewinharhar/GITHUB/reincatalyze/data/processed/docking_pred/2023-Apr-25-1829_maxeplen10_maxtrainstep200_exh32_gamma099_lrac3e-4_lrcr1e-3/225d7738cc918e3754e3779366d54ccb252183f1_ligand_2.pdbqt
 12 12 0 0 0
SMALL
GASTEIGER

@<TRIPOS>ATOM
      1  C          8.4480   -0.7470   -1.9990 C.3     1  UNL1        0.1270
      2  C          8.4100   -1.9470   -2.8530 C.2     1  UNL1        0.3030
      3  O          7.2980   -2.3990   -3.2130 O.2     1  UNL1       -0.2520
      4  O          9.5700   -2.5770   -3.2610 O.3     1  UNL1       -0.4810
      5  H          9.7900   -2.7860   -4.2520 H       1  UNL1        0.2960
      6  C          7.0860   -0.0710   -2.1150 C.3     1  UNL1        0.0470
      7  C          6.4700    0.1660   -0.7980 C.2     1  UNL1       -0.0470
      8  C          6.6020   -0.8190    0.1730 C.2     1  UNL1        0.0040
      9  C          5.7640    1.2900   -0.4520 C.2     1  UNL1        0.0040
     10  C          6.0280   -0.6330    1.4300 C.2     1  UNL1        0.0000
     11  C          5.1850    1.5030    0.7830 C.2     1  UNL1        0.0000
     12  C          5.3320    0.5060    1.7270 C.2     1  UNL1        0.0000
@<TRIPOS>BOND
     1     5     4    1
     2     4     2    1
     3     3     2    2
     4     2     1    1
     5     6     1    1
     6     6     7    1
     7     7     9    2
     8     7     8    1
     9     9    11    1
    10     8    10    2
    11    11    12    2
    12    10    12    1
