MODEL 1
REMARK VINA RESULT:      -7.3      0.000      0.000
REMARK SMILES O=C(O)CCc1ccccc1
REMARK SMILES IDX 4 1 2 2 1 3 3 4 5 6 6 7 7 8 11 9 8 10 10 11 9 12
REMARK H PARENT 3 5
REMARK Flexibility Score: inf
ROOT
ATOM      1  C   UNL     1       8.461  -0.602  -2.200  1.00  0.00     0.127 C 
ENDROOT
BRANCH   1   2
ATOM      2  C   UNL     1       8.472  -1.890  -2.915  1.00  0.00     0.303 C 
ATOM      3  O   UNL     1       9.562  -2.490  -3.064  1.00  0.00    -0.252 OA
BRANCH   2   4
ATOM      4  O   UNL     1       7.310  -2.444  -3.417  1.00  0.00    -0.481 OA
ATOM      5  H   UNL     1       6.838  -3.265  -2.996  1.00  0.00     0.296 HD
ENDBRANCH   2   4
ENDBRANCH   1   2
BRANCH   1   6
ATOM      6  C   UNL     1       7.017  -0.114  -2.176  1.00  0.00     0.047 C 
BRANCH   6   7
ATOM      7  C   UNL     1       6.492   0.003  -0.804  1.00  0.00    -0.047 A 
ATOM      8  C   UNL     1       5.856   1.186  -0.446  1.00  0.00     0.004 A 
ATOM      9  C   UNL     1       6.587  -0.968   0.158  1.00  0.00     0.004 A 
ATOM     10  C   UNL     1       5.352   1.337   0.844  1.00  0.00     0.000 A 
ATOM     11  C   UNL     1       6.098  -0.849   1.444  1.00  0.00     0.000 A 
ATOM     12  C   UNL     1       5.472   0.338   1.771  1.00  0.00     0.000 A 
ENDBRANCH   6   7
ENDBRANCH   1   6
TORSDOF 4
ENDMDL
MODEL 2
REMARK VINA RESULT:      -7.2      0.192      1.734
REMARK SMILES O=C(O)CCc1ccccc1
REMARK SMILES IDX 4 1 2 2 1 3 3 4 5 6 6 7 7 8 11 9 8 10 10 11 9 12
REMARK H PARENT 3 5
REMARK Flexibility Score: inf
ROOT
ATOM      1  C   UNL     1       8.448  -0.747  -1.999  1.00  0.00     0.127 C 
ENDROOT
BRANCH   1   2
ATOM      2  C   UNL     1       8.410  -1.947  -2.853  1.00  0.00     0.303 C 
ATOM      3  O   UNL     1       7.298  -2.399  -3.213  1.00  0.00    -0.252 OA
BRANCH   2   4
ATOM      4  O   UNL     1       9.570  -2.577  -3.261  1.00  0.00    -0.481 OA
ATOM      5  H   UNL     1       9.790  -2.786  -4.252  1.00  0.00     0.296 HD
ENDBRANCH   2   4
ENDBRANCH   1   2
BRANCH   1   6
ATOM      6  C   UNL     1       7.086  -0.071  -2.115  1.00  0.00     0.047 C 
BRANCH   6   7
ATOM      7  C   UNL     1       6.470   0.166  -0.798  1.00  0.00    -0.047 A 
ATOM      8  C   UNL     1       6.602  -0.819   0.173  1.00  0.00     0.004 A 
ATOM      9  C   UNL     1       5.764   1.290  -0.452  1.00  0.00     0.004 A 
ATOM     10  C   UNL     1       6.028  -0.633   1.430  1.00  0.00     0.000 A 
ATOM     11  C   UNL     1       5.185   1.503   0.783  1.00  0.00     0.000 A 
ATOM     12  C   UNL     1       5.332   0.506   1.727  1.00  0.00     0.000 A 
ENDBRANCH   6   7
ENDBRANCH   1   6
TORSDOF 4
ENDMDL
MODEL 3
REMARK VINA RESULT:      -6.8      3.389      5.092
REMARK SMILES O=C(O)CCc1ccccc1
REMARK SMILES IDX 4 1 2 2 1 3 3 4 5 6 6 7 7 8 11 9 8 10 10 11 9 12
REMARK H PARENT 3 5
REMARK Flexibility Score: inf
ROOT
ATOM      1  C   UNL     1       4.965   1.782   0.697  1.00  0.00     0.127 C 
ENDROOT
BRANCH   1   2
ATOM      2  C   UNL     1       4.470   1.130   1.922  1.00  0.00     0.303 C 
ATOM      3  O   UNL     1       5.180   0.255   2.471  1.00  0.00    -0.252 OA
BRANCH   2   4
ATOM      4  O   UNL     1       3.248   1.466   2.472  1.00  0.00    -0.481 OA
ATOM      5  H   UNL     1       2.775   0.903   3.203  1.00  0.00     0.296 HD
ENDBRANCH   2   4
ENDBRANCH   1   2
BRANCH   1   6
ATOM      6  C   UNL     1       6.485   1.845   0.806  1.00  0.00     0.047 C 
BRANCH   6   7
ATOM      7  C   UNL     1       7.151   1.145  -0.306  1.00  0.00    -0.047 A 
ATOM      8  C   UNL     1       6.372   0.351  -1.139  1.00  0.00     0.004 A 
ATOM      9  C   UNL     1       8.492   1.211  -0.584  1.00  0.00     0.004 A 
ATOM     10  C   UNL     1       6.968  -0.332  -2.198  1.00  0.00     0.000 A 
ATOM     11  C   UNL     1       9.111   0.547  -1.624  1.00  0.00     0.000 A 
ATOM     12  C   UNL     1       8.312  -0.236  -2.435  1.00  0.00     0.000 A 
ENDBRANCH   6   7
ENDBRANCH   1   6
TORSDOF 4
ENDMDL
MODEL 4
REMARK VINA RESULT:      -6.8      3.381      5.064
REMARK SMILES O=C(O)CCc1ccccc1
REMARK SMILES IDX 4 1 2 2 1 3 3 4 5 6 6 7 7 8 11 9 8 10 10 11 9 12
REMARK H PARENT 3 5
REMARK Flexibility Score: inf
ROOT
ATOM      1  C   UNL     1       5.005   1.812   0.758  1.00  0.00     0.127 C 
ENDROOT
BRANCH   1   2
ATOM      2  C   UNL     1       4.464   1.125   1.944  1.00  0.00     0.303 C 
ATOM      3  O   UNL     1       5.144   0.220   2.482  1.00  0.00    -0.252 OA
BRANCH   2   4
ATOM      4  O   UNL     1       3.231   1.461   2.471  1.00  0.00    -0.481 OA
ATOM      5  H   UNL     1       2.659   2.255   2.128  1.00  0.00     0.296 HD
ENDBRANCH   2   4
ENDBRANCH   1   2
BRANCH   1   6
ATOM      6  C   UNL     1       6.524   1.718   0.840  1.00  0.00     0.047 C 
BRANCH   6   7
ATOM      7  C   UNL     1       7.096   0.961  -0.287  1.00  0.00    -0.047 A 
ATOM      8  C   UNL     1       8.408   1.233  -0.659  1.00  0.00     0.004 A 
ATOM      9  C   UNL     1       6.430   0.005  -1.009  1.00  0.00     0.004 A 
ATOM     10  C   UNL     1       8.982   0.542  -1.724  1.00  0.00     0.000 A 
ATOM     11  C   UNL     1       6.971  -0.696  -2.069  1.00  0.00     0.000 A 
ATOM     12  C   UNL     1       8.275  -0.404  -2.416  1.00  0.00     0.000 A 
ENDBRANCH   6   7
ENDBRANCH   1   6
TORSDOF 4
ENDMDL
MODEL 5
REMARK VINA RESULT:      -6.6      1.903      2.657
REMARK SMILES O=C(O)CCc1ccccc1
REMARK SMILES IDX 4 1 2 2 1 3 3 4 5 6 6 7 7 8 11 9 8 10 10 11 9 12
REMARK H PARENT 3 5
REMARK Flexibility Score: inf
ROOT
ATOM      1  C   UNL     1       8.249   0.175  -2.245  1.00  0.00     0.127 C 
ENDROOT
BRANCH   1   2
ATOM      2  C   UNL     1       9.351   0.340  -1.281  1.00  0.00     0.303 C 
ATOM      3  O   UNL     1       9.412  -0.431  -0.295  1.00  0.00    -0.252 OA
BRANCH   2   4
ATOM      4  O   UNL     1      10.311   1.320  -1.446  1.00  0.00    -0.481 OA
ATOM      5  H   UNL     1      10.218   2.282  -1.069  1.00  0.00     0.296 HD
ENDBRANCH   2   4
ENDBRANCH   1   2
BRANCH   1   6
ATOM      6  C   UNL     1       7.137  -0.583  -1.529  1.00  0.00     0.047 C 
BRANCH   6   7
ATOM      7  C   UNL     1       6.347   0.293  -0.645  1.00  0.00    -0.047 A 
ATOM      8  C   UNL     1       6.116  -0.131   0.658  1.00  0.00     0.004 A 
ATOM      9  C   UNL     1       5.813   1.502  -1.010  1.00  0.00     0.004 A 
ATOM     10  C   UNL     1       5.368   0.666   1.522  1.00  0.00     0.000 A 
ATOM     11  C   UNL     1       5.069   2.314  -0.178  1.00  0.00     0.000 A 
ATOM     12  C   UNL     1       4.855   1.866   1.111  1.00  0.00     0.000 A 
ENDBRANCH   6   7
ENDBRANCH   1   6
TORSDOF 4
ENDMDL
