@<TRIPOS>MOLECULE
/home/cewinharhar/GITHUB/reincatalyze/data/processed/docking_pred/2023-Apr-25-1829_maxeplen10_maxtrainstep200_exh32_gamma099_lrac3e-4_lrcr1e-3/225d7738cc918e3754e3779366d54ccb252183f1_ligand_2.pdbqt
 12 12 0 0 0
SMALL
GASTEIGER

@<TRIPOS>ATOM
      1  C          5.0050    1.8120    0.7580 C.3     1  UNL1        0.1270
      2  C          4.4640    1.1250    1.9440 C.2     1  UNL1        0.3030
      3  O          5.1440    0.2200    2.4820 O.2     1  UNL1       -0.2520
      4  O          3.2310    1.4610    2.4710 O.3     1  UNL1       -0.4810
      5  H          2.6590    2.2550    2.1280 H       1  UNL1        0.2960
      6  C          6.5240    1.7180    0.8400 C.3     1  UNL1        0.0470
      7  C          7.0960    0.9610   -0.2870 C.2     1  UNL1       -0.0470
      8  C          8.4080    1.2330   -0.6590 C.2     1  UNL1        0.0040
      9  C          6.4300    0.0050   -1.0090 C.2     1  UNL1        0.0040
     10  C          8.9820    0.5420   -1.7240 C.2     1  UNL1        0.0000
     11  C          6.9710   -0.6960   -2.0690 C.2     1  UNL1        0.0000
     12  C          8.2750   -0.4040   -2.4160 C.2     1  UNL1        0.0000
@<TRIPOS>BOND
     1    12    11    2
     2    12    10    1
     3    11     9    1
     4    10     8    2
     5     9     7    2
     6     8     7    1
     7     7     6    1
     8     1     6    1
     9     1     2    1
    10     2     4    1
    11     2     3    2
    12     5     4    1
