@<TRIPOS>MOLECULE
/home/cewinharhar/GITHUB/reincatalyze/data/processed/docking_pred/2023-Apr-25-1829_maxeplen10_maxtrainstep200_exh32_gamma099_lrac3e-4_lrcr1e-3/2368d29bb7bbfa5e31d33bb3936e2ea89938fe66_ligand_2.pdbqt
 12 12 0 0 0
SMALL
GASTEIGER

@<TRIPOS>ATOM
      1  C          5.4560    2.8930   -0.0110 C.3     1  UNL1        0.1270
      2  C          6.2550    3.7970    0.8350 C.2     1  UNL1        0.3030
      3  O          6.8310    4.7740    0.3020 O.2     1  UNL1       -0.2520
      4  O          6.3790    3.5880    2.1960 O.3     1  UNL1       -0.4810
      5  H          5.5880    3.6700    2.8620 H       1  UNL1        0.2960
      6  C          4.8880    1.8120    0.9010 C.3     1  UNL1        0.0470
      7  C          5.7050    0.5850    0.8860 C.2     1  UNL1       -0.0470
      8  C          5.7560   -0.1800    2.0440 C.2     1  UNL1        0.0040
      9  C          6.4290    0.1380   -0.1890 C.2     1  UNL1        0.0040
     10  C          6.5230   -1.3440    2.0700 C.2     1  UNL1        0.0000
     11  C          7.1970   -1.0090   -0.1950 C.2     1  UNL1        0.0000
     12  C          7.2300   -1.7490    0.9710 C.2     1  UNL1        0.0000
@<TRIPOS>BOND
     1    11     9    1
     2    11    12    2
     3     9     7    2
     4     1     2    1
     5     1     6    1
     6     3     2    2
     7     2     4    1
     8     7     6    1
     9     7     8    1
    10    12    10    1
    11     8    10    2
    12     4     5    1
