@<TRIPOS>MOLECULE
/home/cewinharhar/GITHUB/reincatalyze/data/processed/docking_pred/2023-Apr-25-1829_maxeplen10_maxtrainstep200_exh32_gamma099_lrac3e-4_lrcr1e-3/2368d29bb7bbfa5e31d33bb3936e2ea89938fe66_ligand_2.pdbqt
 12 12 0 0 0
SMALL
GASTEIGER

@<TRIPOS>ATOM
      1  C          8.2200    0.1860   -2.1210 C.3     1  UNL1        0.1270
      2  C          9.3760    0.3510   -1.2220 C.2     1  UNL1        0.3030
      3  O          9.4750   -0.3960   -0.2200 O.2     1  UNL1       -0.2520
      4  O         10.3450    1.3070   -1.4630 O.3     1  UNL1       -0.4810
      5  H         11.1850    1.4330   -0.8690 H       1  UNL1        0.2960
      6  C          7.1940   -0.6650   -1.3800 C.3     1  UNL1        0.0470
      7  C          6.3830    0.1330   -0.4440 C.2     1  UNL1       -0.0470
      8  C          6.1510   -0.3840    0.8250 C.2     1  UNL1        0.0040
      9  C          5.8270    1.3540   -0.7300 C.2     1  UNL1        0.0040
     10  C          5.3830    0.3380    1.7370 C.2     1  UNL1        0.0000
     11  C          5.0630    2.0930    0.1510 C.2     1  UNL1        0.0000
     12  C          4.8490    1.5530    1.4040 C.2     1  UNL1        0.0000
@<TRIPOS>BOND
     1     1     6    1
     2     1     2    1
     3     4     2    1
     4     4     5    1
     5     6     7    1
     6     2     3    2
     7     9     7    2
     8     9    11    1
     9     7     8    1
    10    11    12    2
    11     8    10    2
    12    12    10    1
