@<TRIPOS>MOLECULE
/home/cewinharhar/GITHUB/reincatalyze/data/processed/docking_pred/2023-Apr-25-1829_maxeplen10_maxtrainstep200_exh32_gamma099_lrac3e-4_lrcr1e-3/2368d29bb7bbfa5e31d33bb3936e2ea89938fe66_ligand_2.pdbqt
 12 12 0 0 0
SMALL
GASTEIGER

@<TRIPOS>ATOM
      1  C          8.4700   -0.5940   -2.1870 C.3     1  UNL1        0.1270
      2  C          8.4720   -1.8800   -2.9060 C.2     1  UNL1        0.3030
      3  O          9.5610   -2.4780   -3.0730 O.2     1  UNL1       -0.2520
      4  O          7.3040   -2.4340   -3.3920 O.3     1  UNL1       -0.4810
      5  H          6.8390   -3.2570   -2.9660 H       1  UNL1        0.2960
      6  C          7.0400   -0.0670   -2.2140 C.3     1  UNL1        0.0470
      7  C          6.4850    0.1040   -0.8600 C.2     1  UNL1       -0.0470
      8  C          5.8700    1.3120   -0.5530 C.2     1  UNL1        0.0040
      9  C          6.5320   -0.8400    0.1330 C.2     1  UNL1        0.0040
     10  C          5.3380    1.5130    0.7190 C.2     1  UNL1        0.0000
     11  C          6.0150   -0.6710    1.4020 C.2     1  UNL1        0.0000
     12  C          5.4100    0.5400    1.6780 C.2     1  UNL1        0.0000
@<TRIPOS>BOND
     1     4     5    1
     2     4     2    1
     3     3     2    2
     4     2     1    1
     5     6     1    1
     6     6     7    1
     7     7     8    2
     8     7     9    1
     9     8    10    1
    10     9    11    2
    11    10    12    2
    12    11    12    1
