@<TRIPOS>MOLECULE
/home/cewinharhar/GITHUB/reincatalyze/data/processed/docking_pred/2023-Apr-25-1829_maxeplen10_maxtrainstep200_exh32_gamma099_lrac3e-4_lrcr1e-3/2368d29bb7bbfa5e31d33bb3936e2ea89938fe66_ligand_2.pdbqt
 12 12 0 0 0
SMALL
GASTEIGER

@<TRIPOS>ATOM
      1  C          4.9750    1.8120    0.7260 C.3     1  UNL1        0.1270
      2  C          4.4640    1.1280    1.9260 C.2     1  UNL1        0.3030
      3  O          5.1620    0.2310    2.4550 O.2     1  UNL1       -0.2520
      4  O          3.2380    1.4550    2.4740 O.3     1  UNL1       -0.4810
      5  H          2.3340    1.2940    1.9930 H       1  UNL1        0.2960
      6  C          6.4960    1.8340    0.8360 C.3     1  UNL1        0.0470
      7  C          7.1440    1.1290   -0.2840 C.2     1  UNL1       -0.0470
      8  C          6.3580    0.3070   -1.0820 C.2     1  UNL1        0.0040
      9  C          8.4760    1.2160   -0.6010 C.2     1  UNL1        0.0040
     10  C          6.9370   -0.3810   -2.1470 C.2     1  UNL1        0.0000
     11  C          9.0780    0.5480   -1.6480 C.2     1  UNL1        0.0000
     12  C          8.2710   -0.2630   -2.4240 C.2     1  UNL1        0.0000
@<TRIPOS>BOND
     1    12    10    2
     2    12    11    1
     3    10     8    1
     4    11     9    2
     5     8     7    2
     6     9     7    1
     7     7     6    1
     8     1     6    1
     9     1     2    1
    10     2     3    2
    11     2     4    1
    12     5     4    1
