MODEL 1
REMARK VINA RESULT:      -7.3      0.000      0.000
REMARK SMILES O=C(O)CCc1ccccc1
REMARK SMILES IDX 4 1 2 2 1 3 3 4 5 6 6 7 7 8 11 9 8 10 10 11 9 12
REMARK H PARENT 3 5
REMARK Flexibility Score: inf
ROOT
ATOM      1  C   UNL     1       8.461  -0.658  -2.111  1.00  0.00     0.127 C 
ENDROOT
BRANCH   1   2
ATOM      2  C   UNL     1       8.470  -1.908  -2.891  1.00  0.00     0.303 C 
ATOM      3  O   UNL     1       9.561  -2.496  -3.080  1.00  0.00    -0.252 OA
BRANCH   2   4
ATOM      4  O   UNL     1       7.306  -2.440  -3.412  1.00  0.00    -0.481 OA
ATOM      5  H   UNL     1       6.672  -3.064  -2.879  1.00  0.00     0.296 HD
ENDBRANCH   2   4
ENDBRANCH   1   2
BRANCH   1   6
ATOM      6  C   UNL     1       7.037  -0.115  -2.151  1.00  0.00     0.047 C 
BRANCH   6   7
ATOM      7  C   UNL     1       6.479   0.080  -0.801  1.00  0.00    -0.047 A 
ATOM      8  C   UNL     1       6.606  -0.956   0.116  1.00  0.00     0.004 A 
ATOM      9  C   UNL     1       5.833   1.212  -0.375  1.00  0.00     0.004 A 
ATOM     10  C   UNL     1       6.086  -0.812   1.400  1.00  0.00     0.000 A 
ATOM     11  C   UNL     1       5.307   1.386   0.890  1.00  0.00     0.000 A 
ATOM     12  C   UNL     1       5.448   0.338   1.779  1.00  0.00     0.000 A 
ENDBRANCH   6   7
ENDBRANCH   1   6
TORSDOF 4
ENDMDL
MODEL 2
REMARK VINA RESULT:      -7.3      0.138      1.433
REMARK SMILES O=C(O)CCc1ccccc1
REMARK SMILES IDX 4 1 2 2 1 3 3 4 5 6 6 7 7 8 11 9 8 10 10 11 9 12
REMARK H PARENT 3 5
REMARK Flexibility Score: inf
ROOT
ATOM      1  C   UNL     1       8.470  -0.594  -2.187  1.00  0.00     0.127 C 
ENDROOT
BRANCH   1   2
ATOM      2  C   UNL     1       8.472  -1.880  -2.906  1.00  0.00     0.303 C 
ATOM      3  O   UNL     1       9.561  -2.478  -3.073  1.00  0.00    -0.252 OA
BRANCH   2   4
ATOM      4  O   UNL     1       7.304  -2.434  -3.392  1.00  0.00    -0.481 OA
ATOM      5  H   UNL     1       6.839  -3.257  -2.966  1.00  0.00     0.296 HD
ENDBRANCH   2   4
ENDBRANCH   1   2
BRANCH   1   6
ATOM      6  C   UNL     1       7.040  -0.067  -2.214  1.00  0.00     0.047 C 
BRANCH   6   7
ATOM      7  C   UNL     1       6.485   0.104  -0.860  1.00  0.00    -0.047 A 
ATOM      8  C   UNL     1       5.870   1.312  -0.553  1.00  0.00     0.004 A 
ATOM      9  C   UNL     1       6.532  -0.840   0.133  1.00  0.00     0.004 A 
ATOM     10  C   UNL     1       5.338   1.513   0.719  1.00  0.00     0.000 A 
ATOM     11  C   UNL     1       6.015  -0.671   1.402  1.00  0.00     0.000 A 
ATOM     12  C   UNL     1       5.410   0.540   1.678  1.00  0.00     0.000 A 
ENDBRANCH   6   7
ENDBRANCH   1   6
TORSDOF 4
ENDMDL
MODEL 3
REMARK VINA RESULT:      -6.8      3.380      5.084
REMARK SMILES O=C(O)CCc1ccccc1
REMARK SMILES IDX 4 1 2 2 1 3 3 4 5 6 6 7 7 8 11 9 8 10 10 11 9 12
REMARK H PARENT 3 5
REMARK Flexibility Score: inf
ROOT
ATOM      1  C   UNL     1       4.975   1.812   0.726  1.00  0.00     0.127 C 
ENDROOT
BRANCH   1   2
ATOM      2  C   UNL     1       4.464   1.128   1.926  1.00  0.00     0.303 C 
ATOM      3  O   UNL     1       5.162   0.231   2.455  1.00  0.00    -0.252 OA
BRANCH   2   4
ATOM      4  O   UNL     1       3.238   1.455   2.474  1.00  0.00    -0.481 OA
ATOM      5  H   UNL     1       2.334   1.294   1.993  1.00  0.00     0.296 HD
ENDBRANCH   2   4
ENDBRANCH   1   2
BRANCH   1   6
ATOM      6  C   UNL     1       6.496   1.834   0.836  1.00  0.00     0.047 C 
BRANCH   6   7
ATOM      7  C   UNL     1       7.144   1.129  -0.284  1.00  0.00    -0.047 A 
ATOM      8  C   UNL     1       6.358   0.307  -1.082  1.00  0.00     0.004 A 
ATOM      9  C   UNL     1       8.476   1.216  -0.601  1.00  0.00     0.004 A 
ATOM     10  C   UNL     1       6.937  -0.381  -2.147  1.00  0.00     0.000 A 
ATOM     11  C   UNL     1       9.078   0.548  -1.648  1.00  0.00     0.000 A 
ATOM     12  C   UNL     1       8.271  -0.263  -2.424  1.00  0.00     0.000 A 
ENDBRANCH   6   7
ENDBRANCH   1   6
TORSDOF 4
ENDMDL
MODEL 4
REMARK VINA RESULT:      -6.6      3.829      4.911
REMARK SMILES O=C(O)CCc1ccccc1
REMARK SMILES IDX 4 1 2 2 1 3 3 4 5 6 6 7 7 8 11 9 8 10 10 11 9 12
REMARK H PARENT 3 5
REMARK Flexibility Score: inf
ROOT
ATOM      1  C   UNL     1       5.456   2.893  -0.011  1.00  0.00     0.127 C 
ENDROOT
BRANCH   1   2
ATOM      2  C   UNL     1       6.255   3.797   0.835  1.00  0.00     0.303 C 
ATOM      3  O   UNL     1       6.831   4.774   0.302  1.00  0.00    -0.252 OA
BRANCH   2   4
ATOM      4  O   UNL     1       6.379   3.588   2.196  1.00  0.00    -0.481 OA
ATOM      5  H   UNL     1       5.588   3.670   2.862  1.00  0.00     0.296 HD
ENDBRANCH   2   4
ENDBRANCH   1   2
BRANCH   1   6
ATOM      6  C   UNL     1       4.888   1.812   0.901  1.00  0.00     0.047 C 
BRANCH   6   7
ATOM      7  C   UNL     1       5.705   0.585   0.886  1.00  0.00    -0.047 A 
ATOM      8  C   UNL     1       5.756  -0.180   2.044  1.00  0.00     0.004 A 
ATOM      9  C   UNL     1       6.429   0.138  -0.189  1.00  0.00     0.004 A 
ATOM     10  C   UNL     1       6.523  -1.344   2.070  1.00  0.00     0.000 A 
ATOM     11  C   UNL     1       7.197  -1.009  -0.195  1.00  0.00     0.000 A 
ATOM     12  C   UNL     1       7.230  -1.749   0.971  1.00  0.00     0.000 A 
ENDBRANCH   6   7
ENDBRANCH   1   6
TORSDOF 4
ENDMDL
MODEL 5
REMARK VINA RESULT:      -6.6      1.925      2.264
REMARK SMILES O=C(O)CCc1ccccc1
REMARK SMILES IDX 4 1 2 2 1 3 3 4 5 6 6 7 7 8 11 9 8 10 10 11 9 12
REMARK H PARENT 3 5
REMARK Flexibility Score: inf
ROOT
ATOM      1  C   UNL     1       8.220   0.186  -2.121  1.00  0.00     0.127 C 
ENDROOT
BRANCH   1   2
ATOM      2  C   UNL     1       9.376   0.351  -1.222  1.00  0.00     0.303 C 
ATOM      3  O   UNL     1       9.475  -0.396  -0.220  1.00  0.00    -0.252 OA
BRANCH   2   4
ATOM      4  O   UNL     1      10.345   1.307  -1.463  1.00  0.00    -0.481 OA
ATOM      5  H   UNL     1      11.185   1.433  -0.869  1.00  0.00     0.296 HD
ENDBRANCH   2   4
ENDBRANCH   1   2
BRANCH   1   6
ATOM      6  C   UNL     1       7.194  -0.665  -1.380  1.00  0.00     0.047 C 
BRANCH   6   7
ATOM      7  C   UNL     1       6.383   0.133  -0.444  1.00  0.00    -0.047 A 
ATOM      8  C   UNL     1       6.151  -0.384   0.825  1.00  0.00     0.004 A 
ATOM      9  C   UNL     1       5.827   1.354  -0.730  1.00  0.00     0.004 A 
ATOM     10  C   UNL     1       5.383   0.338   1.737  1.00  0.00     0.000 A 
ATOM     11  C   UNL     1       5.063   2.093   0.151  1.00  0.00     0.000 A 
ATOM     12  C   UNL     1       4.849   1.553   1.404  1.00  0.00     0.000 A 
ENDBRANCH   6   7
ENDBRANCH   1   6
TORSDOF 4
ENDMDL
