@<TRIPOS>MOLECULE
/home/cewinharhar/GITHUB/reincatalyze/data/processed/docking_pred/2023-Apr-25-1829_maxeplen10_maxtrainstep200_exh32_gamma099_lrac3e-4_lrcr1e-3/2368d29bb7bbfa5e31d33bb3936e2ea89938fe66_ligand_2.pdbqt
 12 12 0 0 0
SMALL
GASTEIGER

@<TRIPOS>ATOM
      1  C          8.4610   -0.6580   -2.1110 C.3     1  UNL1        0.1270
      2  C          8.4700   -1.9080   -2.8910 C.2     1  UNL1        0.3030
      3  O          9.5610   -2.4960   -3.0800 O.2     1  UNL1       -0.2520
      4  O          7.3060   -2.4400   -3.4120 O.3     1  UNL1       -0.4810
      5  H          6.6720   -3.0640   -2.8790 H       1  UNL1        0.2960
      6  C          7.0370   -0.1150   -2.1510 C.3     1  UNL1        0.0470
      7  C          6.4790    0.0800   -0.8010 C.2     1  UNL1       -0.0470
      8  C          6.6060   -0.9560    0.1160 C.2     1  UNL1        0.0040
      9  C          5.8330    1.2120   -0.3750 C.2     1  UNL1        0.0040
     10  C          6.0860   -0.8120    1.4000 C.2     1  UNL1        0.0000
     11  C          5.3070    1.3860    0.8900 C.2     1  UNL1        0.0000
     12  C          5.4480    0.3380    1.7790 C.2     1  UNL1        0.0000
@<TRIPOS>BOND
     1     4     2    1
     2     4     5    1
     3     3     2    2
     4     2     1    1
     5     6     1    1
     6     6     7    1
     7     7     9    2
     8     7     8    1
     9     9    11    1
    10     8    10    2
    11    11    12    2
    12    10    12    1
