@<TRIPOS>MOLECULE
/home/cewinharhar/GITHUB/reincatalyze/data/processed/docking_pred/2023-Apr-25-1829_maxeplen10_maxtrainstep200_exh32_gamma099_lrac3e-4_lrcr1e-3/24731d809f1a519c36ca3c9a2574e1987901b3bd_ligand_2.pdbqt
 12 12 0 0 0
SMALL
GASTEIGER

@<TRIPOS>ATOM
      1  C          8.4490   -0.7470   -1.9990 C.3     1  UNL1        0.1270
      2  C          8.4100   -1.9470   -2.8530 C.2     1  UNL1        0.3030
      3  O          7.2970   -2.3970   -3.2140 O.2     1  UNL1       -0.2520
      4  O          9.5700   -2.5770   -3.2620 O.3     1  UNL1       -0.4810
      5  H          9.9150   -3.4650   -2.8510 H       1  UNL1        0.2960
      6  C          7.0890   -0.0690   -2.1170 C.3     1  UNL1        0.0470
      7  C          6.4730    0.1740   -0.8010 C.2     1  UNL1       -0.0470
      8  C          6.6100   -0.8050    0.1760 C.2     1  UNL1        0.0040
      9  C          5.7630    1.2970   -0.4610 C.2     1  UNL1        0.0040
     10  C          6.0360   -0.6150    1.4310 C.2     1  UNL1        0.0000
     11  C          5.1840    1.5140    0.7730 C.2     1  UNL1        0.0000
     12  C          5.3360    0.5230    1.7230 C.2     1  UNL1        0.0000
@<TRIPOS>BOND
     1     4     2    1
     2     4     5    1
     3     3     2    2
     4     2     1    1
     5     6     1    1
     6     6     7    1
     7     7     9    2
     8     7     8    1
     9     9    11    1
    10     8    10    2
    11    11    12    2
    12    10    12    1
