@<TRIPOS>MOLECULE
/home/cewinharhar/GITHUB/reincatalyze/data/processed/docking_pred/2023-Apr-25-1829_maxeplen10_maxtrainstep200_exh32_gamma099_lrac3e-4_lrcr1e-3/24731d809f1a519c36ca3c9a2574e1987901b3bd_ligand_2.pdbqt
 12 12 0 0 0
SMALL
GASTEIGER

@<TRIPOS>ATOM
      1  C          8.3130    0.3450   -1.9530 C.3     1  UNL1        0.1270
      2  C          9.4870    0.4090   -1.0660 C.2     1  UNL1        0.3030
      3  O          9.5470   -0.3680   -0.0830 O.2     1  UNL1       -0.2520
      4  O         10.5160    1.3020   -1.2970 O.3     1  UNL1       -0.4810
      5  H         10.4410    2.3210   -1.1200 H       1  UNL1        0.2960
      6  C          7.2980   -0.5770   -1.2870 C.3     1  UNL1        0.0470
      7  C          6.4280    0.1450   -0.3420 C.2     1  UNL1       -0.0470
      8  C          6.1720   -0.4420    0.8910 C.2     1  UNL1        0.0040
      9  C          5.8400    1.3590   -0.5860 C.2     1  UNL1        0.0040
     10  C          5.3490    0.2070    1.8100 C.2     1  UNL1        0.0000
     11  C          5.0210    2.0270    0.3020 C.2     1  UNL1        0.0000
     12  C          4.7840    1.4190    1.5190 C.2     1  UNL1        0.0000
@<TRIPOS>BOND
     1     1     6    1
     2     1     2    1
     3     4     5    1
     4     4     2    1
     5     6     7    1
     6     2     3    2
     7     9     7    2
     8     9    11    1
     9     7     8    1
    10    11    12    2
    11     8    10    2
    12    12    10    1
