@<TRIPOS>MOLECULE
/home/cewinharhar/GITHUB/reincatalyze/data/processed/docking_pred/2023-Apr-25-1829_maxeplen10_maxtrainstep200_exh32_gamma099_lrac3e-4_lrcr1e-3/24731d809f1a519c36ca3c9a2574e1987901b3bd_ligand_2.pdbqt
 12 12 0 0 0
SMALL
GASTEIGER

@<TRIPOS>ATOM
      1  C          4.9690    1.7410    0.6940 C.3     1  UNL1        0.1270
      2  C          4.4630    1.0980    1.9200 C.2     1  UNL1        0.3030
      3  O          5.1590    0.2130    2.4700 O.2     1  UNL1       -0.2520
      4  O          3.2460    1.4530    2.4690 O.3     1  UNL1       -0.4810
      5  H          3.0660    1.4870    3.4900 H       1  UNL1        0.2960
      6  C          6.4880    1.7940    0.8100 C.3     1  UNL1        0.0470
      7  C          7.1540    1.0830   -0.2960 C.2     1  UNL1       -0.0470
      8  C          6.3920    0.2160   -1.0690 C.2     1  UNL1        0.0040
      9  C          8.4800    1.2050   -0.6220 C.2     1  UNL1        0.0040
     10  C          6.9880   -0.4790   -2.1200 C.2     1  UNL1        0.0000
     11  C          9.0990    0.5310   -1.6560 C.2     1  UNL1        0.0000
     12  C          8.3170   -0.3240   -2.4060 C.2     1  UNL1        0.0000
@<TRIPOS>BOND
     1    12    10    2
     2    12    11    1
     3    10     8    1
     4    11     9    2
     5     8     7    2
     6     9     7    1
     7     7     6    1
     8     1     6    1
     9     1     2    1
    10     2     4    1
    11     2     3    2
    12     4     5    1
