@<TRIPOS>MOLECULE
/home/cewinharhar/GITHUB/reincatalyze/data/processed/docking_pred/2023-Apr-25-1829_maxeplen10_maxtrainstep200_exh32_gamma099_lrac3e-4_lrcr1e-3/24731d809f1a519c36ca3c9a2574e1987901b3bd_ligand_2.pdbqt
 12 12 0 0 0
SMALL
GASTEIGER

@<TRIPOS>ATOM
      1  C          8.2500   -0.8770   -1.9330 C.3     1  UNL1        0.1270
      2  C          8.3980   -1.9950   -2.8820 C.2     1  UNL1        0.3030
      3  O          9.5430   -2.4520   -3.1050 O.2     1  UNL1       -0.2520
      4  O          7.3040   -2.5450   -3.5220 O.3     1  UNL1       -0.4810
      5  H          7.1110   -3.5630   -3.5560 H       1  UNL1        0.2960
      6  C          7.3810   -1.3760   -0.7840 C.3     1  UNL1        0.0470
      7  C          6.5590   -0.3010   -0.2010 C.2     1  UNL1       -0.0470
      8  C          6.1260   -0.4480    1.1110 C.2     1  UNL1        0.0040
      9  C          6.1790    0.8410   -0.8580 C.2     1  UNL1        0.0040
     10  C          5.3420    0.5450    1.6960 C.2     1  UNL1        0.0000
     11  C          5.4040    1.8420   -0.3070 C.2     1  UNL1        0.0000
     12  C          4.9880    1.6680    0.9990 C.2     1  UNL1        0.0000
@<TRIPOS>BOND
     1     5     4    1
     2     4     2    1
     3     3     2    2
     4     2     1    1
     5     1     6    1
     6     9    11    1
     7     9     7    2
     8     6     7    1
     9    11    12    2
    10     7     8    1
    11    12    10    1
    12     8    10    2
