@<TRIPOS>MOLECULE
/home/cewinharhar/GITHUB/reincatalyze/data/processed/docking_pred/2023-Apr-25-1829_maxeplen10_maxtrainstep200_exh32_gamma099_lrac3e-4_lrcr1e-3/2481e5cfc04dcfc4c7035fb6b8b96c3a7d203934_ligand_2.pdbqt
 12 12 0 0 0
SMALL
GASTEIGER

@<TRIPOS>ATOM
      1  C          8.4380   -0.7170   -2.0250 C.3     1  UNL1        0.1270
      2  C          8.4020   -1.9290   -2.8620 C.2     1  UNL1        0.3030
      3  O          7.2900   -2.3900   -3.2130 O.2     1  UNL1       -0.2520
      4  O          9.5630   -2.5600   -3.2650 O.3     1  UNL1       -0.4810
      5  H          9.9130   -3.4400   -2.8440 H       1  UNL1        0.2960
      6  C          7.0630   -0.0650   -2.1210 C.3     1  UNL1        0.0470
      7  C          6.4630    0.1660   -0.7950 C.2     1  UNL1       -0.0470
      8  C          6.5910   -0.8320    0.1630 C.2     1  UNL1        0.0040
      9  C          5.7790    1.2970   -0.4300 C.2     1  UNL1        0.0040
     10  C          6.0310   -0.6520    1.4270 C.2     1  UNL1        0.0000
     11  C          5.2140    1.5040    0.8130 C.2     1  UNL1        0.0000
     12  C          5.3560    0.4940    1.7450 C.2     1  UNL1        0.0000
@<TRIPOS>BOND
     1     4     2    1
     2     4     5    1
     3     3     2    2
     4     2     1    1
     5     6     1    1
     6     6     7    1
     7     7     9    2
     8     7     8    1
     9     9    11    1
    10     8    10    2
    11    11    12    2
    12    10    12    1
