@<TRIPOS>MOLECULE
/home/cewinharhar/GITHUB/reincatalyze/data/processed/docking_pred/2023-Apr-25-1829_maxeplen10_maxtrainstep200_exh32_gamma099_lrac3e-4_lrcr1e-3/2481e5cfc04dcfc4c7035fb6b8b96c3a7d203934_ligand_2.pdbqt
 12 12 0 0 0
SMALL
GASTEIGER

@<TRIPOS>ATOM
      1  C          8.4510   -0.5660   -2.2720 C.3     1  UNL1        0.1270
      2  C          8.4670   -1.8800   -2.9390 C.2     1  UNL1        0.3030
      3  O          9.5600   -2.4830   -3.0610 O.2     1  UNL1       -0.2520
      4  O          7.3090   -2.4550   -3.4260 O.3     1  UNL1       -0.4810
      5  H          6.8370   -3.2610   -2.9770 H       1  UNL1        0.2960
      6  C          6.9960   -0.1120   -2.2120 C.3     1  UNL1        0.0470
      7  C          6.5020   -0.0150   -0.8270 C.2     1  UNL1       -0.0470
      8  C          5.8840    1.1670   -0.4350 C.2     1  UNL1        0.0040
      9  C          6.6100   -1.0040    0.1170 C.2     1  UNL1        0.0040
     10  C          5.4090    1.2990    0.8680 C.2     1  UNL1        0.0000
     11  C          6.1490   -0.9020    1.4150 C.2     1  UNL1        0.0000
     12  C          5.5400    0.2840    1.7750 C.2     1  UNL1        0.0000
@<TRIPOS>BOND
     1     4     5    1
     2     4     2    1
     3     3     2    2
     4     2     1    1
     5     1     6    1
     6     6     7    1
     7     7     8    2
     8     7     9    1
     9     8    10    1
    10     9    11    2
    11    10    12    2
    12    11    12    1
