@<TRIPOS>MOLECULE
/home/cewinharhar/GITHUB/reincatalyze/data/processed/docking_pred/2023-Apr-25-1829_maxeplen10_maxtrainstep200_exh32_gamma099_lrac3e-4_lrcr1e-3/2481e5cfc04dcfc4c7035fb6b8b96c3a7d203934_ligand_2.pdbqt
 12 12 0 0 0
SMALL
GASTEIGER

@<TRIPOS>ATOM
      1  C          5.0040    1.8070    0.7670 C.3     1  UNL1        0.1270
      2  C          4.4560    1.1170    1.9470 C.2     1  UNL1        0.3030
      3  O          5.1260    0.2000    2.4780 O.2     1  UNL1       -0.2520
      4  O          3.2260    1.4610    2.4750 O.3     1  UNL1       -0.4810
      5  H          2.3670    0.8950    2.3440 H       1  UNL1        0.2960
      6  C          6.5230    1.7610    0.8870 C.3     1  UNL1        0.0470
      7  C          7.1520    1.0840   -0.2610 C.2     1  UNL1       -0.0470
      8  C          6.3620    0.2440   -1.0370 C.2     1  UNL1        0.0040
      9  C          8.4670    1.2130   -0.6250 C.2     1  UNL1        0.0040
     10  C          6.9220   -0.4200   -2.1270 C.2     1  UNL1        0.0000
     11  C          9.0510    0.5700   -1.6980 C.2     1  UNL1        0.0000
     12  C          8.2410   -0.2600   -2.4500 C.2     1  UNL1        0.0000
@<TRIPOS>BOND
     1    12    10    2
     2    12    11    1
     3    10     8    1
     4    11     9    2
     5     8     7    2
     6     9     7    1
     7     7     6    1
     8     1     6    1
     9     1     2    1
    10     2     4    1
    11     2     3    2
    12     5     4    1
