MODEL 1
REMARK VINA RESULT:      -7.3      0.000      0.000
REMARK SMILES O=C(O)CCc1ccccc1
REMARK SMILES IDX 4 1 2 2 1 3 3 4 5 6 6 7 7 8 11 9 8 10 10 11 9 12
REMARK H PARENT 3 5
REMARK Flexibility Score: inf
ROOT
ATOM      1  C   UNL     1       8.451  -0.566  -2.272  1.00  0.00     0.127 C 
ENDROOT
BRANCH   1   2
ATOM      2  C   UNL     1       8.467  -1.880  -2.939  1.00  0.00     0.303 C 
ATOM      3  O   UNL     1       9.560  -2.483  -3.061  1.00  0.00    -0.252 OA
BRANCH   2   4
ATOM      4  O   UNL     1       7.309  -2.455  -3.426  1.00  0.00    -0.481 OA
ATOM      5  H   UNL     1       6.837  -3.261  -2.977  1.00  0.00     0.296 HD
ENDBRANCH   2   4
ENDBRANCH   1   2
BRANCH   1   6
ATOM      6  C   UNL     1       6.996  -0.112  -2.212  1.00  0.00     0.047 C 
BRANCH   6   7
ATOM      7  C   UNL     1       6.502  -0.015  -0.827  1.00  0.00    -0.047 A 
ATOM      8  C   UNL     1       5.884   1.167  -0.435  1.00  0.00     0.004 A 
ATOM      9  C   UNL     1       6.610  -1.004   0.117  1.00  0.00     0.004 A 
ATOM     10  C   UNL     1       5.409   1.299   0.868  1.00  0.00     0.000 A 
ATOM     11  C   UNL     1       6.149  -0.902   1.415  1.00  0.00     0.000 A 
ATOM     12  C   UNL     1       5.540   0.284   1.775  1.00  0.00     0.000 A 
ENDBRANCH   6   7
ENDBRANCH   1   6
TORSDOF 4
ENDMDL
MODEL 2
REMARK VINA RESULT:      -7.3      0.222      1.737
REMARK SMILES O=C(O)CCc1ccccc1
REMARK SMILES IDX 4 1 2 2 1 3 3 4 5 6 6 7 7 8 11 9 8 10 10 11 9 12
REMARK H PARENT 3 5
REMARK Flexibility Score: inf
ROOT
ATOM      1  C   UNL     1       8.438  -0.717  -2.025  1.00  0.00     0.127 C 
ENDROOT
BRANCH   1   2
ATOM      2  C   UNL     1       8.402  -1.929  -2.862  1.00  0.00     0.303 C 
ATOM      3  O   UNL     1       7.290  -2.390  -3.213  1.00  0.00    -0.252 OA
BRANCH   2   4
ATOM      4  O   UNL     1       9.563  -2.560  -3.265  1.00  0.00    -0.481 OA
ATOM      5  H   UNL     1       9.913  -3.440  -2.844  1.00  0.00     0.296 HD
ENDBRANCH   2   4
ENDBRANCH   1   2
BRANCH   1   6
ATOM      6  C   UNL     1       7.063  -0.065  -2.121  1.00  0.00     0.047 C 
BRANCH   6   7
ATOM      7  C   UNL     1       6.463   0.166  -0.795  1.00  0.00    -0.047 A 
ATOM      8  C   UNL     1       6.591  -0.832   0.163  1.00  0.00     0.004 A 
ATOM      9  C   UNL     1       5.779   1.297  -0.430  1.00  0.00     0.004 A 
ATOM     10  C   UNL     1       6.031  -0.652   1.427  1.00  0.00     0.000 A 
ATOM     11  C   UNL     1       5.214   1.504   0.813  1.00  0.00     0.000 A 
ATOM     12  C   UNL     1       5.356   0.494   1.745  1.00  0.00     0.000 A 
ENDBRANCH   6   7
ENDBRANCH   1   6
TORSDOF 4
ENDMDL
MODEL 3
REMARK VINA RESULT:      -6.8      3.394      5.096
REMARK SMILES O=C(O)CCc1ccccc1
REMARK SMILES IDX 4 1 2 2 1 3 3 4 5 6 6 7 7 8 11 9 8 10 10 11 9 12
REMARK H PARENT 3 5
REMARK Flexibility Score: inf
ROOT
ATOM      1  C   UNL     1       5.004   1.807   0.767  1.00  0.00     0.127 C 
ENDROOT
BRANCH   1   2
ATOM      2  C   UNL     1       4.456   1.117   1.947  1.00  0.00     0.303 C 
ATOM      3  O   UNL     1       5.126   0.200   2.478  1.00  0.00    -0.252 OA
BRANCH   2   4
ATOM      4  O   UNL     1       3.226   1.461   2.475  1.00  0.00    -0.481 OA
ATOM      5  H   UNL     1       2.367   0.895   2.344  1.00  0.00     0.296 HD
ENDBRANCH   2   4
ENDBRANCH   1   2
BRANCH   1   6
ATOM      6  C   UNL     1       6.523   1.761   0.887  1.00  0.00     0.047 C 
BRANCH   6   7
ATOM      7  C   UNL     1       7.152   1.084  -0.261  1.00  0.00    -0.047 A 
ATOM      8  C   UNL     1       6.362   0.244  -1.037  1.00  0.00     0.004 A 
ATOM      9  C   UNL     1       8.467   1.213  -0.625  1.00  0.00     0.004 A 
ATOM     10  C   UNL     1       6.922  -0.420  -2.127  1.00  0.00     0.000 A 
ATOM     11  C   UNL     1       9.051   0.570  -1.698  1.00  0.00     0.000 A 
ATOM     12  C   UNL     1       8.241  -0.260  -2.450  1.00  0.00     0.000 A 
ENDBRANCH   6   7
ENDBRANCH   1   6
TORSDOF 4
ENDMDL
MODEL 4
REMARK VINA RESULT:      -6.8      3.377      5.051
REMARK SMILES O=C(O)CCc1ccccc1
REMARK SMILES IDX 4 1 2 2 1 3 3 4 5 6 6 7 7 8 11 9 8 10 10 11 9 12
REMARK H PARENT 3 5
REMARK Flexibility Score: inf
ROOT
ATOM      1  C   UNL     1       4.983   1.757   0.707  1.00  0.00     0.127 C 
ENDROOT
BRANCH   1   2
ATOM      2  C   UNL     1       4.478   1.095   1.923  1.00  0.00     0.303 C 
ATOM      3  O   UNL     1       5.179   0.208   2.464  1.00  0.00    -0.252 OA
BRANCH   2   4
ATOM      4  O   UNL     1       3.256   1.433   2.472  1.00  0.00    -0.481 OA
ATOM      5  H   UNL     1       2.905   2.407   2.533  1.00  0.00     0.296 HD
ENDBRANCH   2   4
ENDBRANCH   1   2
BRANCH   1   6
ATOM      6  C   UNL     1       6.506   1.738   0.786  1.00  0.00     0.047 C 
BRANCH   6   7
ATOM      7  C   UNL     1       7.110   0.971  -0.318  1.00  0.00    -0.047 A 
ATOM      8  C   UNL     1       8.440   1.217  -0.633  1.00  0.00     0.004 A 
ATOM      9  C   UNL     1       6.456   0.029  -1.069  1.00  0.00     0.004 A 
ATOM     10  C   UNL     1       9.045   0.516  -1.675  1.00  0.00     0.000 A 
ATOM     11  C   UNL     1       7.027  -0.682  -2.106  1.00  0.00     0.000 A 
ATOM     12  C   UNL     1       8.350  -0.415  -2.397  1.00  0.00     0.000 A 
ENDBRANCH   6   7
ENDBRANCH   1   6
TORSDOF 4
ENDMDL
MODEL 5
REMARK VINA RESULT:      -6.6      1.978      2.711
REMARK SMILES O=C(O)CCc1ccccc1
REMARK SMILES IDX 4 1 2 2 1 3 3 4 5 6 6 7 7 8 11 9 8 10 10 11 9 12
REMARK H PARENT 3 5
REMARK Flexibility Score: inf
ROOT
ATOM      1  C   UNL     1       8.360   0.223  -2.126  1.00  0.00     0.127 C 
ENDROOT
BRANCH   1   2
ATOM      2  C   UNL     1       9.474   0.396  -1.177  1.00  0.00     0.303 C 
ATOM      3  O   UNL     1       9.533  -0.351  -0.171  1.00  0.00    -0.252 OA
BRANCH   2   4
ATOM      4  O   UNL     1      10.446   1.358  -1.375  1.00  0.00    -0.481 OA
ATOM      5  H   UNL     1      10.736   1.695  -2.311  1.00  0.00     0.296 HD
ENDBRANCH   2   4
ENDBRANCH   1   2
BRANCH   1   6
ATOM      6  C   UNL     1       7.286  -0.590  -1.414  1.00  0.00     0.047 C 
BRANCH   6   7
ATOM      7  C   UNL     1       6.431   0.249  -0.556  1.00  0.00    -0.047 A 
ATOM      8  C   UNL     1       6.182  -0.183   0.741  1.00  0.00     0.004 A 
ATOM      9  C   UNL     1       5.851   1.430  -0.941  1.00  0.00     0.004 A 
ATOM     10  C   UNL     1       5.373   0.580   1.581  1.00  0.00     0.000 A 
ATOM     11  C   UNL     1       5.046   2.208  -0.133  1.00  0.00     0.000 A 
ATOM     12  C   UNL     1       4.816   1.753   1.151  1.00  0.00     0.000 A 
ENDBRANCH   6   7
ENDBRANCH   1   6
TORSDOF 4
ENDMDL
