@<TRIPOS>MOLECULE
/home/cewinharhar/GITHUB/reincatalyze/data/processed/docking_pred/2023-Apr-25-1829_maxeplen10_maxtrainstep200_exh32_gamma099_lrac3e-4_lrcr1e-3/2481e5cfc04dcfc4c7035fb6b8b96c3a7d203934_ligand_2.pdbqt
 12 12 0 0 0
SMALL
GASTEIGER

@<TRIPOS>ATOM
      1  C          8.3600    0.2230   -2.1260 C.3     1  UNL1        0.1270
      2  C          9.4740    0.3960   -1.1770 C.2     1  UNL1        0.3030
      3  O          9.5330   -0.3510   -0.1710 O.2     1  UNL1       -0.2520
      4  O         10.4460    1.3580   -1.3750 O.3     1  UNL1       -0.4810
      5  H         10.7360    1.6950   -2.3110 H       1  UNL1        0.2960
      6  C          7.2860   -0.5900   -1.4140 C.3     1  UNL1        0.0470
      7  C          6.4310    0.2490   -0.5560 C.2     1  UNL1       -0.0470
      8  C          6.1820   -0.1830    0.7410 C.2     1  UNL1        0.0040
      9  C          5.8510    1.4300   -0.9410 C.2     1  UNL1        0.0040
     10  C          5.3730    0.5800    1.5810 C.2     1  UNL1        0.0000
     11  C          5.0460    2.2080   -0.1330 C.2     1  UNL1        0.0000
     12  C          4.8160    1.7530    1.1510 C.2     1  UNL1        0.0000
@<TRIPOS>BOND
     1     5     4    1
     2     1     6    1
     3     1     2    1
     4     6     7    1
     5     4     2    1
     6     2     3    2
     7     9     7    2
     8     9    11    1
     9     7     8    1
    10    11    12    2
    11     8    10    2
    12    12    10    1
