@<TRIPOS>MOLECULE
/home/cewinharhar/GITHUB/reincatalyze/data/processed/docking_pred/2023-Apr-25-1829_maxeplen10_maxtrainstep200_exh32_gamma099_lrac3e-4_lrcr1e-3/25ea22f039de2039e6eb222be1b9c38742a73e8b_ligand_2.pdbqt
 12 12 0 0 0
SMALL
GASTEIGER

@<TRIPOS>ATOM
      1  C          5.5330    2.9010   -0.0180 C.3     1  UNL1        0.1270
      2  C          6.2540    3.8950    0.7960 C.2     1  UNL1        0.3030
      3  O          6.9330    4.7750    0.2150 O.2     1  UNL1       -0.2520
      4  O          6.1950    3.8740    2.1760 O.3     1  UNL1       -0.4810
      5  H          5.7340    3.1210    2.7190 H       1  UNL1        0.2960
      6  C          4.9190    1.8920    0.9460 C.3     1  UNL1        0.0470
      7  C          5.6910    0.6380    1.0040 C.2     1  UNL1       -0.0470
      8  C          6.3920    0.2490   -0.1310 C.2     1  UNL1        0.0040
      9  C          5.7680   -0.1860    2.0970 C.2     1  UNL1        0.0040
     10  C          7.1280   -0.9340   -0.1170 C.2     1  UNL1        0.0000
     11  C          6.4890   -1.3630    2.1410 C.2     1  UNL1        0.0000
     12  C          7.1750   -1.7240    0.9980 C.2     1  UNL1        0.0000
@<TRIPOS>BOND
     1     8    10    1
     2     8     7    2
     3    10    12    2
     4     1     2    1
     5     1     6    1
     6     3     2    2
     7     2     4    1
     8     6     7    1
     9    12    11    1
    10     7     9    1
    11     9    11    2
    12     4     5    1
