@<TRIPOS>MOLECULE
/home/cewinharhar/GITHUB/reincatalyze/data/processed/docking_pred/2023-Apr-25-1829_maxeplen10_maxtrainstep200_exh32_gamma099_lrac3e-4_lrcr1e-3/25ea22f039de2039e6eb222be1b9c38742a73e8b_ligand_2.pdbqt
 12 12 0 0 0
SMALL
GASTEIGER

@<TRIPOS>ATOM
      1  C          8.2460    0.2170   -2.2410 C.3     1  UNL1        0.1270
      2  C          9.3570    0.3530   -1.2830 C.2     1  UNL1        0.3030
      3  O          9.4120   -0.4290   -0.3050 O.2     1  UNL1       -0.2520
      4  O         10.3320    1.3200   -1.4440 O.3     1  UNL1       -0.4810
      5  H         11.2210    1.3310   -0.9110 H       1  UNL1        0.2960
      6  C          7.1360   -0.5510   -1.5330 C.3     1  UNL1        0.0470
      7  C          6.3460    0.3140   -0.6380 C.2     1  UNL1       -0.0470
      8  C          6.1180   -0.1240    0.6610 C.2     1  UNL1        0.0040
      9  C          5.8070    1.5240   -0.9910 C.2     1  UNL1        0.0040
     10  C          5.3700    0.6630    1.5350 C.2     1  UNL1        0.0000
     11  C          5.0630    2.3260   -0.1490 C.2     1  UNL1        0.0000
     12  C          4.8520    1.8650    1.1360 C.2     1  UNL1        0.0000
@<TRIPOS>BOND
     1     1     6    1
     2     1     2    1
     3     6     7    1
     4     4     2    1
     5     4     5    1
     6     2     3    2
     7     9     7    2
     8     9    11    1
     9     7     8    1
    10    11    12    2
    11     8    10    2
    12    12    10    1
