@<TRIPOS>MOLECULE
/home/cewinharhar/GITHUB/reincatalyze/data/processed/docking_pred/2023-Apr-25-1829_maxeplen10_maxtrainstep200_exh32_gamma099_lrac3e-4_lrcr1e-3/25ea22f039de2039e6eb222be1b9c38742a73e8b_ligand_2.pdbqt
 12 12 0 0 0
SMALL
GASTEIGER

@<TRIPOS>ATOM
      1  C          4.9820    1.7390    0.7150 C.3     1  UNL1        0.1270
      2  C          4.4580    1.1040    1.9360 C.2     1  UNL1        0.3030
      3  O          5.1430    0.2180    2.4990 O.2     1  UNL1       -0.2520
      4  O          3.2350    1.4660    2.4680 O.3     1  UNL1       -0.4810
      5  H          2.8190    2.4090    2.3590 H       1  UNL1        0.2960
      6  C          6.5010    1.7600    0.8370 C.3     1  UNL1        0.0470
      7  C          7.1590    1.0640   -0.2830 C.2     1  UNL1       -0.0470
      8  C          6.4010    0.1730   -1.0340 C.2     1  UNL1        0.0040
      9  C          8.4720    1.2220   -0.6430 C.2     1  UNL1        0.0040
     10  C          6.9890   -0.5090   -2.0980 C.2     1  UNL1        0.0000
     11  C          9.0830    0.5610   -1.6910 C.2     1  UNL1        0.0000
     12  C          8.3060   -0.3180   -2.4190 C.2     1  UNL1        0.0000
@<TRIPOS>BOND
     1    12    10    2
     2    12    11    1
     3    10     8    1
     4    11     9    2
     5     8     7    2
     6     9     7    1
     7     7     6    1
     8     1     6    1
     9     1     2    1
    10     2     4    1
    11     2     3    2
    12     5     4    1
