@<TRIPOS>MOLECULE
/home/cewinharhar/GITHUB/reincatalyze/data/processed/docking_pred/2023-Apr-25-1829_maxeplen10_maxtrainstep200_exh32_gamma099_lrac3e-4_lrcr1e-3/25ea22f039de2039e6eb222be1b9c38742a73e8b_ligand_2.pdbqt
 12 12 0 0 0
SMALL
GASTEIGER

@<TRIPOS>ATOM
      1  C          8.4530   -0.6400   -2.1450 C.3     1  UNL1        0.1270
      2  C          8.4650   -1.8960   -2.9150 C.2     1  UNL1        0.3030
      3  O          9.5570   -2.4850   -3.0970 O.2     1  UNL1       -0.2520
      4  O          7.3030   -2.4330   -3.4360 O.3     1  UNL1       -0.4810
      5  H          6.4060   -1.9150   -3.4890 H       1  UNL1        0.2960
      6  C          7.0240   -0.1110   -2.1720 C.3     1  UNL1        0.0470
      7  C          6.4800    0.0910   -0.8180 C.2     1  UNL1       -0.0470
      8  C          6.6140   -0.9420    0.1020 C.2     1  UNL1        0.0040
      9  C          5.8410    1.2260   -0.3900 C.2     1  UNL1        0.0040
     10  C          6.1080   -0.7910    1.3910 C.2     1  UNL1        0.0000
     11  C          5.3290    1.4060    0.8800 C.2     1  UNL1        0.0000
     12  C          5.4760    0.3620    1.7710 C.2     1  UNL1        0.0000
@<TRIPOS>BOND
     1     5     4    1
     2     4     2    1
     3     3     2    2
     4     2     1    1
     5     6     1    1
     6     6     7    1
     7     7     9    2
     8     7     8    1
     9     9    11    1
    10     8    10    2
    11    11    12    2
    12    10    12    1
