MODEL 1
REMARK VINA RESULT:      -7.3      0.000      0.000
REMARK SMILES O=C(O)CCc1ccccc1
REMARK SMILES IDX 4 1 2 2 1 3 3 4 5 6 6 7 7 8 11 9 8 10 10 11 9 12
REMARK H PARENT 3 5
REMARK Flexibility Score: inf
ROOT
ATOM      1  C   UNL     1       8.453  -0.640  -2.145  1.00  0.00     0.127 C 
ENDROOT
BRANCH   1   2
ATOM      2  C   UNL     1       8.465  -1.896  -2.915  1.00  0.00     0.303 C 
ATOM      3  O   UNL     1       9.557  -2.485  -3.097  1.00  0.00    -0.252 OA
BRANCH   2   4
ATOM      4  O   UNL     1       7.303  -2.433  -3.436  1.00  0.00    -0.481 OA
ATOM      5  H   UNL     1       6.406  -1.915  -3.489  1.00  0.00     0.296 HD
ENDBRANCH   2   4
ENDBRANCH   1   2
BRANCH   1   6
ATOM      6  C   UNL     1       7.024  -0.111  -2.172  1.00  0.00     0.047 C 
BRANCH   6   7
ATOM      7  C   UNL     1       6.480   0.091  -0.818  1.00  0.00    -0.047 A 
ATOM      8  C   UNL     1       6.614  -0.942   0.102  1.00  0.00     0.004 A 
ATOM      9  C   UNL     1       5.841   1.226  -0.390  1.00  0.00     0.004 A 
ATOM     10  C   UNL     1       6.108  -0.791   1.391  1.00  0.00     0.000 A 
ATOM     11  C   UNL     1       5.329   1.406   0.880  1.00  0.00     0.000 A 
ATOM     12  C   UNL     1       5.476   0.362   1.771  1.00  0.00     0.000 A 
ENDBRANCH   6   7
ENDBRANCH   1   6
TORSDOF 4
ENDMDL
MODEL 2
REMARK VINA RESULT:      -7.3      0.131      1.728
REMARK SMILES O=C(O)CCc1ccccc1
REMARK SMILES IDX 4 1 2 2 1 3 3 4 5 6 6 7 7 8 11 9 8 10 10 11 9 12
REMARK H PARENT 3 5
REMARK Flexibility Score: inf
ROOT
ATOM      1  C   UNL     1       8.443  -0.703  -2.062  1.00  0.00     0.127 C 
ENDROOT
BRANCH   1   2
ATOM      2  C   UNL     1       8.405  -1.943  -2.857  1.00  0.00     0.303 C 
ATOM      3  O   UNL     1       7.293  -2.399  -3.214  1.00  0.00    -0.252 OA
BRANCH   2   4
ATOM      4  O   UNL     1       9.564  -2.605  -3.214  1.00  0.00    -0.481 OA
ATOM      5  H   UNL     1      10.154  -3.130  -2.542  1.00  0.00     0.296 HD
ENDBRANCH   2   4
ENDBRANCH   1   2
BRANCH   1   6
ATOM      6  C   UNL     1       7.037  -0.115  -2.082  1.00  0.00     0.047 C 
BRANCH   6   7
ATOM      7  C   UNL     1       6.474   0.027  -0.727  1.00  0.00    -0.047 A 
ATOM      8  C   UNL     1       5.819   1.210  -0.411  1.00  0.00     0.004 A 
ATOM      9  C   UNL     1       6.552  -0.924   0.258  1.00  0.00     0.004 A 
ATOM     10  C   UNL     1       5.279   1.384   0.862  1.00  0.00     0.000 A 
ATOM     11  C   UNL     1       6.028  -0.782   1.528  1.00  0.00     0.000 A 
ATOM     12  C   UNL     1       5.383   0.406   1.813  1.00  0.00     0.000 A 
ENDBRANCH   6   7
ENDBRANCH   1   6
TORSDOF 4
ENDMDL
MODEL 3
REMARK VINA RESULT:      -6.8      3.389      5.079
REMARK SMILES O=C(O)CCc1ccccc1
REMARK SMILES IDX 4 1 2 2 1 3 3 4 5 6 6 7 7 8 11 9 8 10 10 11 9 12
REMARK H PARENT 3 5
REMARK Flexibility Score: inf
ROOT
ATOM      1  C   UNL     1       4.982   1.739   0.715  1.00  0.00     0.127 C 
ENDROOT
BRANCH   1   2
ATOM      2  C   UNL     1       4.458   1.104   1.936  1.00  0.00     0.303 C 
ATOM      3  O   UNL     1       5.143   0.218   2.499  1.00  0.00    -0.252 OA
BRANCH   2   4
ATOM      4  O   UNL     1       3.235   1.466   2.468  1.00  0.00    -0.481 OA
ATOM      5  H   UNL     1       2.819   2.409   2.359  1.00  0.00     0.296 HD
ENDBRANCH   2   4
ENDBRANCH   1   2
BRANCH   1   6
ATOM      6  C   UNL     1       6.501   1.760   0.837  1.00  0.00     0.047 C 
BRANCH   6   7
ATOM      7  C   UNL     1       7.159   1.064  -0.283  1.00  0.00    -0.047 A 
ATOM      8  C   UNL     1       6.401   0.173  -1.034  1.00  0.00     0.004 A 
ATOM      9  C   UNL     1       8.472   1.222  -0.643  1.00  0.00     0.004 A 
ATOM     10  C   UNL     1       6.989  -0.509  -2.098  1.00  0.00     0.000 A 
ATOM     11  C   UNL     1       9.083   0.561  -1.691  1.00  0.00     0.000 A 
ATOM     12  C   UNL     1       8.306  -0.318  -2.419  1.00  0.00     0.000 A 
ENDBRANCH   6   7
ENDBRANCH   1   6
TORSDOF 4
ENDMDL
MODEL 4
REMARK VINA RESULT:      -6.7      3.828      4.998
REMARK SMILES O=C(O)CCc1ccccc1
REMARK SMILES IDX 4 1 2 2 1 3 3 4 5 6 6 7 7 8 11 9 8 10 10 11 9 12
REMARK H PARENT 3 5
REMARK Flexibility Score: inf
ROOT
ATOM      1  C   UNL     1       5.533   2.901  -0.018  1.00  0.00     0.127 C 
ENDROOT
BRANCH   1   2
ATOM      2  C   UNL     1       6.254   3.895   0.796  1.00  0.00     0.303 C 
ATOM      3  O   UNL     1       6.933   4.775   0.215  1.00  0.00    -0.252 OA
BRANCH   2   4
ATOM      4  O   UNL     1       6.195   3.874   2.176  1.00  0.00    -0.481 OA
ATOM      5  H   UNL     1       5.734   3.121   2.719  1.00  0.00     0.296 HD
ENDBRANCH   2   4
ENDBRANCH   1   2
BRANCH   1   6
ATOM      6  C   UNL     1       4.919   1.892   0.946  1.00  0.00     0.047 C 
BRANCH   6   7
ATOM      7  C   UNL     1       5.691   0.638   1.004  1.00  0.00    -0.047 A 
ATOM      8  C   UNL     1       6.392   0.249  -0.131  1.00  0.00     0.004 A 
ATOM      9  C   UNL     1       5.768  -0.186   2.097  1.00  0.00     0.004 A 
ATOM     10  C   UNL     1       7.128  -0.934  -0.117  1.00  0.00     0.000 A 
ATOM     11  C   UNL     1       6.489  -1.363   2.141  1.00  0.00     0.000 A 
ATOM     12  C   UNL     1       7.175  -1.724   0.998  1.00  0.00     0.000 A 
ENDBRANCH   6   7
ENDBRANCH   1   6
TORSDOF 4
ENDMDL
MODEL 5
REMARK VINA RESULT:      -6.6      1.909      2.309
REMARK SMILES O=C(O)CCc1ccccc1
REMARK SMILES IDX 4 1 2 2 1 3 3 4 5 6 6 7 7 8 11 9 8 10 10 11 9 12
REMARK H PARENT 3 5
REMARK Flexibility Score: inf
ROOT
ATOM      1  C   UNL     1       8.246   0.217  -2.241  1.00  0.00     0.127 C 
ENDROOT
BRANCH   1   2
ATOM      2  C   UNL     1       9.357   0.353  -1.283  1.00  0.00     0.303 C 
ATOM      3  O   UNL     1       9.412  -0.429  -0.305  1.00  0.00    -0.252 OA
BRANCH   2   4
ATOM      4  O   UNL     1      10.332   1.320  -1.444  1.00  0.00    -0.481 OA
ATOM      5  H   UNL     1      11.221   1.331  -0.911  1.00  0.00     0.296 HD
ENDBRANCH   2   4
ENDBRANCH   1   2
BRANCH   1   6
ATOM      6  C   UNL     1       7.136  -0.551  -1.533  1.00  0.00     0.047 C 
BRANCH   6   7
ATOM      7  C   UNL     1       6.346   0.314  -0.638  1.00  0.00    -0.047 A 
ATOM      8  C   UNL     1       6.118  -0.124   0.661  1.00  0.00     0.004 A 
ATOM      9  C   UNL     1       5.807   1.524  -0.991  1.00  0.00     0.004 A 
ATOM     10  C   UNL     1       5.370   0.663   1.535  1.00  0.00     0.000 A 
ATOM     11  C   UNL     1       5.063   2.326  -0.149  1.00  0.00     0.000 A 
ATOM     12  C   UNL     1       4.852   1.865   1.136  1.00  0.00     0.000 A 
ENDBRANCH   6   7
ENDBRANCH   1   6
TORSDOF 4
ENDMDL
