@<TRIPOS>MOLECULE
/home/cewinharhar/GITHUB/reincatalyze/data/processed/docking_pred/2023-Apr-25-1829_maxeplen10_maxtrainstep200_exh32_gamma099_lrac3e-4_lrcr1e-3/25ea22f039de2039e6eb222be1b9c38742a73e8b_ligand_2.pdbqt
 12 12 0 0 0
SMALL
GASTEIGER

@<TRIPOS>ATOM
      1  C          8.4430   -0.7030   -2.0620 C.3     1  UNL1        0.1270
      2  C          8.4050   -1.9430   -2.8570 C.2     1  UNL1        0.3030
      3  O          7.2930   -2.3990   -3.2140 O.2     1  UNL1       -0.2520
      4  O          9.5640   -2.6050   -3.2140 O.3     1  UNL1       -0.4810
      5  H         10.1540   -3.1300   -2.5420 H       1  UNL1        0.2960
      6  C          7.0370   -0.1150   -2.0820 C.3     1  UNL1        0.0470
      7  C          6.4740    0.0270   -0.7270 C.2     1  UNL1       -0.0470
      8  C          5.8190    1.2100   -0.4110 C.2     1  UNL1        0.0040
      9  C          6.5520   -0.9240    0.2580 C.2     1  UNL1        0.0040
     10  C          5.2790    1.3840    0.8620 C.2     1  UNL1        0.0000
     11  C          6.0280   -0.7820    1.5280 C.2     1  UNL1        0.0000
     12  C          5.3830    0.4060    1.8130 C.2     1  UNL1        0.0000
@<TRIPOS>BOND
     1     3     2    2
     2     4     2    1
     3     4     5    1
     4     2     1    1
     5     6     1    1
     6     6     7    1
     7     7     8    2
     8     7     9    1
     9     8    10    1
    10     9    11    2
    11    10    12    2
    12    11    12    1
