@<TRIPOS>MOLECULE
/home/cewinharhar/GITHUB/reincatalyze/data/processed/docking_pred/2023-Apr-25-1829_maxeplen10_maxtrainstep200_exh32_gamma099_lrac3e-4_lrcr1e-3/25f547df8c587039729a955c6f4cb3c83005f49c_ligand_2.pdbqt
 12 12 0 0 0
SMALL
GASTEIGER

@<TRIPOS>ATOM
      1  C          5.4830    2.8830   -0.0740 C.3     1  UNL1        0.1270
      2  C          6.2450    3.8340    0.7540 C.2     1  UNL1        0.3030
      3  O          6.8970    4.7430    0.1870 O.2     1  UNL1       -0.2520
      4  O          6.2520    3.7430    2.1330 O.3     1  UNL1       -0.4810
      5  H          5.3950    3.6200    2.7030 H       1  UNL1        0.2960
      6  C          4.9100    1.8290    0.8660 C.3     1  UNL1        0.0470
      7  C          5.7180    0.5970    0.8790 C.2     1  UNL1       -0.0470
      8  C          5.7800   -0.1320    2.0600 C.2     1  UNL1        0.0040
      9  C          6.4240    0.1110   -0.1910 C.2     1  UNL1        0.0040
     10  C          6.5380   -1.3000    2.1130 C.2     1  UNL1        0.0000
     11  C          7.1840   -1.0420   -0.1700 C.2     1  UNL1        0.0000
     12  C          7.2280   -1.7450    1.0180 C.2     1  UNL1        0.0000
@<TRIPOS>BOND
     1     9    11    1
     2     9     7    2
     3    11    12    2
     4     1     2    1
     5     1     6    1
     6     3     2    2
     7     2     4    1
     8     6     7    1
     9     7     8    1
    10    12    10    1
    11     8    10    2
    12     4     5    1
