MODEL 1
REMARK VINA RESULT:      -7.3      0.000      0.000
REMARK SMILES O=C(O)CCc1ccccc1
REMARK SMILES IDX 4 1 2 2 1 3 3 4 5 6 6 7 7 8 11 9 8 10 10 11 9 12
REMARK H PARENT 3 5
REMARK Flexibility Score: inf
ROOT
ATOM      1  C   UNL     1       8.488  -0.652  -2.132  1.00  0.00     0.127 C 
ENDROOT
BRANCH   1   2
ATOM      2  C   UNL     1       8.467  -1.904  -2.908  1.00  0.00     0.303 C 
ATOM      3  O   UNL     1       9.540  -2.529  -3.078  1.00  0.00    -0.252 OA
BRANCH   2   4
ATOM      4  O   UNL     1       7.294  -2.398  -3.445  1.00  0.00    -0.481 OA
ATOM      5  H   UNL     1       6.659  -1.841  -4.046  1.00  0.00     0.296 HD
ENDBRANCH   2   4
ENDBRANCH   1   2
BRANCH   1   6
ATOM      6  C   UNL     1       7.065  -0.107  -2.121  1.00  0.00     0.047 C 
BRANCH   6   7
ATOM      7  C   UNL     1       6.515  -0.015  -0.756  1.00  0.00    -0.047 A 
ATOM      8  C   UNL     1       5.874   1.161  -0.388  1.00  0.00     0.004 A 
ATOM      9  C   UNL     1       6.592  -1.005   0.189  1.00  0.00     0.004 A 
ATOM     10  C   UNL     1       5.347   1.289   0.896  1.00  0.00     0.000 A 
ATOM     11  C   UNL     1       6.080  -0.909   1.468  1.00  0.00     0.000 A 
ATOM     12  C   UNL     1       5.450   0.272   1.806  1.00  0.00     0.000 A 
ENDBRANCH   6   7
ENDBRANCH   1   6
TORSDOF 4
ENDMDL
MODEL 2
REMARK VINA RESULT:      -7.3      0.069      1.430
REMARK SMILES O=C(O)CCc1ccccc1
REMARK SMILES IDX 4 1 2 2 1 3 3 4 5 6 6 7 7 8 11 9 8 10 10 11 9 12
REMARK H PARENT 3 5
REMARK Flexibility Score: inf
ROOT
ATOM      1  C   UNL     1       8.437  -0.632  -2.135  1.00  0.00     0.127 C 
ENDROOT
BRANCH   1   2
ATOM      2  C   UNL     1       8.470  -1.888  -2.906  1.00  0.00     0.303 C 
ATOM      3  O   UNL     1       9.571  -2.458  -3.087  1.00  0.00    -0.252 OA
BRANCH   2   4
ATOM      4  O   UNL     1       7.317  -2.443  -3.427  1.00  0.00    -0.481 OA
ATOM      5  H   UNL     1       7.014  -3.417  -3.239  1.00  0.00     0.296 HD
ENDBRANCH   2   4
ENDBRANCH   1   2
BRANCH   1   6
ATOM      6  C   UNL     1       6.995  -0.139  -2.142  1.00  0.00     0.047 C 
BRANCH   6   7
ATOM      7  C   UNL     1       6.466   0.053  -0.780  1.00  0.00    -0.047 A 
ATOM      8  C   UNL     1       6.608  -0.988   0.129  1.00  0.00     0.004 A 
ATOM      9  C   UNL     1       5.834   1.186  -0.336  1.00  0.00     0.004 A 
ATOM     10  C   UNL     1       6.116  -0.846   1.425  1.00  0.00     0.000 A 
ATOM     11  C   UNL     1       5.336   1.357   0.940  1.00  0.00     0.000 A 
ATOM     12  C   UNL     1       5.491   0.305   1.822  1.00  0.00     0.000 A 
ENDBRANCH   6   7
ENDBRANCH   1   6
TORSDOF 4
ENDMDL
MODEL 3
REMARK VINA RESULT:      -7.1      0.657      1.509
REMARK SMILES O=C(O)CCc1ccccc1
REMARK SMILES IDX 4 1 2 2 1 3 3 4 5 6 6 7 7 8 11 9 8 10 10 11 9 12
REMARK H PARENT 3 5
REMARK Flexibility Score: inf
ROOT
ATOM      1  C   UNL     1       8.244  -0.882  -1.893  1.00  0.00     0.127 C 
ENDROOT
BRANCH   1   2
ATOM      2  C   UNL     1       8.324  -1.976  -2.878  1.00  0.00     0.303 C 
ATOM      3  O   UNL     1       7.262  -2.434  -3.361  1.00  0.00    -0.252 OA
BRANCH   2   4
ATOM      4  O   UNL     1       9.539  -2.499  -3.275  1.00  0.00    -0.481 OA
ATOM      5  H   UNL     1       9.633  -3.298  -3.930  1.00  0.00     0.296 HD
ENDBRANCH   2   4
ENDBRANCH   1   2
BRANCH   1   6
ATOM      6  C   UNL     1       7.420  -1.396  -0.718  1.00  0.00     0.047 C 
BRANCH   6   7
ATOM      7  C   UNL     1       6.581  -0.340  -0.124  1.00  0.00    -0.047 A 
ATOM      8  C   UNL     1       6.272   0.766  -0.905  1.00  0.00     0.004 A 
ATOM      9  C   UNL     1       6.082  -0.361   1.153  1.00  0.00     0.004 A 
ATOM     10  C   UNL     1       5.487   1.789  -0.375  1.00  0.00     0.000 A 
ATOM     11  C   UNL     1       5.302   0.635   1.706  1.00  0.00     0.000 A 
ATOM     12  C   UNL     1       5.012   1.724   0.906  1.00  0.00     0.000 A 
ENDBRANCH   6   7
ENDBRANCH   1   6
TORSDOF 4
ENDMDL
MODEL 4
REMARK VINA RESULT:      -6.8      3.378      5.066
REMARK SMILES O=C(O)CCc1ccccc1
REMARK SMILES IDX 4 1 2 2 1 3 3 4 5 6 6 7 7 8 11 9 8 10 10 11 9 12
REMARK H PARENT 3 5
REMARK Flexibility Score: inf
ROOT
ATOM      1  C   UNL     1       4.973   1.759   0.688  1.00  0.00     0.127 C 
ENDROOT
BRANCH   1   2
ATOM      2  C   UNL     1       4.475   1.118   1.918  1.00  0.00     0.303 C 
ATOM      3  O   UNL     1       5.182   0.246   2.474  1.00  0.00    -0.252 OA
BRANCH   2   4
ATOM      4  O   UNL     1       3.252   1.460   2.463  1.00  0.00    -0.481 OA
ATOM      5  H   UNL     1       2.453   0.804   2.536  1.00  0.00     0.296 HD
ENDBRANCH   2   4
ENDBRANCH   1   2
BRANCH   1   6
ATOM      6  C   UNL     1       6.495   1.758   0.767  1.00  0.00     0.047 C 
BRANCH   6   7
ATOM      7  C   UNL     1       7.108   0.983  -0.326  1.00  0.00    -0.047 A 
ATOM      8  C   UNL     1       8.440   1.231  -0.636  1.00  0.00     0.004 A 
ATOM      9  C   UNL     1       6.461   0.033  -1.074  1.00  0.00     0.004 A 
ATOM     10  C   UNL     1       9.053   0.523  -1.668  1.00  0.00     0.000 A 
ATOM     11  C   UNL     1       7.041  -0.685  -2.101  1.00  0.00     0.000 A 
ATOM     12  C   UNL     1       8.365  -0.417  -2.387  1.00  0.00     0.000 A 
ENDBRANCH   6   7
ENDBRANCH   1   6
TORSDOF 4
ENDMDL
MODEL 5
REMARK VINA RESULT:      -6.7      3.796      4.945
REMARK SMILES O=C(O)CCc1ccccc1
REMARK SMILES IDX 4 1 2 2 1 3 3 4 5 6 6 7 7 8 11 9 8 10 10 11 9 12
REMARK H PARENT 3 5
REMARK Flexibility Score: inf
ROOT
ATOM      1  C   UNL     1       5.483   2.883  -0.074  1.00  0.00     0.127 C 
ENDROOT
BRANCH   1   2
ATOM      2  C   UNL     1       6.245   3.834   0.754  1.00  0.00     0.303 C 
ATOM      3  O   UNL     1       6.897   4.743   0.187  1.00  0.00    -0.252 OA
BRANCH   2   4
ATOM      4  O   UNL     1       6.252   3.743   2.133  1.00  0.00    -0.481 OA
ATOM      5  H   UNL     1       5.395   3.620   2.703  1.00  0.00     0.296 HD
ENDBRANCH   2   4
ENDBRANCH   1   2
BRANCH   1   6
ATOM      6  C   UNL     1       4.910   1.829   0.866  1.00  0.00     0.047 C 
BRANCH   6   7
ATOM      7  C   UNL     1       5.718   0.597   0.879  1.00  0.00    -0.047 A 
ATOM      8  C   UNL     1       5.780  -0.132   2.060  1.00  0.00     0.004 A 
ATOM      9  C   UNL     1       6.424   0.111  -0.191  1.00  0.00     0.004 A 
ATOM     10  C   UNL     1       6.538  -1.300   2.113  1.00  0.00     0.000 A 
ATOM     11  C   UNL     1       7.184  -1.042  -0.170  1.00  0.00     0.000 A 
ATOM     12  C   UNL     1       7.228  -1.745   1.018  1.00  0.00     0.000 A 
ENDBRANCH   6   7
ENDBRANCH   1   6
TORSDOF 4
ENDMDL
