@<TRIPOS>MOLECULE
/home/cewinharhar/GITHUB/reincatalyze/data/processed/docking_pred/2023-Apr-25-1829_maxeplen10_maxtrainstep200_exh32_gamma099_lrac3e-4_lrcr1e-3/25f547df8c587039729a955c6f4cb3c83005f49c_ligand_2.pdbqt
 12 12 0 0 0
SMALL
GASTEIGER

@<TRIPOS>ATOM
      1  C          8.2440   -0.8820   -1.8930 C.3     1  UNL1        0.1270
      2  C          8.3240   -1.9760   -2.8780 C.2     1  UNL1        0.3030
      3  O          7.2620   -2.4340   -3.3610 O.2     1  UNL1       -0.2520
      4  O          9.5390   -2.4990   -3.2750 O.3     1  UNL1       -0.4810
      5  H          9.6330   -3.2980   -3.9300 H       1  UNL1        0.2960
      6  C          7.4200   -1.3960   -0.7180 C.3     1  UNL1        0.0470
      7  C          6.5810   -0.3400   -0.1240 C.2     1  UNL1       -0.0470
      8  C          6.2720    0.7660   -0.9050 C.2     1  UNL1        0.0040
      9  C          6.0820   -0.3610    1.1530 C.2     1  UNL1        0.0040
     10  C          5.4870    1.7890   -0.3750 C.2     1  UNL1        0.0000
     11  C          5.3020    0.6350    1.7060 C.2     1  UNL1        0.0000
     12  C          5.0120    1.7240    0.9060 C.2     1  UNL1        0.0000
@<TRIPOS>BOND
     1     5     4    1
     2     3     2    2
     3     4     2    1
     4     2     1    1
     5     1     6    1
     6     8    10    1
     7     8     7    2
     8     6     7    1
     9    10    12    2
    10     7     9    1
    11    12    11    1
    12     9    11    2
