@<TRIPOS>MOLECULE
/home/cewinharhar/GITHUB/reincatalyze/data/processed/docking_pred/2023-Apr-25-1829_maxeplen10_maxtrainstep200_exh32_gamma099_lrac3e-4_lrcr1e-3/25f547df8c587039729a955c6f4cb3c83005f49c_ligand_2.pdbqt
 12 12 0 0 0
SMALL
GASTEIGER

@<TRIPOS>ATOM
      1  C          8.4370   -0.6320   -2.1350 C.3     1  UNL1        0.1270
      2  C          8.4700   -1.8880   -2.9060 C.2     1  UNL1        0.3030
      3  O          9.5710   -2.4580   -3.0870 O.2     1  UNL1       -0.2520
      4  O          7.3170   -2.4430   -3.4270 O.3     1  UNL1       -0.4810
      5  H          7.0140   -3.4170   -3.2390 H       1  UNL1        0.2960
      6  C          6.9950   -0.1390   -2.1420 C.3     1  UNL1        0.0470
      7  C          6.4660    0.0530   -0.7800 C.2     1  UNL1       -0.0470
      8  C          6.6080   -0.9880    0.1290 C.2     1  UNL1        0.0040
      9  C          5.8340    1.1860   -0.3360 C.2     1  UNL1        0.0040
     10  C          6.1160   -0.8460    1.4250 C.2     1  UNL1        0.0000
     11  C          5.3360    1.3570    0.9400 C.2     1  UNL1        0.0000
     12  C          5.4910    0.3050    1.8220 C.2     1  UNL1        0.0000
@<TRIPOS>BOND
     1     4     5    1
     2     4     2    1
     3     3     2    2
     4     2     1    1
     5     6     1    1
     6     6     7    1
     7     7     9    2
     8     7     8    1
     9     9    11    1
    10     8    10    2
    11    11    12    2
    12    10    12    1
