@<TRIPOS>MOLECULE
/home/cewinharhar/GITHUB/reincatalyze/data/processed/docking_pred/2023-Apr-25-1829_maxeplen10_maxtrainstep200_exh32_gamma099_lrac3e-4_lrcr1e-3/25f547df8c587039729a955c6f4cb3c83005f49c_ligand_2.pdbqt
 12 12 0 0 0
SMALL
GASTEIGER

@<TRIPOS>ATOM
      1  C          4.9730    1.7590    0.6880 C.3     1  UNL1        0.1270
      2  C          4.4750    1.1180    1.9180 C.2     1  UNL1        0.3030
      3  O          5.1820    0.2460    2.4740 O.2     1  UNL1       -0.2520
      4  O          3.2520    1.4600    2.4630 O.3     1  UNL1       -0.4810
      5  H          2.4530    0.8040    2.5360 H       1  UNL1        0.2960
      6  C          6.4950    1.7580    0.7670 C.3     1  UNL1        0.0470
      7  C          7.1080    0.9830   -0.3260 C.2     1  UNL1       -0.0470
      8  C          8.4400    1.2310   -0.6360 C.2     1  UNL1        0.0040
      9  C          6.4610    0.0330   -1.0740 C.2     1  UNL1        0.0040
     10  C          9.0530    0.5230   -1.6680 C.2     1  UNL1        0.0000
     11  C          7.0410   -0.6850   -2.1010 C.2     1  UNL1        0.0000
     12  C          8.3650   -0.4170   -2.3870 C.2     1  UNL1        0.0000
@<TRIPOS>BOND
     1    12    11    2
     2    12    10    1
     3    11     9    1
     4    10     8    2
     5     9     7    2
     6     8     7    1
     7     7     6    1
     8     1     6    1
     9     1     2    1
    10     2     4    1
    11     2     3    2
    12     4     5    1
