@<TRIPOS>MOLECULE
/home/cewinharhar/GITHUB/reincatalyze/data/processed/docking_pred/2023-Apr-25-1829_maxeplen10_maxtrainstep200_exh32_gamma099_lrac3e-4_lrcr1e-3/2734134eb9e7fe1a9a1e6734a306fe03ba38cdbb_ligand_2.pdbqt
 12 12 0 0 0
SMALL
GASTEIGER

@<TRIPOS>ATOM
      1  C          8.2430   -0.8740   -1.9530 C.3     1  UNL1        0.1270
      2  C          8.3870   -2.0100   -2.8800 C.2     1  UNL1        0.3030
      3  O          9.5280   -2.4880   -3.0800 O.2     1  UNL1       -0.2520
      4  O          7.2930   -2.5550   -3.5260 O.3     1  UNL1       -0.4810
      5  H          6.3130   -2.3850   -3.2350 H       1  UNL1        0.2960
      6  C          7.4070   -1.3600   -0.7750 C.3     1  UNL1        0.0470
      7  C          6.5790   -0.2850   -0.2000 C.2     1  UNL1       -0.0470
      8  C          6.1480   -0.4230    1.1140 C.2     1  UNL1        0.0040
      9  C          6.1900    0.8480   -0.8670 C.2     1  UNL1        0.0040
     10  C          5.3580    0.5690    1.6910 C.2     1  UNL1        0.0000
     11  C          5.4090    1.8480   -0.3230 C.2     1  UNL1        0.0000
     12  C          4.9950    1.6830    0.9840 C.2     1  UNL1        0.0000
@<TRIPOS>BOND
     1     4     5    1
     2     4     2    1
     3     3     2    2
     4     2     1    1
     5     1     6    1
     6     9    11    1
     7     9     7    2
     8     6     7    1
     9    11    12    2
    10     7     8    1
    11    12    10    1
    12     8    10    2
