MODEL 1
REMARK VINA RESULT:      -7.3      0.000      0.000
REMARK SMILES O=C(O)CCc1ccccc1
REMARK SMILES IDX 4 1 2 2 1 3 3 4 5 6 6 7 7 8 11 9 8 10 10 11 9 12
REMARK H PARENT 3 5
REMARK Flexibility Score: inf
ROOT
ATOM      1  C   UNL     1       8.452  -0.627  -2.160  1.00  0.00     0.127 C 
ENDROOT
BRANCH   1   2
ATOM      2  C   UNL     1       8.485  -1.887  -2.922  1.00  0.00     0.303 C 
ATOM      3  O   UNL     1       9.586  -2.458  -3.101  1.00  0.00    -0.252 OA
BRANCH   2   4
ATOM      4  O   UNL     1       7.331  -2.446  -3.438  1.00  0.00    -0.481 OA
ATOM      5  H   UNL     1       6.789  -2.027  -4.216  1.00  0.00     0.296 HD
ENDBRANCH   2   4
ENDBRANCH   1   2
BRANCH   1   6
ATOM      6  C   UNL     1       7.017  -0.114  -2.202  1.00  0.00     0.047 C 
BRANCH   6   7
ATOM      7  C   UNL     1       6.468   0.114  -0.853  1.00  0.00    -0.047 A 
ATOM      8  C   UNL     1       6.595  -0.903   0.085  1.00  0.00     0.004 A 
ATOM      9  C   UNL     1       5.831   1.258  -0.449  1.00  0.00     0.004 A 
ATOM     10  C   UNL     1       6.083  -0.727   1.369  1.00  0.00     0.000 A 
ATOM     11  C   UNL     1       5.314   1.463   0.815  1.00  0.00     0.000 A 
ATOM     12  C   UNL     1       5.454   0.434   1.726  1.00  0.00     0.000 A 
ENDBRANCH   6   7
ENDBRANCH   1   6
TORSDOF 4
ENDMDL
MODEL 2
REMARK VINA RESULT:      -7.3      0.099      1.433
REMARK SMILES O=C(O)CCc1ccccc1
REMARK SMILES IDX 4 1 2 2 1 3 3 4 5 6 6 7 7 8 11 9 8 10 10 11 9 12
REMARK H PARENT 3 5
REMARK Flexibility Score: inf
ROOT
ATOM      1  C   UNL     1       8.446  -0.593  -2.213  1.00  0.00     0.127 C 
ENDROOT
BRANCH   1   2
ATOM      2  C   UNL     1       8.462  -1.883  -2.923  1.00  0.00     0.303 C 
ATOM      3  O   UNL     1       9.553  -2.486  -3.059  1.00  0.00    -0.252 OA
BRANCH   2   4
ATOM      4  O   UNL     1       7.305  -2.437  -3.437  1.00  0.00    -0.481 OA
ATOM      5  H   UNL     1       6.827  -3.256  -3.019  1.00  0.00     0.296 HD
ENDBRANCH   2   4
ENDBRANCH   1   2
BRANCH   1   6
ATOM      6  C   UNL     1       6.997  -0.120  -2.176  1.00  0.00     0.047 C 
BRANCH   6   7
ATOM      7  C   UNL     1       6.485  -0.004  -0.799  1.00  0.00    -0.047 A 
ATOM      8  C   UNL     1       5.855   1.180  -0.433  1.00  0.00     0.004 A 
ATOM      9  C   UNL     1       6.587  -0.977   0.161  1.00  0.00     0.004 A 
ATOM     10  C   UNL     1       5.363   1.330   0.862  1.00  0.00     0.000 A 
ATOM     11  C   UNL     1       6.110  -0.859   1.452  1.00  0.00     0.000 A 
ATOM     12  C   UNL     1       5.490   0.329   1.786  1.00  0.00     0.000 A 
ENDBRANCH   6   7
ENDBRANCH   1   6
TORSDOF 4
ENDMDL
MODEL 3
REMARK VINA RESULT:      -7.2      0.621      1.070
REMARK SMILES O=C(O)CCc1ccccc1
REMARK SMILES IDX 4 1 2 2 1 3 3 4 5 6 6 7 7 8 11 9 8 10 10 11 9 12
REMARK H PARENT 3 5
REMARK Flexibility Score: inf
ROOT
ATOM      1  C   UNL     1       8.243  -0.874  -1.953  1.00  0.00     0.127 C 
ENDROOT
BRANCH   1   2
ATOM      2  C   UNL     1       8.387  -2.010  -2.880  1.00  0.00     0.303 C 
ATOM      3  O   UNL     1       9.528  -2.488  -3.080  1.00  0.00    -0.252 OA
BRANCH   2   4
ATOM      4  O   UNL     1       7.293  -2.555  -3.526  1.00  0.00    -0.481 OA
ATOM      5  H   UNL     1       6.313  -2.385  -3.235  1.00  0.00     0.296 HD
ENDBRANCH   2   4
ENDBRANCH   1   2
BRANCH   1   6
ATOM      6  C   UNL     1       7.407  -1.360  -0.775  1.00  0.00     0.047 C 
BRANCH   6   7
ATOM      7  C   UNL     1       6.579  -0.285  -0.200  1.00  0.00    -0.047 A 
ATOM      8  C   UNL     1       6.148  -0.423   1.114  1.00  0.00     0.004 A 
ATOM      9  C   UNL     1       6.190   0.848  -0.867  1.00  0.00     0.004 A 
ATOM     10  C   UNL     1       5.358   0.569   1.691  1.00  0.00     0.000 A 
ATOM     11  C   UNL     1       5.409   1.848  -0.323  1.00  0.00     0.000 A 
ATOM     12  C   UNL     1       4.995   1.683   0.984  1.00  0.00     0.000 A 
ENDBRANCH   6   7
ENDBRANCH   1   6
TORSDOF 4
ENDMDL
MODEL 4
REMARK VINA RESULT:      -6.8      3.392      5.086
REMARK SMILES O=C(O)CCc1ccccc1
REMARK SMILES IDX 4 1 2 2 1 3 3 4 5 6 6 7 7 8 11 9 8 10 10 11 9 12
REMARK H PARENT 3 5
REMARK Flexibility Score: inf
ROOT
ATOM      1  C   UNL     1       4.981   1.790   0.718  1.00  0.00     0.127 C 
ENDROOT
BRANCH   1   2
ATOM      2  C   UNL     1       4.465   1.123   1.927  1.00  0.00     0.303 C 
ATOM      3  O   UNL     1       5.160   0.233   2.471  1.00  0.00    -0.252 OA
BRANCH   2   4
ATOM      4  O   UNL     1       3.239   1.461   2.468  1.00  0.00    -0.481 OA
ATOM      5  H   UNL     1       2.333   1.146   2.075  1.00  0.00     0.296 HD
ENDBRANCH   2   4
ENDBRANCH   1   2
BRANCH   1   6
ATOM      6  C   UNL     1       6.501   1.814   0.834  1.00  0.00     0.047 C 
BRANCH   6   7
ATOM      7  C   UNL     1       7.155   1.112  -0.285  1.00  0.00    -0.047 A 
ATOM      8  C   UNL     1       6.379   0.269  -1.070  1.00  0.00     0.004 A 
ATOM      9  C   UNL     1       8.482   1.222  -0.612  1.00  0.00     0.004 A 
ATOM     10  C   UNL     1       6.962  -0.417  -2.134  1.00  0.00     0.000 A 
ATOM     11  C   UNL     1       9.089   0.557  -1.659  1.00  0.00     0.000 A 
ATOM     12  C   UNL     1       8.292  -0.275  -2.421  1.00  0.00     0.000 A 
ENDBRANCH   6   7
ENDBRANCH   1   6
TORSDOF 4
ENDMDL
MODEL 5
REMARK VINA RESULT:      -6.6      1.925      2.314
REMARK SMILES O=C(O)CCc1ccccc1
REMARK SMILES IDX 4 1 2 2 1 3 3 4 5 6 6 7 7 8 11 9 8 10 10 11 9 12
REMARK H PARENT 3 5
REMARK Flexibility Score: inf
ROOT
ATOM      1  C   UNL     1       8.231   0.221  -2.207  1.00  0.00     0.127 C 
ENDROOT
BRANCH   1   2
ATOM      2  C   UNL     1       9.343   0.388  -1.255  1.00  0.00     0.303 C 
ATOM      3  O   UNL     1       9.415  -0.379  -0.267  1.00  0.00    -0.252 OA
BRANCH   2   4
ATOM      4  O   UNL     1      10.301   1.368  -1.433  1.00  0.00    -0.481 OA
ATOM      5  H   UNL     1      11.192   1.401  -0.904  1.00  0.00     0.296 HD
ENDBRANCH   2   4
ENDBRANCH   1   2
BRANCH   1   6
ATOM      6  C   UNL     1       7.132  -0.547  -1.481  1.00  0.00     0.047 C 
BRANCH   6   7
ATOM      7  C   UNL     1       6.334   0.325  -0.600  1.00  0.00    -0.047 A 
ATOM      8  C   UNL     1       6.097  -0.101   0.701  1.00  0.00     0.004 A 
ATOM      9  C   UNL     1       5.798   1.532  -0.967  1.00  0.00     0.004 A 
ATOM     10  C   UNL     1       5.342   0.692   1.562  1.00  0.00     0.000 A 
ATOM     11  C   UNL     1       5.046   2.341  -0.138  1.00  0.00     0.000 A 
ATOM     12  C   UNL     1       4.826   1.891   1.149  1.00  0.00     0.000 A 
ENDBRANCH   6   7
ENDBRANCH   1   6
TORSDOF 4
ENDMDL
