@<TRIPOS>MOLECULE
/home/cewinharhar/GITHUB/reincatalyze/data/processed/docking_pred/2023-Apr-25-1829_maxeplen10_maxtrainstep200_exh32_gamma099_lrac3e-4_lrcr1e-3/2734134eb9e7fe1a9a1e6734a306fe03ba38cdbb_ligand_2.pdbqt
 12 12 0 0 0
SMALL
GASTEIGER

@<TRIPOS>ATOM
      1  C          8.4520   -0.6270   -2.1600 C.3     1  UNL1        0.1270
      2  C          8.4850   -1.8870   -2.9220 C.2     1  UNL1        0.3030
      3  O          9.5860   -2.4580   -3.1010 O.2     1  UNL1       -0.2520
      4  O          7.3310   -2.4460   -3.4380 O.3     1  UNL1       -0.4810
      5  H          6.7890   -2.0270   -4.2160 H       1  UNL1        0.2960
      6  C          7.0170   -0.1140   -2.2020 C.3     1  UNL1        0.0470
      7  C          6.4680    0.1140   -0.8530 C.2     1  UNL1       -0.0470
      8  C          6.5950   -0.9030    0.0850 C.2     1  UNL1        0.0040
      9  C          5.8310    1.2580   -0.4490 C.2     1  UNL1        0.0040
     10  C          6.0830   -0.7270    1.3690 C.2     1  UNL1        0.0000
     11  C          5.3140    1.4630    0.8150 C.2     1  UNL1        0.0000
     12  C          5.4540    0.4340    1.7260 C.2     1  UNL1        0.0000
@<TRIPOS>BOND
     1     5     4    1
     2     4     2    1
     3     3     2    2
     4     2     1    1
     5     6     1    1
     6     6     7    1
     7     7     9    2
     8     7     8    1
     9     9    11    1
    10     8    10    2
    11    11    12    2
    12    10    12    1
