@<TRIPOS>MOLECULE
/home/cewinharhar/GITHUB/reincatalyze/data/processed/docking_pred/2023-Apr-25-1829_maxeplen10_maxtrainstep200_exh32_gamma099_lrac3e-4_lrcr1e-3/2734134eb9e7fe1a9a1e6734a306fe03ba38cdbb_ligand_2.pdbqt
 12 12 0 0 0
SMALL
GASTEIGER

@<TRIPOS>ATOM
      1  C          8.4460   -0.5930   -2.2130 C.3     1  UNL1        0.1270
      2  C          8.4620   -1.8830   -2.9230 C.2     1  UNL1        0.3030
      3  O          9.5530   -2.4860   -3.0590 O.2     1  UNL1       -0.2520
      4  O          7.3050   -2.4370   -3.4370 O.3     1  UNL1       -0.4810
      5  H          6.8270   -3.2560   -3.0190 H       1  UNL1        0.2960
      6  C          6.9970   -0.1200   -2.1760 C.3     1  UNL1        0.0470
      7  C          6.4850   -0.0040   -0.7990 C.2     1  UNL1       -0.0470
      8  C          5.8550    1.1800   -0.4330 C.2     1  UNL1        0.0040
      9  C          6.5870   -0.9770    0.1610 C.2     1  UNL1        0.0040
     10  C          5.3630    1.3300    0.8620 C.2     1  UNL1        0.0000
     11  C          6.1100   -0.8590    1.4520 C.2     1  UNL1        0.0000
     12  C          5.4900    0.3290    1.7860 C.2     1  UNL1        0.0000
@<TRIPOS>BOND
     1     4     5    1
     2     4     2    1
     3     3     2    2
     4     2     1    1
     5     1     6    1
     6     6     7    1
     7     7     8    2
     8     7     9    1
     9     8    10    1
    10     9    11    2
    11    10    12    2
    12    11    12    1
