@<TRIPOS>MOLECULE
/home/cewinharhar/GITHUB/reincatalyze/data/processed/docking_pred/2023-Apr-25-1829_maxeplen10_maxtrainstep200_exh32_gamma099_lrac3e-4_lrcr1e-3/2734134eb9e7fe1a9a1e6734a306fe03ba38cdbb_ligand_2.pdbqt
 12 12 0 0 0
SMALL
GASTEIGER

@<TRIPOS>ATOM
      1  C          8.2310    0.2210   -2.2070 C.3     1  UNL1        0.1270
      2  C          9.3430    0.3880   -1.2550 C.2     1  UNL1        0.3030
      3  O          9.4150   -0.3790   -0.2670 O.2     1  UNL1       -0.2520
      4  O         10.3010    1.3680   -1.4330 O.3     1  UNL1       -0.4810
      5  H         11.1920    1.4010   -0.9040 H       1  UNL1        0.2960
      6  C          7.1320   -0.5470   -1.4810 C.3     1  UNL1        0.0470
      7  C          6.3340    0.3250   -0.6000 C.2     1  UNL1       -0.0470
      8  C          6.0970   -0.1010    0.7010 C.2     1  UNL1        0.0040
      9  C          5.7980    1.5320   -0.9670 C.2     1  UNL1        0.0040
     10  C          5.3420    0.6920    1.5620 C.2     1  UNL1        0.0000
     11  C          5.0460    2.3410   -0.1380 C.2     1  UNL1        0.0000
     12  C          4.8260    1.8910    1.1490 C.2     1  UNL1        0.0000
@<TRIPOS>BOND
     1     1     6    1
     2     1     2    1
     3     6     7    1
     4     4     2    1
     5     4     5    1
     6     2     3    2
     7     9     7    2
     8     9    11    1
     9     7     8    1
    10    11    12    2
    11     8    10    2
    12    12    10    1
