MODEL 1
REMARK VINA RESULT:      -7.3      0.000      0.000
REMARK SMILES O=C(O)CCc1ccccc1
REMARK SMILES IDX 4 1 2 2 1 3 3 4 5 6 6 7 7 8 11 9 8 10 10 11 9 12
REMARK H PARENT 3 5
REMARK Flexibility Score: inf
ROOT
ATOM      1  C   UNL     1       8.447  -0.604  -2.184  1.00  0.00     0.127 C 
ENDROOT
BRANCH   1   2
ATOM      2  C   UNL     1       8.478  -1.896  -2.892  1.00  0.00     0.303 C 
ATOM      3  O   UNL     1       9.581  -2.468  -3.059  1.00  0.00    -0.252 OA
BRANCH   2   4
ATOM      4  O   UNL     1       7.322  -2.484  -3.368  1.00  0.00    -0.481 OA
ATOM      5  H   UNL     1       6.665  -3.021  -2.773  1.00  0.00     0.296 HD
ENDBRANCH   2   4
ENDBRANCH   1   2
BRANCH   1   6
ATOM      6  C   UNL     1       7.005  -0.110  -2.216  1.00  0.00     0.047 C 
BRANCH   6   7
ATOM      7  C   UNL     1       6.468   0.125  -0.864  1.00  0.00    -0.047 A 
ATOM      8  C   UNL     1       6.582  -0.896   0.071  1.00  0.00     0.004 A 
ATOM      9  C   UNL     1       5.854   1.280  -0.454  1.00  0.00     0.004 A 
ATOM     10  C   UNL     1       6.080  -0.713   1.359  1.00  0.00     0.000 A 
ATOM     11  C   UNL     1       5.347   1.492   0.813  1.00  0.00     0.000 A 
ATOM     12  C   UNL     1       5.474   0.459   1.721  1.00  0.00     0.000 A 
ENDBRANCH   6   7
ENDBRANCH   1   6
TORSDOF 4
ENDMDL
MODEL 2
REMARK VINA RESULT:      -7.3      0.082      1.431
REMARK SMILES O=C(O)CCc1ccccc1
REMARK SMILES IDX 4 1 2 2 1 3 3 4 5 6 6 7 7 8 11 9 8 10 10 11 9 12
REMARK H PARENT 3 5
REMARK Flexibility Score: inf
ROOT
ATOM      1  C   UNL     1       8.458  -0.571  -2.248  1.00  0.00     0.127 C 
ENDROOT
BRANCH   1   2
ATOM      2  C   UNL     1       8.475  -1.891  -2.903  1.00  0.00     0.303 C 
ATOM      3  O   UNL     1       9.569  -2.490  -3.028  1.00  0.00    -0.252 OA
BRANCH   2   4
ATOM      4  O   UNL     1       7.316  -2.474  -3.377  1.00  0.00    -0.481 OA
ATOM      5  H   UNL     1       6.370  -2.237  -3.025  1.00  0.00     0.296 HD
ENDBRANCH   2   4
ENDBRANCH   1   2
BRANCH   1   6
ATOM      6  C   UNL     1       7.006  -0.108  -2.211  1.00  0.00     0.047 C 
BRANCH   6   7
ATOM      7  C   UNL     1       6.499   0.022  -0.833  1.00  0.00    -0.047 A 
ATOM      8  C   UNL     1       5.885   1.215  -0.472  1.00  0.00     0.004 A 
ATOM      9  C   UNL     1       6.591  -0.948   0.131  1.00  0.00     0.004 A 
ATOM     10  C   UNL     1       5.398   1.377   0.823  1.00  0.00     0.000 A 
ATOM     11  C   UNL     1       6.118  -0.818   1.422  1.00  0.00     0.000 A 
ATOM     12  C   UNL     1       5.513   0.380   1.752  1.00  0.00     0.000 A 
ENDBRANCH   6   7
ENDBRANCH   1   6
TORSDOF 4
ENDMDL
MODEL 3
REMARK VINA RESULT:      -7.2      0.586      1.585
REMARK SMILES O=C(O)CCc1ccccc1
REMARK SMILES IDX 4 1 2 2 1 3 3 4 5 6 6 7 7 8 11 9 8 10 10 11 9 12
REMARK H PARENT 3 5
REMARK Flexibility Score: inf
ROOT
ATOM      1  C   UNL     1       8.288  -0.905  -1.917  1.00  0.00     0.127 C 
ENDROOT
BRANCH   1   2
ATOM      2  C   UNL     1       8.390  -2.019  -2.876  1.00  0.00     0.303 C 
ATOM      3  O   UNL     1       9.517  -2.517  -3.107  1.00  0.00    -0.252 OA
BRANCH   2   4
ATOM      4  O   UNL     1       7.274  -2.520  -3.518  1.00  0.00    -0.481 OA
ATOM      5  H   UNL     1       7.311  -3.280  -4.223  1.00  0.00     0.296 HD
ENDBRANCH   2   4
ENDBRANCH   1   2
BRANCH   1   6
ATOM      6  C   UNL     1       7.545  -1.432  -0.695  1.00  0.00     0.047 C 
BRANCH   6   7
ATOM      7  C   UNL     1       6.666  -0.412  -0.096  1.00  0.00    -0.047 A 
ATOM      8  C   UNL     1       6.339   0.700  -0.861  1.00  0.00     0.004 A 
ATOM      9  C   UNL     1       6.145  -0.472   1.171  1.00  0.00     0.004 A 
ATOM     10  C   UNL     1       5.515   1.689  -0.327  1.00  0.00     0.000 A 
ATOM     11  C   UNL     1       5.327   0.491   1.728  1.00  0.00     0.000 A 
ATOM     12  C   UNL     1       5.019   1.585   0.944  1.00  0.00     0.000 A 
ENDBRANCH   6   7
ENDBRANCH   1   6
TORSDOF 4
ENDMDL
MODEL 4
REMARK VINA RESULT:      -6.8      3.366      5.089
REMARK SMILES O=C(O)CCc1ccccc1
REMARK SMILES IDX 4 1 2 2 1 3 3 4 5 6 6 7 7 8 11 9 8 10 10 11 9 12
REMARK H PARENT 3 5
REMARK Flexibility Score: inf
ROOT
ATOM      1  C   UNL     1       4.974   1.763   0.722  1.00  0.00     0.127 C 
ENDROOT
BRANCH   1   2
ATOM      2  C   UNL     1       4.445   1.107   1.931  1.00  0.00     0.303 C 
ATOM      3  O   UNL     1       5.123   0.203   2.474  1.00  0.00    -0.252 OA
BRANCH   2   4
ATOM      4  O   UNL     1       3.227   1.470   2.472  1.00  0.00    -0.481 OA
ATOM      5  H   UNL     1       3.124   1.921   3.400  1.00  0.00     0.296 HD
ENDBRANCH   2   4
ENDBRANCH   1   2
BRANCH   1   6
ATOM      6  C   UNL     1       6.495   1.711   0.813  1.00  0.00     0.047 C 
BRANCH   6   7
ATOM      7  C   UNL     1       7.092   0.944  -0.295  1.00  0.00    -0.047 A 
ATOM      8  C   UNL     1       8.402   1.232  -0.658  1.00  0.00     0.004 A 
ATOM      9  C   UNL     1       6.450  -0.037  -1.006  1.00  0.00     0.004 A 
ATOM     10  C   UNL     1       8.999   0.532  -1.705  1.00  0.00     0.000 A 
ATOM     11  C   UNL     1       7.014  -0.747  -2.047  1.00  0.00     0.000 A 
ATOM     12  C   UNL     1       8.317  -0.438  -2.386  1.00  0.00     0.000 A 
ENDBRANCH   6   7
ENDBRANCH   1   6
TORSDOF 4
ENDMDL
MODEL 5
REMARK VINA RESULT:      -6.6      1.888      2.622
REMARK SMILES O=C(O)CCc1ccccc1
REMARK SMILES IDX 4 1 2 2 1 3 3 4 5 6 6 7 7 8 11 9 8 10 10 11 9 12
REMARK H PARENT 3 5
REMARK Flexibility Score: inf
ROOT
ATOM      1  C   UNL     1       8.250   0.233  -2.228  1.00  0.00     0.127 C 
ENDROOT
BRANCH   1   2
ATOM      2  C   UNL     1       9.364   0.345  -1.271  1.00  0.00     0.303 C 
ATOM      3  O   UNL     1       9.405  -0.441  -0.295  1.00  0.00    -0.252 OA
BRANCH   2   4
ATOM      4  O   UNL     1      10.358   1.292  -1.430  1.00  0.00    -0.481 OA
ATOM      5  H   UNL     1      10.301   2.073  -2.110  1.00  0.00     0.296 HD
ENDBRANCH   2   4
ENDBRANCH   1   2
BRANCH   1   6
ATOM      6  C   UNL     1       7.155  -0.581  -1.548  1.00  0.00     0.047 C 
BRANCH   6   7
ATOM      7  C   UNL     1       6.363   0.230  -0.606  1.00  0.00    -0.047 A 
ATOM      8  C   UNL     1       5.852   1.441  -1.056  1.00  0.00     0.004 A 
ATOM      9  C   UNL     1       6.092  -0.116   0.692  1.00  0.00     0.004 A 
ATOM     10  C   UNL     1       5.104   2.239  -0.193  1.00  0.00     0.000 A 
ATOM     11  C   UNL     1       5.354   0.652   1.571  1.00  0.00     0.000 A 
ATOM     12  C   UNL     1       4.860   1.851   1.096  1.00  0.00     0.000 A 
ENDBRANCH   6   7
ENDBRANCH   1   6
TORSDOF 4
ENDMDL
