@<TRIPOS>MOLECULE
/home/cewinharhar/GITHUB/reincatalyze/data/processed/docking_pred/2023-Apr-25-1829_maxeplen10_maxtrainstep200_exh32_gamma099_lrac3e-4_lrcr1e-3/2b611616233e02901686b2fc0a6dd8ec9c570ff2_ligand_2.pdbqt
 12 12 0 0 0
SMALL
GASTEIGER

@<TRIPOS>ATOM
      1  C          8.4470   -0.6040   -2.1840 C.3     1  UNL1        0.1270
      2  C          8.4780   -1.8960   -2.8920 C.2     1  UNL1        0.3030
      3  O          9.5810   -2.4680   -3.0590 O.2     1  UNL1       -0.2520
      4  O          7.3220   -2.4840   -3.3680 O.3     1  UNL1       -0.4810
      5  H          6.6650   -3.0210   -2.7730 H       1  UNL1        0.2960
      6  C          7.0050   -0.1100   -2.2160 C.3     1  UNL1        0.0470
      7  C          6.4680    0.1250   -0.8640 C.2     1  UNL1       -0.0470
      8  C          6.5820   -0.8960    0.0710 C.2     1  UNL1        0.0040
      9  C          5.8540    1.2800   -0.4540 C.2     1  UNL1        0.0040
     10  C          6.0800   -0.7130    1.3590 C.2     1  UNL1        0.0000
     11  C          5.3470    1.4920    0.8130 C.2     1  UNL1        0.0000
     12  C          5.4740    0.4590    1.7210 C.2     1  UNL1        0.0000
@<TRIPOS>BOND
     1     4     2    1
     2     4     5    1
     3     3     2    2
     4     2     1    1
     5     6     1    1
     6     6     7    1
     7     7     9    2
     8     7     8    1
     9     9    11    1
    10     8    10    2
    11    11    12    2
    12    10    12    1
