@<TRIPOS>MOLECULE
/home/cewinharhar/GITHUB/reincatalyze/data/processed/docking_pred/2023-Apr-25-1829_maxeplen10_maxtrainstep200_exh32_gamma099_lrac3e-4_lrcr1e-3/2b611616233e02901686b2fc0a6dd8ec9c570ff2_ligand_2.pdbqt
 12 12 0 0 0
SMALL
GASTEIGER

@<TRIPOS>ATOM
      1  C          8.2500    0.2330   -2.2280 C.3     1  UNL1        0.1270
      2  C          9.3640    0.3450   -1.2710 C.2     1  UNL1        0.3030
      3  O          9.4050   -0.4410   -0.2950 O.2     1  UNL1       -0.2520
      4  O         10.3580    1.2920   -1.4300 O.3     1  UNL1       -0.4810
      5  H         10.3010    2.0730   -2.1100 H       1  UNL1        0.2960
      6  C          7.1550   -0.5810   -1.5480 C.3     1  UNL1        0.0470
      7  C          6.3630    0.2300   -0.6060 C.2     1  UNL1       -0.0470
      8  C          5.8520    1.4410   -1.0560 C.2     1  UNL1        0.0040
      9  C          6.0920   -0.1160    0.6920 C.2     1  UNL1        0.0040
     10  C          5.1040    2.2390   -0.1930 C.2     1  UNL1        0.0000
     11  C          5.3540    0.6520    1.5710 C.2     1  UNL1        0.0000
     12  C          4.8600    1.8510    1.0960 C.2     1  UNL1        0.0000
@<TRIPOS>BOND
     1     1     6    1
     2     1     2    1
     3     5     4    1
     4     6     7    1
     5     4     2    1
     6     2     3    2
     7     8     7    2
     8     8    10    1
     9     7     9    1
    10    10    12    2
    11     9    11    2
    12    12    11    1
