@<TRIPOS>MOLECULE
/home/cewinharhar/GITHUB/reincatalyze/data/processed/docking_pred/2023-Apr-25-1829_maxeplen10_maxtrainstep200_exh32_gamma099_lrac3e-4_lrcr1e-3/2b611616233e02901686b2fc0a6dd8ec9c570ff2_ligand_2.pdbqt
 12 12 0 0 0
SMALL
GASTEIGER

@<TRIPOS>ATOM
      1  C          4.9740    1.7630    0.7220 C.3     1  UNL1        0.1270
      2  C          4.4450    1.1070    1.9310 C.2     1  UNL1        0.3030
      3  O          5.1230    0.2030    2.4740 O.2     1  UNL1       -0.2520
      4  O          3.2270    1.4700    2.4720 O.3     1  UNL1       -0.4810
      5  H          3.1240    1.9210    3.4000 H       1  UNL1        0.2960
      6  C          6.4950    1.7110    0.8130 C.3     1  UNL1        0.0470
      7  C          7.0920    0.9440   -0.2950 C.2     1  UNL1       -0.0470
      8  C          8.4020    1.2320   -0.6580 C.2     1  UNL1        0.0040
      9  C          6.4500   -0.0370   -1.0060 C.2     1  UNL1        0.0040
     10  C          8.9990    0.5320   -1.7050 C.2     1  UNL1        0.0000
     11  C          7.0140   -0.7470   -2.0470 C.2     1  UNL1        0.0000
     12  C          8.3170   -0.4380   -2.3860 C.2     1  UNL1        0.0000
@<TRIPOS>BOND
     1    12    11    2
     2    12    10    1
     3    11     9    1
     4    10     8    2
     5     9     7    2
     6     8     7    1
     7     7     6    1
     8     1     6    1
     9     1     2    1
    10     2     4    1
    11     2     3    2
    12     4     5    1
