@<TRIPOS>MOLECULE
/home/cewinharhar/GITHUB/reincatalyze/data/processed/docking_pred/2023-Apr-25-1829_maxeplen10_maxtrainstep200_exh32_gamma099_lrac3e-4_lrcr1e-3/2b611616233e02901686b2fc0a6dd8ec9c570ff2_ligand_2.pdbqt
 12 12 0 0 0
SMALL
GASTEIGER

@<TRIPOS>ATOM
      1  C          8.2880   -0.9050   -1.9170 C.3     1  UNL1        0.1270
      2  C          8.3900   -2.0190   -2.8760 C.2     1  UNL1        0.3030
      3  O          9.5170   -2.5170   -3.1070 O.2     1  UNL1       -0.2520
      4  O          7.2740   -2.5200   -3.5180 O.3     1  UNL1       -0.4810
      5  H          7.3110   -3.2800   -4.2230 H       1  UNL1        0.2960
      6  C          7.5450   -1.4320   -0.6950 C.3     1  UNL1        0.0470
      7  C          6.6660   -0.4120   -0.0960 C.2     1  UNL1       -0.0470
      8  C          6.3390    0.7000   -0.8610 C.2     1  UNL1        0.0040
      9  C          6.1450   -0.4720    1.1710 C.2     1  UNL1        0.0040
     10  C          5.5150    1.6890   -0.3270 C.2     1  UNL1        0.0000
     11  C          5.3270    0.4910    1.7280 C.2     1  UNL1        0.0000
     12  C          5.0190    1.5850    0.9440 C.2     1  UNL1        0.0000
@<TRIPOS>BOND
     1     5     4    1
     2     4     2    1
     3     3     2    2
     4     2     1    1
     5     1     6    1
     6     8    10    1
     7     8     7    2
     8     6     7    1
     9    10    12    2
    10     7     9    1
    11    12    11    1
    12     9    11    2
