@<TRIPOS>MOLECULE
/home/cewinharhar/GITHUB/reincatalyze/data/processed/docking_pred/2023-Apr-25-1829_maxeplen10_maxtrainstep200_exh32_gamma099_lrac3e-4_lrcr1e-3/2b611616233e02901686b2fc0a6dd8ec9c570ff2_ligand_2.pdbqt
 12 12 0 0 0
SMALL
GASTEIGER

@<TRIPOS>ATOM
      1  C          8.4580   -0.5710   -2.2480 C.3     1  UNL1        0.1270
      2  C          8.4750   -1.8910   -2.9030 C.2     1  UNL1        0.3030
      3  O          9.5690   -2.4900   -3.0280 O.2     1  UNL1       -0.2520
      4  O          7.3160   -2.4740   -3.3770 O.3     1  UNL1       -0.4810
      5  H          6.3700   -2.2370   -3.0250 H       1  UNL1        0.2960
      6  C          7.0060   -0.1080   -2.2110 C.3     1  UNL1        0.0470
      7  C          6.4990    0.0220   -0.8330 C.2     1  UNL1       -0.0470
      8  C          5.8850    1.2150   -0.4720 C.2     1  UNL1        0.0040
      9  C          6.5910   -0.9480    0.1310 C.2     1  UNL1        0.0040
     10  C          5.3980    1.3770    0.8230 C.2     1  UNL1        0.0000
     11  C          6.1180   -0.8180    1.4220 C.2     1  UNL1        0.0000
     12  C          5.5130    0.3800    1.7520 C.2     1  UNL1        0.0000
@<TRIPOS>BOND
     1     4     5    1
     2     4     2    1
     3     3     2    2
     4     2     1    1
     5     1     6    1
     6     6     7    1
     7     7     8    2
     8     7     9    1
     9     8    10    1
    10     9    11    2
    11    10    12    2
    12    11    12    1
