@<TRIPOS>MOLECULE
/home/cewinharhar/GITHUB/reincatalyze/data/processed/docking_pred/2023-Apr-25-1829_maxeplen10_maxtrainstep200_exh32_gamma099_lrac3e-4_lrcr1e-3/2bd7ebd6000506c3611824cd415c5dddcf27ad2f_ligand_2.pdbqt
 12 12 0 0 0
SMALL
GASTEIGER

@<TRIPOS>ATOM
      1  C          8.1840   -1.2500   -1.5770 C.3     1  UNL1        0.1270
      2  C          8.3130   -2.1050   -2.7710 C.2     1  UNL1        0.3030
      3  O          9.4520   -2.5110   -3.1030 O.2     1  UNL1       -0.2520
      4  O          7.2110   -2.4640   -3.5220 O.3     1  UNL1       -0.4810
      5  H          7.1100   -2.2460   -4.5310 H       1  UNL1        0.2960
      6  C          7.1260   -0.1980   -1.8920 C.3     1  UNL1        0.0470
      7  C          6.4150    0.2540   -0.6840 C.2     1  UNL1       -0.0470
      8  C          6.4310   -0.5730    0.4330 C.2     1  UNL1        0.0040
      9  C          5.7280    1.4360   -0.5730 C.2     1  UNL1        0.0040
     10  C          5.7650   -0.1820    1.5930 C.2     1  UNL1        0.0000
     11  C          5.0590    1.8500    0.5610 C.2     1  UNL1        0.0000
     12  C          5.0920    1.0070    1.6540 C.2     1  UNL1        0.0000
@<TRIPOS>BOND
     1     5     4    1
     2     4     2    1
     3     3     2    2
     4     2     1    1
     5     6     1    1
     6     6     7    1
     7     7     9    2
     8     7     8    1
     9     9    11    1
    10     8    10    2
    11    11    12    2
    12    10    12    1
