@<TRIPOS>MOLECULE
/home/cewinharhar/GITHUB/reincatalyze/data/processed/docking_pred/2023-Apr-25-1829_maxeplen10_maxtrainstep200_exh32_gamma099_lrac3e-4_lrcr1e-3/2bd7ebd6000506c3611824cd415c5dddcf27ad2f_ligand_2.pdbqt
 12 12 0 0 0
SMALL
GASTEIGER

@<TRIPOS>ATOM
      1  C          8.4390   -0.6760   -2.0780 C.3     1  UNL1        0.1270
      2  C          8.4120   -1.9160   -2.8730 C.2     1  UNL1        0.3030
      3  O          7.3030   -2.3950   -3.2090 O.2     1  UNL1       -0.2520
      4  O          9.5770   -2.5530   -3.2540 O.3     1  UNL1       -0.4810
      5  H          9.8050   -2.7920   -4.2360 H       1  UNL1        0.2960
      6  C          7.0410   -0.0720   -2.1410 C.3     1  UNL1        0.0470
      7  C          6.4660    0.1410   -0.8010 C.2     1  UNL1       -0.0470
      8  C          6.6010   -0.8760    0.1370 C.2     1  UNL1        0.0040
      9  C          5.7980    1.2700   -0.4030 C.2     1  UNL1        0.0040
     10  C          6.0650   -0.7150    1.4130 C.2     1  UNL1        0.0000
     11  C          5.2560    1.4590    0.8530 C.2     1  UNL1        0.0000
     12  C          5.4050    0.4310    1.7630 C.2     1  UNL1        0.0000
@<TRIPOS>BOND
     1     5     4    1
     2     4     2    1
     3     3     2    2
     4     2     1    1
     5     6     1    1
     6     6     7    1
     7     7     9    2
     8     7     8    1
     9     9    11    1
    10     8    10    2
    11    11    12    2
    12    10    12    1
