@<TRIPOS>MOLECULE
/home/cewinharhar/GITHUB/reincatalyze/data/processed/docking_pred/2023-Apr-25-1829_maxeplen10_maxtrainstep200_exh32_gamma099_lrac3e-4_lrcr1e-3/2bd7ebd6000506c3611824cd415c5dddcf27ad2f_ligand_2.pdbqt
 12 12 0 0 0
SMALL
GASTEIGER

@<TRIPOS>ATOM
      1  C          4.9940    1.7530    0.7280 C.3     1  UNL1        0.1270
      2  C          4.4600    1.1080    1.9410 C.2     1  UNL1        0.3030
      3  O          5.1380    0.2130    2.4990 O.2     1  UNL1       -0.2520
      4  O          3.2360    1.4700    2.4690 O.3     1  UNL1       -0.4810
      5  H          2.7630    0.9480    3.2300 H       1  UNL1        0.2960
      6  C          6.5140    1.7470    0.8500 C.3     1  UNL1        0.0470
      7  C          7.1580    1.0510   -0.2780 C.2     1  UNL1       -0.0470
      8  C          6.3920    0.1610   -1.0220 C.2     1  UNL1        0.0040
      9  C          8.4680    1.2080   -0.6520 C.2     1  UNL1        0.0040
     10  C          6.9680   -0.5210   -2.0920 C.2     1  UNL1        0.0000
     11  C          9.0670    0.5480   -1.7070 C.2     1  UNL1        0.0000
     12  C          8.2810   -0.3300   -2.4270 C.2     1  UNL1        0.0000
@<TRIPOS>BOND
     1    12    10    2
     2    12    11    1
     3    10     8    1
     4    11     9    2
     5     8     7    2
     6     9     7    1
     7     7     6    1
     8     1     6    1
     9     1     2    1
    10     2     4    1
    11     2     3    2
    12     4     5    1
