MODEL 1
REMARK VINA RESULT:      -7.3      0.000      0.000
REMARK SMILES O=C(O)CCc1ccccc1
REMARK SMILES IDX 4 1 2 2 1 3 3 4 5 6 6 7 7 8 11 9 8 10 10 11 9 12
REMARK H PARENT 3 5
REMARK Flexibility Score: inf
ROOT
ATOM      1  C   UNL     1       8.484  -0.621  -2.186  1.00  0.00     0.127 C 
ENDROOT
BRANCH   1   2
ATOM      2  C   UNL     1       8.489  -1.900  -2.917  1.00  0.00     0.303 C 
ATOM      3  O   UNL     1       9.578  -2.499  -3.083  1.00  0.00    -0.252 OA
BRANCH   2   4
ATOM      4  O   UNL     1       7.323  -2.448  -3.417  1.00  0.00    -0.481 OA
ATOM      5  H   UNL     1       6.717  -1.971  -4.110  1.00  0.00     0.296 HD
ENDBRANCH   2   4
ENDBRANCH   1   2
BRANCH   1   6
ATOM      6  C   UNL     1       7.045  -0.120  -2.167  1.00  0.00     0.047 C 
BRANCH   6   7
ATOM      7  C   UNL     1       6.513  -0.007  -0.798  1.00  0.00    -0.047 A 
ATOM      8  C   UNL     1       5.877   1.175  -0.439  1.00  0.00     0.004 A 
ATOM      9  C   UNL     1       6.602  -0.983   0.162  1.00  0.00     0.004 A 
ATOM     10  C   UNL     1       5.367   1.322   0.850  1.00  0.00     0.000 A 
ATOM     11  C   UNL     1       6.106  -0.867   1.445  1.00  0.00     0.000 A 
ATOM     12  C   UNL     1       5.480   0.319   1.774  1.00  0.00     0.000 A 
ENDBRANCH   6   7
ENDBRANCH   1   6
TORSDOF 4
ENDMDL
MODEL 2
REMARK VINA RESULT:      -7.3      0.146      1.730
REMARK SMILES O=C(O)CCc1ccccc1
REMARK SMILES IDX 4 1 2 2 1 3 3 4 5 6 6 7 7 8 11 9 8 10 10 11 9 12
REMARK H PARENT 3 5
REMARK Flexibility Score: inf
ROOT
ATOM      1  C   UNL     1       8.439  -0.676  -2.078  1.00  0.00     0.127 C 
ENDROOT
BRANCH   1   2
ATOM      2  C   UNL     1       8.412  -1.916  -2.873  1.00  0.00     0.303 C 
ATOM      3  O   UNL     1       7.303  -2.395  -3.209  1.00  0.00    -0.252 OA
BRANCH   2   4
ATOM      4  O   UNL     1       9.577  -2.553  -3.254  1.00  0.00    -0.481 OA
ATOM      5  H   UNL     1       9.805  -2.792  -4.236  1.00  0.00     0.296 HD
ENDBRANCH   2   4
ENDBRANCH   1   2
BRANCH   1   6
ATOM      6  C   UNL     1       7.041  -0.072  -2.141  1.00  0.00     0.047 C 
BRANCH   6   7
ATOM      7  C   UNL     1       6.466   0.141  -0.801  1.00  0.00    -0.047 A 
ATOM      8  C   UNL     1       6.601  -0.876   0.137  1.00  0.00     0.004 A 
ATOM      9  C   UNL     1       5.798   1.270  -0.403  1.00  0.00     0.004 A 
ATOM     10  C   UNL     1       6.065  -0.715   1.413  1.00  0.00     0.000 A 
ATOM     11  C   UNL     1       5.256   1.459   0.853  1.00  0.00     0.000 A 
ATOM     12  C   UNL     1       5.405   0.431   1.763  1.00  0.00     0.000 A 
ENDBRANCH   6   7
ENDBRANCH   1   6
TORSDOF 4
ENDMDL
MODEL 3
REMARK VINA RESULT:      -7.2      0.523      1.517
REMARK SMILES O=C(O)CCc1ccccc1
REMARK SMILES IDX 4 1 2 2 1 3 3 4 5 6 6 7 7 8 11 9 8 10 10 11 9 12
REMARK H PARENT 3 5
REMARK Flexibility Score: inf
ROOT
ATOM      1  C   UNL     1       8.184  -1.250  -1.577  1.00  0.00     0.127 C 
ENDROOT
BRANCH   1   2
ATOM      2  C   UNL     1       8.313  -2.105  -2.771  1.00  0.00     0.303 C 
ATOM      3  O   UNL     1       9.452  -2.511  -3.103  1.00  0.00    -0.252 OA
BRANCH   2   4
ATOM      4  O   UNL     1       7.211  -2.464  -3.522  1.00  0.00    -0.481 OA
ATOM      5  H   UNL     1       7.110  -2.246  -4.531  1.00  0.00     0.296 HD
ENDBRANCH   2   4
ENDBRANCH   1   2
BRANCH   1   6
ATOM      6  C   UNL     1       7.126  -0.198  -1.892  1.00  0.00     0.047 C 
BRANCH   6   7
ATOM      7  C   UNL     1       6.415   0.254  -0.684  1.00  0.00    -0.047 A 
ATOM      8  C   UNL     1       6.431  -0.573   0.433  1.00  0.00     0.004 A 
ATOM      9  C   UNL     1       5.728   1.436  -0.573  1.00  0.00     0.004 A 
ATOM     10  C   UNL     1       5.765  -0.182   1.593  1.00  0.00     0.000 A 
ATOM     11  C   UNL     1       5.059   1.850   0.561  1.00  0.00     0.000 A 
ATOM     12  C   UNL     1       5.092   1.007   1.654  1.00  0.00     0.000 A 
ENDBRANCH   6   7
ENDBRANCH   1   6
TORSDOF 4
ENDMDL
MODEL 4
REMARK VINA RESULT:      -6.8      3.391      5.104
REMARK SMILES O=C(O)CCc1ccccc1
REMARK SMILES IDX 4 1 2 2 1 3 3 4 5 6 6 7 7 8 11 9 8 10 10 11 9 12
REMARK H PARENT 3 5
REMARK Flexibility Score: inf
ROOT
ATOM      1  C   UNL     1       4.994   1.753   0.728  1.00  0.00     0.127 C 
ENDROOT
BRANCH   1   2
ATOM      2  C   UNL     1       4.460   1.108   1.941  1.00  0.00     0.303 C 
ATOM      3  O   UNL     1       5.138   0.213   2.499  1.00  0.00    -0.252 OA
BRANCH   2   4
ATOM      4  O   UNL     1       3.236   1.470   2.469  1.00  0.00    -0.481 OA
ATOM      5  H   UNL     1       2.763   0.948   3.230  1.00  0.00     0.296 HD
ENDBRANCH   2   4
ENDBRANCH   1   2
BRANCH   1   6
ATOM      6  C   UNL     1       6.514   1.747   0.850  1.00  0.00     0.047 C 
BRANCH   6   7
ATOM      7  C   UNL     1       7.158   1.051  -0.278  1.00  0.00    -0.047 A 
ATOM      8  C   UNL     1       6.392   0.161  -1.022  1.00  0.00     0.004 A 
ATOM      9  C   UNL     1       8.468   1.208  -0.652  1.00  0.00     0.004 A 
ATOM     10  C   UNL     1       6.968  -0.521  -2.092  1.00  0.00     0.000 A 
ATOM     11  C   UNL     1       9.067   0.548  -1.707  1.00  0.00     0.000 A 
ATOM     12  C   UNL     1       8.281  -0.330  -2.427  1.00  0.00     0.000 A 
ENDBRANCH   6   7
ENDBRANCH   1   6
TORSDOF 4
ENDMDL
MODEL 5
REMARK VINA RESULT:      -6.8      3.377      5.058
REMARK SMILES O=C(O)CCc1ccccc1
REMARK SMILES IDX 4 1 2 2 1 3 3 4 5 6 6 7 7 8 11 9 8 10 10 11 9 12
REMARK H PARENT 3 5
REMARK Flexibility Score: inf
ROOT
ATOM      1  C   UNL     1       5.017   1.756   0.745  1.00  0.00     0.127 C 
ENDROOT
BRANCH   1   2
ATOM      2  C   UNL     1       4.469   1.093   1.942  1.00  0.00     0.303 C 
ATOM      3  O   UNL     1       5.137   0.185   2.489  1.00  0.00    -0.252 OA
BRANCH   2   4
ATOM      4  O   UNL     1       3.243   1.454   2.467  1.00  0.00    -0.481 OA
ATOM      5  H   UNL     1       2.338   1.114   2.095  1.00  0.00     0.296 HD
ENDBRANCH   2   4
ENDBRANCH   1   2
BRANCH   1   6
ATOM      6  C   UNL     1       6.536   1.663   0.837  1.00  0.00     0.047 C 
BRANCH   6   7
ATOM      7  C   UNL     1       7.114   0.902  -0.285  1.00  0.00    -0.047 A 
ATOM      8  C   UNL     1       8.410   1.210  -0.684  1.00  0.00     0.004 A 
ATOM      9  C   UNL     1       6.469  -0.090  -0.977  1.00  0.00     0.004 A 
ATOM     10  C   UNL     1       8.989   0.517  -1.745  1.00  0.00     0.000 A 
ATOM     11  C   UNL     1       7.015  -0.794  -2.031  1.00  0.00     0.000 A 
ATOM     12  C   UNL     1       8.304  -0.466  -2.406  1.00  0.00     0.000 A 
ENDBRANCH   6   7
ENDBRANCH   1   6
TORSDOF 4
ENDMDL
