@<TRIPOS>MOLECULE
/home/cewinharhar/GITHUB/reincatalyze/data/processed/docking_pred/2023-Apr-25-1829_maxeplen10_maxtrainstep200_exh32_gamma099_lrac3e-4_lrcr1e-3/2bd7ebd6000506c3611824cd415c5dddcf27ad2f_ligand_2.pdbqt
 12 12 0 0 0
SMALL
GASTEIGER

@<TRIPOS>ATOM
      1  C          5.0170    1.7560    0.7450 C.3     1  UNL1        0.1270
      2  C          4.4690    1.0930    1.9420 C.2     1  UNL1        0.3030
      3  O          5.1370    0.1850    2.4890 O.2     1  UNL1       -0.2520
      4  O          3.2430    1.4540    2.4670 O.3     1  UNL1       -0.4810
      5  H          2.3380    1.1140    2.0950 H       1  UNL1        0.2960
      6  C          6.5360    1.6630    0.8370 C.3     1  UNL1        0.0470
      7  C          7.1140    0.9020   -0.2850 C.2     1  UNL1       -0.0470
      8  C          8.4100    1.2100   -0.6840 C.2     1  UNL1        0.0040
      9  C          6.4690   -0.0900   -0.9770 C.2     1  UNL1        0.0040
     10  C          8.9890    0.5170   -1.7450 C.2     1  UNL1        0.0000
     11  C          7.0150   -0.7940   -2.0310 C.2     1  UNL1        0.0000
     12  C          8.3040   -0.4660   -2.4060 C.2     1  UNL1        0.0000
@<TRIPOS>BOND
     1    12    11    2
     2    12    10    1
     3    11     9    1
     4    10     8    2
     5     9     7    2
     6     8     7    1
     7     7     6    1
     8     1     6    1
     9     1     2    1
    10     2     4    1
    11     2     3    2
    12     5     4    1
