@<TRIPOS>MOLECULE
/home/cewinharhar/GITHUB/reincatalyze/data/processed/docking_pred/2023-Apr-25-1829_maxeplen10_maxtrainstep200_exh32_gamma099_lrac3e-4_lrcr1e-3/2cf69de7cf34ef354308742c6722c88054a527ce_ligand_2.pdbqt
 12 12 0 0 0
SMALL
GASTEIGER

@<TRIPOS>ATOM
      1  C          8.2210   -0.8800   -1.9500 C.3     1  UNL1        0.1270
      2  C          8.3820   -2.0060   -2.8860 C.2     1  UNL1        0.3030
      3  O          9.5320   -2.4570   -3.1000 O.2     1  UNL1       -0.2520
      4  O          7.2950   -2.5700   -3.5260 O.3     1  UNL1       -0.4810
      5  H          7.1090   -3.5900   -3.5490 H       1  UNL1        0.2960
      6  C          7.3400   -1.3700   -0.8060 C.3     1  UNL1        0.0470
      7  C          6.5360   -0.2830   -0.2190 C.2     1  UNL1       -0.0470
      8  C          6.1310   -0.4110    1.1040 C.2     1  UNL1        0.0040
      9  C          6.1470    0.8520   -0.8830 C.2     1  UNL1        0.0040
     10  C          5.3640    0.5930    1.6920 C.2     1  UNL1        0.0000
     11  C          5.3880    1.8630   -0.3280 C.2     1  UNL1        0.0000
     12  C          5.0000    1.7080    0.9880 C.2     1  UNL1        0.0000
@<TRIPOS>BOND
     1     5     4    1
     2     4     2    1
     3     3     2    2
     4     2     1    1
     5     1     6    1
     6     9    11    1
     7     9     7    2
     8     6     7    1
     9    11    12    2
    10     7     8    1
    11    12    10    1
    12     8    10    2
