@<TRIPOS>MOLECULE
/home/cewinharhar/GITHUB/reincatalyze/data/processed/docking_pred/2023-Apr-25-1829_maxeplen10_maxtrainstep200_exh32_gamma099_lrac3e-4_lrcr1e-3/2cf69de7cf34ef354308742c6722c88054a527ce_ligand_2.pdbqt
 12 12 0 0 0
SMALL
GASTEIGER

@<TRIPOS>ATOM
      1  C          8.4590   -0.5810   -2.2270 C.3     1  UNL1        0.1270
      2  C          8.4680   -1.8920   -2.9000 C.2     1  UNL1        0.3030
      3  O          9.5560   -2.5040   -3.0170 O.2     1  UNL1       -0.2520
      4  O          7.3090   -2.4530   -3.3990 O.3     1  UNL1       -0.4810
      5  H          7.2980   -3.2200   -4.0970 H       1  UNL1        0.2960
      6  C          7.0130   -0.0980   -2.2080 C.3     1  UNL1        0.0470
      7  C          6.4910    0.0400   -0.8360 C.2     1  UNL1       -0.0470
      8  C          5.8730    1.2350   -0.4890 C.2     1  UNL1        0.0040
      9  C          6.5720   -0.9240    0.1350 C.2     1  UNL1        0.0040
     10  C          5.3720    1.4060    0.8000 C.2     1  UNL1        0.0000
     11  C          6.0860   -0.7850    1.4200 C.2     1  UNL1        0.0000
     12  C          5.4780    0.4140    1.7360 C.2     1  UNL1        0.0000
@<TRIPOS>BOND
     1     5     4    1
     2     4     2    1
     3     3     2    2
     4     2     1    1
     5     1     6    1
     6     6     7    1
     7     7     8    2
     8     7     9    1
     9     8    10    1
    10     9    11    2
    11    10    12    2
    12    11    12    1
