@<TRIPOS>MOLECULE
/home/cewinharhar/GITHUB/reincatalyze/data/processed/docking_pred/2023-Apr-25-1829_maxeplen10_maxtrainstep200_exh32_gamma099_lrac3e-4_lrcr1e-3/2cf69de7cf34ef354308742c6722c88054a527ce_ligand_2.pdbqt
 12 12 0 0 0
SMALL
GASTEIGER

@<TRIPOS>ATOM
      1  C          4.9760    1.7770    0.6970 C.3     1  UNL1        0.1270
      2  C          4.4690    1.1190    1.9140 C.2     1  UNL1        0.3030
      3  O          5.1670    0.2320    2.4580 O.2     1  UNL1       -0.2520
      4  O          3.2480    1.4630    2.4630 O.3     1  UNL1       -0.4810
      5  H          3.1090    1.6630    3.4710 H       1  UNL1        0.2960
      6  C          6.4980    1.7540    0.7760 C.3     1  UNL1        0.0470
      7  C          7.1000    0.9790   -0.3240 C.2     1  UNL1       -0.0470
      8  C          8.4290    1.2260   -0.6460 C.2     1  UNL1        0.0040
      9  C          6.4460    0.0290   -1.0650 C.2     1  UNL1        0.0040
     10  C          9.0320    0.5180   -1.6840 C.2     1  UNL1        0.0000
     11  C          7.0150   -0.6890   -2.0980 C.2     1  UNL1        0.0000
     12  C          8.3360   -0.4210   -2.3960 C.2     1  UNL1        0.0000
@<TRIPOS>BOND
     1    12    11    2
     2    12    10    1
     3    11     9    1
     4    10     8    2
     5     9     7    2
     6     8     7    1
     7     7     6    1
     8     1     6    1
     9     1     2    1
    10     2     3    2
    11     2     4    1
    12     4     5    1
