@<TRIPOS>MOLECULE
/home/cewinharhar/GITHUB/reincatalyze/data/processed/docking_pred/2023-Apr-25-1829_maxeplen10_maxtrainstep200_exh32_gamma099_lrac3e-4_lrcr1e-3/2cf69de7cf34ef354308742c6722c88054a527ce_ligand_2.pdbqt
 12 12 0 0 0
SMALL
GASTEIGER

@<TRIPOS>ATOM
      1  C          7.3220   -1.2530   -2.2000 C.3     1  UNL1        0.1270
      2  C          8.7500   -1.3560   -2.5480 C.2     1  UNL1        0.3030
      3  O          9.5380   -0.4720   -2.1390 O.2     1  UNL1       -0.2520
      4  O          9.2300   -2.4030   -3.3110 O.3     1  UNL1       -0.4810
      5  H          9.0810   -2.4820   -4.3340 H       1  UNL1        0.2960
      6  C          7.2180   -1.4050   -0.6860 C.3     1  UNL1        0.0470
      7  C          6.4280   -0.3230   -0.0720 C.2     1  UNL1       -0.0470
      8  C          6.1750    0.8130   -0.8300 C.2     1  UNL1        0.0040
      9  C          5.9230   -0.3470    1.2030 C.2     1  UNL1        0.0040
     10  C          5.4370    1.8610   -0.2810 C.2     1  UNL1        0.0000
     11  C          5.1890    0.6740    1.7740 C.2     1  UNL1        0.0000
     12  C          4.9550    1.7910    0.9970 C.2     1  UNL1        0.0000
@<TRIPOS>BOND
     1     5     4    1
     2     4     2    1
     3     2     1    1
     4     2     3    2
     5     1     6    1
     6     8    10    1
     7     8     7    2
     8     6     7    1
     9    10    12    2
    10     7     9    1
    11    12    11    1
    12     9    11    2
