MODEL 1
REMARK VINA RESULT:      -7.3      0.000      0.000
REMARK SMILES O=C(O)CCc1ccccc1
REMARK SMILES IDX 4 1 2 2 1 3 3 4 5 6 6 7 7 8 11 9 8 10 10 11 9 12
REMARK H PARENT 3 5
REMARK Flexibility Score: inf
ROOT
ATOM      1  C   UNL     1       8.471  -0.624  -2.166  1.00  0.00     0.127 C 
ENDROOT
BRANCH   1   2
ATOM      2  C   UNL     1       8.473  -1.892  -2.917  1.00  0.00     0.303 C 
ATOM      3  O   UNL     1       9.559  -2.495  -3.084  1.00  0.00    -0.252 OA
BRANCH   2   4
ATOM      4  O   UNL     1       7.307  -2.424  -3.433  1.00  0.00    -0.481 OA
ATOM      5  H   UNL     1       6.680  -1.911  -4.079  1.00  0.00     0.296 HD
ENDBRANCH   2   4
ENDBRANCH   1   2
BRANCH   1   6
ATOM      6  C   UNL     1       7.036  -0.110  -2.158  1.00  0.00     0.047 C 
BRANCH   6   7
ATOM      7  C   UNL     1       6.497   0.011  -0.791  1.00  0.00    -0.047 A 
ATOM      8  C   UNL     1       5.857   1.194  -0.444  1.00  0.00     0.004 A 
ATOM      9  C   UNL     1       6.583  -0.958   0.175  1.00  0.00     0.004 A 
ATOM     10  C   UNL     1       5.339   1.349   0.841  1.00  0.00     0.000 A 
ATOM     11  C   UNL     1       6.081  -0.835   1.455  1.00  0.00     0.000 A 
ATOM     12  C   UNL     1       5.450   0.352   1.772  1.00  0.00     0.000 A 
ENDBRANCH   6   7
ENDBRANCH   1   6
TORSDOF 4
ENDMDL
MODEL 2
REMARK VINA RESULT:      -7.3      0.068      1.430
REMARK SMILES O=C(O)CCc1ccccc1
REMARK SMILES IDX 4 1 2 2 1 3 3 4 5 6 6 7 7 8 11 9 8 10 10 11 9 12
REMARK H PARENT 3 5
REMARK Flexibility Score: inf
ROOT
ATOM      1  C   UNL     1       8.453  -0.615  -2.185  1.00  0.00     0.127 C 
ENDROOT
BRANCH   1   2
ATOM      2  C   UNL     1       8.471  -1.893  -2.918  1.00  0.00     0.303 C 
ATOM      3  O   UNL     1       9.566  -2.480  -3.084  1.00  0.00    -0.252 OA
BRANCH   2   4
ATOM      4  O   UNL     1       7.311  -2.452  -3.419  1.00  0.00    -0.481 OA
ATOM      5  H   UNL     1       7.136  -3.473  -3.455  1.00  0.00     0.296 HD
ENDBRANCH   2   4
ENDBRANCH   1   2
BRANCH   1   6
ATOM      6  C   UNL     1       7.016  -0.107  -2.204  1.00  0.00     0.047 C 
BRANCH   6   7
ATOM      7  C   UNL     1       6.481   0.097  -0.847  1.00  0.00    -0.047 A 
ATOM      8  C   UNL     1       6.610  -0.939   0.070  1.00  0.00     0.004 A 
ATOM      9  C   UNL     1       5.854   1.237  -0.413  1.00  0.00     0.004 A 
ATOM     10  C   UNL     1       6.111  -0.786   1.362  1.00  0.00     0.000 A 
ATOM     11  C   UNL     1       5.350   1.419   0.859  1.00  0.00     0.000 A 
ATOM     12  C   UNL     1       5.492   0.371   1.748  1.00  0.00     0.000 A 
ENDBRANCH   6   7
ENDBRANCH   1   6
TORSDOF 4
ENDMDL
MODEL 3
REMARK VINA RESULT:      -7.2      0.628      1.619
REMARK SMILES O=C(O)CCc1ccccc1
REMARK SMILES IDX 4 1 2 2 1 3 3 4 5 6 6 7 7 8 11 9 8 10 10 11 9 12
REMARK H PARENT 3 5
REMARK Flexibility Score: inf
ROOT
ATOM      1  C   UNL     1       8.132  -0.899  -1.980  1.00  0.00     0.127 C 
ENDROOT
BRANCH   1   2
ATOM      2  C   UNL     1       8.333  -2.013  -2.923  1.00  0.00     0.303 C 
ATOM      3  O   UNL     1       9.497  -2.435  -3.123  1.00  0.00    -0.252 OA
BRANCH   2   4
ATOM      4  O   UNL     1       7.270  -2.597  -3.585  1.00  0.00    -0.481 OA
ATOM      5  H   UNL     1       6.321  -2.180  -3.625  1.00  0.00     0.296 HD
ENDBRANCH   2   4
ENDBRANCH   1   2
BRANCH   1   6
ATOM      6  C   UNL     1       7.143  -1.380  -0.923  1.00  0.00     0.047 C 
BRANCH   6   7
ATOM      7  C   UNL     1       6.425  -0.263  -0.285  1.00  0.00    -0.047 A 
ATOM      8  C   UNL     1       6.025  -0.414   1.038  1.00  0.00     0.004 A 
ATOM      9  C   UNL     1       6.112   0.922  -0.898  1.00  0.00     0.004 A 
ATOM     10  C   UNL     1       5.338   0.618   1.674  1.00  0.00     0.000 A 
ATOM     11  C   UNL     1       5.434   1.963  -0.295  1.00  0.00     0.000 A 
ATOM     12  C   UNL     1       5.048   1.783   1.019  1.00  0.00     0.000 A 
ENDBRANCH   6   7
ENDBRANCH   1   6
TORSDOF 4
ENDMDL
MODEL 4
REMARK VINA RESULT:      -6.7      3.350      5.038
REMARK SMILES O=C(O)CCc1ccccc1
REMARK SMILES IDX 4 1 2 2 1 3 3 4 5 6 6 7 7 8 11 9 8 10 10 11 9 12
REMARK H PARENT 3 5
REMARK Flexibility Score: inf
ROOT
ATOM      1  C   UNL     1       5.010   1.701   0.704  1.00  0.00     0.127 C 
ENDROOT
BRANCH   1   2
ATOM      2  C   UNL     1       4.547   1.041   1.937  1.00  0.00     0.303 C 
ATOM      3  O   UNL     1       5.289   0.190   2.483  1.00  0.00    -0.252 OA
BRANCH   2   4
ATOM      4  O   UNL     1       3.321   1.341   2.499  1.00  0.00    -0.481 OA
ATOM      5  H   UNL     1       2.857   0.750   3.213  1.00  0.00     0.296 HD
ENDBRANCH   2   4
ENDBRANCH   1   2
BRANCH   1   6
ATOM      6  C   UNL     1       6.533   1.723   0.751  1.00  0.00     0.047 C 
BRANCH   6   7
ATOM      7  C   UNL     1       7.134   0.946  -0.347  1.00  0.00    -0.047 A 
ATOM      8  C   UNL     1       8.458   1.204  -0.683  1.00  0.00     0.004 A 
ATOM      9  C   UNL     1       6.484  -0.017  -1.075  1.00  0.00     0.004 A 
ATOM     10  C   UNL     1       9.059   0.494  -1.720  1.00  0.00     0.000 A 
ATOM     11  C   UNL     1       7.052  -0.737  -2.107  1.00  0.00     0.000 A 
ATOM     12  C   UNL     1       8.369  -0.458  -2.419  1.00  0.00     0.000 A 
ENDBRANCH   6   7
ENDBRANCH   1   6
TORSDOF 4
ENDMDL
MODEL 5
REMARK VINA RESULT:      -6.5      2.006      2.726
REMARK SMILES O=C(O)CCc1ccccc1
REMARK SMILES IDX 4 1 2 2 1 3 3 4 5 6 6 7 7 8 11 9 8 10 10 11 9 12
REMARK H PARENT 3 5
REMARK Flexibility Score: inf
ROOT
ATOM      1  C   UNL     1       8.519   0.475  -1.896  1.00  0.00     0.127 C 
ENDROOT
BRANCH   1   2
ATOM      2  C   UNL     1       9.617   0.240  -0.942  1.00  0.00     0.303 C 
ATOM      3  O   UNL     1       9.426  -0.541   0.020  1.00  0.00    -0.252 OA
BRANCH   2   4
ATOM      4  O   UNL     1      10.843   0.860  -1.088  1.00  0.00    -0.481 OA
ATOM      5  H   UNL     1      11.718   0.353  -1.313  1.00  0.00     0.296 HD
ENDBRANCH   2   4
ENDBRANCH   1   2
BRANCH   1   6
ATOM      6  C   UNL     1       7.338  -0.374  -1.439  1.00  0.00     0.047 C 
BRANCH   6   7
ATOM      7  C   UNL     1       6.449   0.360  -0.522  1.00  0.00    -0.047 A 
ATOM      8  C   UNL     1       6.206  -0.188   0.732  1.00  0.00     0.004 A 
ATOM      9  C   UNL     1       5.830   1.549  -0.811  1.00  0.00     0.004 A 
ATOM     10  C   UNL     1       5.365   0.473   1.625  1.00  0.00     0.000 A 
ATOM     11  C   UNL     1       4.993   2.228   0.051  1.00  0.00     0.000 A 
ATOM     12  C   UNL     1       4.770   1.659   1.290  1.00  0.00     0.000 A 
ENDBRANCH   6   7
ENDBRANCH   1   6
TORSDOF 4
ENDMDL
