@<TRIPOS>MOLECULE
/home/cewinharhar/GITHUB/reincatalyze/data/processed/docking_pred/2023-Apr-25-1829_maxeplen10_maxtrainstep200_exh32_gamma099_lrac3e-4_lrcr1e-3/2f41e52dfc6618f39d2325611a45b0a1c53476a0_ligand_2.pdbqt
 12 12 0 0 0
SMALL
GASTEIGER

@<TRIPOS>ATOM
      1  C          8.5190    0.4750   -1.8960 C.3     1  UNL1        0.1270
      2  C          9.6170    0.2400   -0.9420 C.2     1  UNL1        0.3030
      3  O          9.4260   -0.5410    0.0200 O.2     1  UNL1       -0.2520
      4  O         10.8430    0.8600   -1.0880 O.3     1  UNL1       -0.4810
      5  H         11.7180    0.3530   -1.3130 H       1  UNL1        0.2960
      6  C          7.3380   -0.3740   -1.4390 C.3     1  UNL1        0.0470
      7  C          6.4490    0.3600   -0.5220 C.2     1  UNL1       -0.0470
      8  C          6.2060   -0.1880    0.7320 C.2     1  UNL1        0.0040
      9  C          5.8300    1.5490   -0.8110 C.2     1  UNL1        0.0040
     10  C          5.3650    0.4730    1.6250 C.2     1  UNL1        0.0000
     11  C          4.9930    2.2280    0.0510 C.2     1  UNL1        0.0000
     12  C          4.7700    1.6590    1.2900 C.2     1  UNL1        0.0000
@<TRIPOS>BOND
     1     1     6    1
     2     1     2    1
     3     6     7    1
     4     5     4    1
     5     4     2    1
     6     2     3    2
     7     9     7    2
     8     9    11    1
     9     7     8    1
    10    11    12    2
    11     8    10    2
    12    12    10    1
