@<TRIPOS>MOLECULE
/home/cewinharhar/GITHUB/reincatalyze/data/processed/docking_pred/2023-Apr-25-1829_maxeplen10_maxtrainstep200_exh32_gamma099_lrac3e-4_lrcr1e-3/2f41e52dfc6618f39d2325611a45b0a1c53476a0_ligand_2.pdbqt
 12 12 0 0 0
SMALL
GASTEIGER

@<TRIPOS>ATOM
      1  C          8.4710   -0.6240   -2.1660 C.3     1  UNL1        0.1270
      2  C          8.4730   -1.8920   -2.9170 C.2     1  UNL1        0.3030
      3  O          9.5590   -2.4950   -3.0840 O.2     1  UNL1       -0.2520
      4  O          7.3070   -2.4240   -3.4330 O.3     1  UNL1       -0.4810
      5  H          6.6800   -1.9110   -4.0790 H       1  UNL1        0.2960
      6  C          7.0360   -0.1100   -2.1580 C.3     1  UNL1        0.0470
      7  C          6.4970    0.0110   -0.7910 C.2     1  UNL1       -0.0470
      8  C          5.8570    1.1940   -0.4440 C.2     1  UNL1        0.0040
      9  C          6.5830   -0.9580    0.1750 C.2     1  UNL1        0.0040
     10  C          5.3390    1.3490    0.8410 C.2     1  UNL1        0.0000
     11  C          6.0810   -0.8350    1.4550 C.2     1  UNL1        0.0000
     12  C          5.4500    0.3520    1.7720 C.2     1  UNL1        0.0000
@<TRIPOS>BOND
     1     5     4    1
     2     4     2    1
     3     3     2    2
     4     2     1    1
     5     1     6    1
     6     6     7    1
     7     7     8    2
     8     7     9    1
     9     8    10    1
    10     9    11    2
    11    10    12    2
    12    11    12    1
