@<TRIPOS>MOLECULE
/home/cewinharhar/GITHUB/reincatalyze/data/processed/docking_pred/2023-Apr-25-1829_maxeplen10_maxtrainstep200_exh32_gamma099_lrac3e-4_lrcr1e-3/2f41e52dfc6618f39d2325611a45b0a1c53476a0_ligand_2.pdbqt
 12 12 0 0 0
SMALL
GASTEIGER

@<TRIPOS>ATOM
      1  C          5.0100    1.7010    0.7040 C.3     1  UNL1        0.1270
      2  C          4.5470    1.0410    1.9370 C.2     1  UNL1        0.3030
      3  O          5.2890    0.1900    2.4830 O.2     1  UNL1       -0.2520
      4  O          3.3210    1.3410    2.4990 O.3     1  UNL1       -0.4810
      5  H          2.8570    0.7500    3.2130 H       1  UNL1        0.2960
      6  C          6.5330    1.7230    0.7510 C.3     1  UNL1        0.0470
      7  C          7.1340    0.9460   -0.3470 C.2     1  UNL1       -0.0470
      8  C          8.4580    1.2040   -0.6830 C.2     1  UNL1        0.0040
      9  C          6.4840   -0.0170   -1.0750 C.2     1  UNL1        0.0040
     10  C          9.0590    0.4940   -1.7200 C.2     1  UNL1        0.0000
     11  C          7.0520   -0.7370   -2.1070 C.2     1  UNL1        0.0000
     12  C          8.3690   -0.4580   -2.4190 C.2     1  UNL1        0.0000
@<TRIPOS>BOND
     1    12    11    2
     2    12    10    1
     3    11     9    1
     4    10     8    2
     5     9     7    2
     6     8     7    1
     7     7     6    1
     8     1     6    1
     9     1     2    1
    10     2     3    2
    11     2     4    1
    12     4     5    1
