@<TRIPOS>MOLECULE
/home/cewinharhar/GITHUB/reincatalyze/data/processed/docking_pred/2023-Apr-25-1829_maxeplen10_maxtrainstep200_exh32_gamma099_lrac3e-4_lrcr1e-3/2f41e52dfc6618f39d2325611a45b0a1c53476a0_ligand_2.pdbqt
 12 12 0 0 0
SMALL
GASTEIGER

@<TRIPOS>ATOM
      1  C          8.1320   -0.8990   -1.9800 C.3     1  UNL1        0.1270
      2  C          8.3330   -2.0130   -2.9230 C.2     1  UNL1        0.3030
      3  O          9.4970   -2.4350   -3.1230 O.2     1  UNL1       -0.2520
      4  O          7.2700   -2.5970   -3.5850 O.3     1  UNL1       -0.4810
      5  H          6.3210   -2.1800   -3.6250 H       1  UNL1        0.2960
      6  C          7.1430   -1.3800   -0.9230 C.3     1  UNL1        0.0470
      7  C          6.4250   -0.2630   -0.2850 C.2     1  UNL1       -0.0470
      8  C          6.0250   -0.4140    1.0380 C.2     1  UNL1        0.0040
      9  C          6.1120    0.9220   -0.8980 C.2     1  UNL1        0.0040
     10  C          5.3380    0.6180    1.6740 C.2     1  UNL1        0.0000
     11  C          5.4340    1.9630   -0.2950 C.2     1  UNL1        0.0000
     12  C          5.0480    1.7830    1.0190 C.2     1  UNL1        0.0000
@<TRIPOS>BOND
     1     5     4    1
     2     4     2    1
     3     3     2    2
     4     2     1    1
     5     1     6    1
     6     6     7    1
     7     9    11    1
     8     9     7    2
     9    11    12    2
    10     7     8    1
    11    12    10    1
    12     8    10    2
