@<TRIPOS>MOLECULE
/home/cewinharhar/GITHUB/reincatalyze/data/processed/docking_pred/2023-Apr-25-1829_maxeplen10_maxtrainstep200_exh32_gamma099_lrac3e-4_lrcr1e-3/30246d56752cb6be0208f58fab85103c625ac011_ligand_2.pdbqt
 12 12 0 0 0
SMALL
GASTEIGER

@<TRIPOS>ATOM
      1  C          5.5440    2.8840   -0.0460 C.3     1  UNL1        0.1270
      2  C          6.2690    3.8590    0.7870 C.2     1  UNL1        0.3030
      3  O          6.9140    4.7750    0.2240 O.2     1  UNL1       -0.2520
      4  O          6.2490    3.7830    2.1670 O.3     1  UNL1       -0.4810
      5  H          6.8580    3.1470    2.7140 H       1  UNL1        0.2960
      6  C          4.9450    1.8470    0.8980 C.3     1  UNL1        0.0470
      7  C          5.7190    0.5930    0.9080 C.2     1  UNL1       -0.0470
      8  C          5.7500   -0.1460    2.0850 C.2     1  UNL1        0.0040
      9  C          6.4230    0.0950   -0.1580 C.2     1  UNL1        0.0040
     10  C          6.4760   -1.3350    2.1360 C.2     1  UNL1        0.0000
     11  C          7.1510   -1.0780   -0.1390 C.2     1  UNL1        0.0000
     12  C          7.1630   -1.7900    1.0450 C.2     1  UNL1        0.0000
@<TRIPOS>BOND
     1     9    11    1
     2     9     7    2
     3    11    12    2
     4     1     2    1
     5     1     6    1
     6     3     2    2
     7     2     4    1
     8     6     7    1
     9     7     8    1
    10    12    10    1
    11     8    10    2
    12     4     5    1
