@<TRIPOS>MOLECULE
/home/cewinharhar/GITHUB/reincatalyze/data/processed/docking_pred/2023-Apr-25-1829_maxeplen10_maxtrainstep200_exh32_gamma099_lrac3e-4_lrcr1e-3/30246d56752cb6be0208f58fab85103c625ac011_ligand_2.pdbqt
 12 12 0 0 0
SMALL
GASTEIGER

@<TRIPOS>ATOM
      1  C          8.4230   -0.6260   -2.1510 C.3     1  UNL1        0.1270
      2  C          8.3920   -1.8970   -2.8960 C.2     1  UNL1        0.3030
      3  O          7.2830   -2.3840   -3.2150 O.2     1  UNL1       -0.2520
      4  O          9.5560   -2.5540   -3.2460 O.3     1  UNL1       -0.4810
      5  H         10.4230   -2.0680   -3.5400 H       1  UNL1        0.2960
      6  C          6.9950   -0.0930   -2.1140 C.3     1  UNL1        0.0470
      7  C          6.4730    0.0030   -0.7400 C.2     1  UNL1       -0.0470
      8  C          5.8480    1.1840   -0.3590 C.2     1  UNL1        0.0040
      9  C          6.5610   -0.9870    0.2040 C.2     1  UNL1        0.0040
     10  C          5.3470    1.3150    0.9350 C.2     1  UNL1        0.0000
     11  C          6.0750   -0.8880    1.4930 C.2     1  UNL1        0.0000
     12  C          5.4590    0.2980    1.8430 C.2     1  UNL1        0.0000
@<TRIPOS>BOND
     1     5     4    1
     2     4     2    1
     3     3     2    2
     4     2     1    1
     5     1     6    1
     6     6     7    1
     7     7     8    2
     8     7     9    1
     9     8    10    1
    10     9    11    2
    11    10    12    2
    12    11    12    1
