@<TRIPOS>MOLECULE
/home/cewinharhar/GITHUB/reincatalyze/data/processed/docking_pred/2023-Apr-25-1829_maxeplen10_maxtrainstep200_exh32_gamma099_lrac3e-4_lrcr1e-3/30246d56752cb6be0208f58fab85103c625ac011_ligand_2.pdbqt
 12 12 0 0 0
SMALL
GASTEIGER

@<TRIPOS>ATOM
      1  C          8.4550   -0.6170   -2.1980 C.3     1  UNL1        0.1270
      2  C          8.4810   -1.9080   -2.9080 C.2     1  UNL1        0.3030
      3  O          9.5790   -2.4930   -3.0600 O.2     1  UNL1       -0.2520
      4  O          7.3250   -2.4810   -3.4030 O.3     1  UNL1       -0.4810
      5  H          6.3770   -2.0930   -3.2380 H       1  UNL1        0.2960
      6  C          7.0170   -0.1140   -2.2350 C.3     1  UNL1        0.0470
      7  C          6.4740    0.1190   -0.8860 C.2     1  UNL1       -0.0470
      8  C          6.5960   -0.8980    0.0530 C.2     1  UNL1        0.0040
      9  C          5.8470    1.2690   -0.4790 C.2     1  UNL1        0.0040
     10  C          6.0890   -0.7180    1.3380 C.2     1  UNL1        0.0000
     11  C          5.3350    1.4780    0.7860 C.2     1  UNL1        0.0000
     12  C          5.4700    0.4480    1.6970 C.2     1  UNL1        0.0000
@<TRIPOS>BOND
     1     4     5    1
     2     4     2    1
     3     3     2    2
     4     2     1    1
     5     6     1    1
     6     6     7    1
     7     7     9    2
     8     7     8    1
     9     9    11    1
    10     8    10    2
    11    11    12    2
    12    10    12    1
