@<TRIPOS>MOLECULE
/home/cewinharhar/GITHUB/reincatalyze/data/processed/docking_pred/2023-Apr-25-1829_maxeplen10_maxtrainstep200_exh32_gamma099_lrac3e-4_lrcr1e-3/30246d56752cb6be0208f58fab85103c625ac011_ligand_2.pdbqt
 12 12 0 0 0
SMALL
GASTEIGER

@<TRIPOS>ATOM
      1  C          4.9750    1.7910    0.6840 C.3     1  UNL1        0.1270
      2  C          4.4790    1.1320    1.9050 C.2     1  UNL1        0.3030
      3  O          5.1910    0.2590    2.4540 O.2     1  UNL1       -0.2520
      4  O          3.2520    1.4590    2.4510 O.3     1  UNL1       -0.4810
      5  H          2.4480    1.8000    1.8920 H       1  UNL1        0.2960
      6  C          6.4980    1.7860    0.7600 C.3     1  UNL1        0.0470
      7  C          7.1050    1.0060   -0.3330 C.2     1  UNL1       -0.0470
      8  C          8.4440    1.2300   -0.6300 C.2     1  UNL1        0.0040
      9  C          6.4470    0.0710   -1.0910 C.2     1  UNL1        0.0040
     10  C          9.0530    0.5160   -1.6600 C.2     1  UNL1        0.0000
     11  C          7.0220   -0.6520   -2.1170 C.2     1  UNL1        0.0000
     12  C          8.3540   -0.4070   -2.3900 C.2     1  UNL1        0.0000
@<TRIPOS>BOND
     1    12    11    2
     2    12    10    1
     3    11     9    1
     4    10     8    2
     5     9     7    2
     6     8     7    1
     7     7     6    1
     8     1     6    1
     9     1     2    1
    10     5     4    1
    11     2     4    1
    12     2     3    2
