@<TRIPOS>MOLECULE
/home/cewinharhar/GITHUB/reincatalyze/data/processed/docking_pred/2023-Apr-25-1829_maxeplen10_maxtrainstep200_exh32_gamma099_lrac3e-4_lrcr1e-3/30246d56752cb6be0208f58fab85103c625ac011_ligand_2.pdbqt
 12 12 0 0 0
SMALL
GASTEIGER

@<TRIPOS>ATOM
      1  C          8.2510    0.2510   -2.2110 C.3     1  UNL1        0.1270
      2  C          9.3700    0.3690   -1.2590 C.2     1  UNL1        0.3030
      3  O          9.4220   -0.4210   -0.2870 O.2     1  UNL1       -0.2520
      4  O         10.3540    1.3250   -1.4190 O.3     1  UNL1       -0.4810
      5  H         10.4840    2.1270   -0.7750 H       1  UNL1        0.2960
      6  C          7.1490   -0.5370   -1.5130 C.3     1  UNL1        0.0470
      7  C          6.3480    0.3080   -0.6100 C.2     1  UNL1       -0.0470
      8  C          6.1070   -0.1570    0.6780 C.2     1  UNL1        0.0040
      9  C          5.8110    1.5240   -0.9440 C.2     1  UNL1        0.0040
     10  C          5.3480    0.6110    1.5590 C.2     1  UNL1        0.0000
     11  C          5.0560    2.3080   -0.0940 C.2     1  UNL1        0.0000
     12  C          4.8320    1.8200    1.1790 C.2     1  UNL1        0.0000
@<TRIPOS>BOND
     1     1     6    1
     2     1     2    1
     3     6     7    1
     4     4     2    1
     5     4     5    1
     6     2     3    2
     7     9     7    2
     8     9    11    1
     9     7     8    1
    10    11    12    2
    11     8    10    2
    12    12    10    1
