MODEL 1
REMARK VINA RESULT:      -7.3      0.000      0.000
REMARK SMILES O=C(O)CCc1ccccc1
REMARK SMILES IDX 4 1 2 2 1 3 3 4 5 6 6 7 7 8 11 9 8 10 10 11 9 12
REMARK H PARENT 3 5
REMARK Flexibility Score: inf
ROOT
ATOM      1  C   UNL     1       8.455  -0.617  -2.198  1.00  0.00     0.127 C 
ENDROOT
BRANCH   1   2
ATOM      2  C   UNL     1       8.481  -1.908  -2.908  1.00  0.00     0.303 C 
ATOM      3  O   UNL     1       9.579  -2.493  -3.060  1.00  0.00    -0.252 OA
BRANCH   2   4
ATOM      4  O   UNL     1       7.325  -2.481  -3.403  1.00  0.00    -0.481 OA
ATOM      5  H   UNL     1       6.377  -2.093  -3.238  1.00  0.00     0.296 HD
ENDBRANCH   2   4
ENDBRANCH   1   2
BRANCH   1   6
ATOM      6  C   UNL     1       7.017  -0.114  -2.235  1.00  0.00     0.047 C 
BRANCH   6   7
ATOM      7  C   UNL     1       6.474   0.119  -0.886  1.00  0.00    -0.047 A 
ATOM      8  C   UNL     1       6.596  -0.898   0.053  1.00  0.00     0.004 A 
ATOM      9  C   UNL     1       5.847   1.269  -0.479  1.00  0.00     0.004 A 
ATOM     10  C   UNL     1       6.089  -0.718   1.338  1.00  0.00     0.000 A 
ATOM     11  C   UNL     1       5.335   1.478   0.786  1.00  0.00     0.000 A 
ATOM     12  C   UNL     1       5.470   0.448   1.697  1.00  0.00     0.000 A 
ENDBRANCH   6   7
ENDBRANCH   1   6
TORSDOF 4
ENDMDL
MODEL 2
REMARK VINA RESULT:      -7.2      0.177      1.733
REMARK SMILES O=C(O)CCc1ccccc1
REMARK SMILES IDX 4 1 2 2 1 3 3 4 5 6 6 7 7 8 11 9 8 10 10 11 9 12
REMARK H PARENT 3 5
REMARK Flexibility Score: inf
ROOT
ATOM      1  C   UNL     1       8.423  -0.626  -2.151  1.00  0.00     0.127 C 
ENDROOT
BRANCH   1   2
ATOM      2  C   UNL     1       8.392  -1.897  -2.896  1.00  0.00     0.303 C 
ATOM      3  O   UNL     1       7.283  -2.384  -3.215  1.00  0.00    -0.252 OA
BRANCH   2   4
ATOM      4  O   UNL     1       9.556  -2.554  -3.246  1.00  0.00    -0.481 OA
ATOM      5  H   UNL     1      10.423  -2.068  -3.540  1.00  0.00     0.296 HD
ENDBRANCH   2   4
ENDBRANCH   1   2
BRANCH   1   6
ATOM      6  C   UNL     1       6.995  -0.093  -2.114  1.00  0.00     0.047 C 
BRANCH   6   7
ATOM      7  C   UNL     1       6.473   0.003  -0.740  1.00  0.00    -0.047 A 
ATOM      8  C   UNL     1       5.848   1.184  -0.359  1.00  0.00     0.004 A 
ATOM      9  C   UNL     1       6.561  -0.987   0.204  1.00  0.00     0.004 A 
ATOM     10  C   UNL     1       5.347   1.315   0.935  1.00  0.00     0.000 A 
ATOM     11  C   UNL     1       6.075  -0.888   1.493  1.00  0.00     0.000 A 
ATOM     12  C   UNL     1       5.459   0.298   1.843  1.00  0.00     0.000 A 
ENDBRANCH   6   7
ENDBRANCH   1   6
TORSDOF 4
ENDMDL
MODEL 3
REMARK VINA RESULT:      -6.8      3.370      5.081
REMARK SMILES O=C(O)CCc1ccccc1
REMARK SMILES IDX 4 1 2 2 1 3 3 4 5 6 6 7 7 8 11 9 8 10 10 11 9 12
REMARK H PARENT 3 5
REMARK Flexibility Score: inf
ROOT
ATOM      1  C   UNL     1       4.975   1.791   0.684  1.00  0.00     0.127 C 
ENDROOT
BRANCH   1   2
ATOM      2  C   UNL     1       4.479   1.132   1.905  1.00  0.00     0.303 C 
ATOM      3  O   UNL     1       5.191   0.259   2.454  1.00  0.00    -0.252 OA
BRANCH   2   4
ATOM      4  O   UNL     1       3.252   1.459   2.451  1.00  0.00    -0.481 OA
ATOM      5  H   UNL     1       2.448   1.800   1.892  1.00  0.00     0.296 HD
ENDBRANCH   2   4
ENDBRANCH   1   2
BRANCH   1   6
ATOM      6  C   UNL     1       6.498   1.786   0.760  1.00  0.00     0.047 C 
BRANCH   6   7
ATOM      7  C   UNL     1       7.105   1.006  -0.333  1.00  0.00    -0.047 A 
ATOM      8  C   UNL     1       8.444   1.230  -0.630  1.00  0.00     0.004 A 
ATOM      9  C   UNL     1       6.447   0.071  -1.091  1.00  0.00     0.004 A 
ATOM     10  C   UNL     1       9.053   0.516  -1.660  1.00  0.00     0.000 A 
ATOM     11  C   UNL     1       7.022  -0.652  -2.117  1.00  0.00     0.000 A 
ATOM     12  C   UNL     1       8.354  -0.407  -2.390  1.00  0.00     0.000 A 
ENDBRANCH   6   7
ENDBRANCH   1   6
TORSDOF 4
ENDMDL
MODEL 4
REMARK VINA RESULT:      -6.7      3.841      4.942
REMARK SMILES O=C(O)CCc1ccccc1
REMARK SMILES IDX 4 1 2 2 1 3 3 4 5 6 6 7 7 8 11 9 8 10 10 11 9 12
REMARK H PARENT 3 5
REMARK Flexibility Score: inf
ROOT
ATOM      1  C   UNL     1       5.544   2.884  -0.046  1.00  0.00     0.127 C 
ENDROOT
BRANCH   1   2
ATOM      2  C   UNL     1       6.269   3.859   0.787  1.00  0.00     0.303 C 
ATOM      3  O   UNL     1       6.914   4.775   0.224  1.00  0.00    -0.252 OA
BRANCH   2   4
ATOM      4  O   UNL     1       6.249   3.783   2.167  1.00  0.00    -0.481 OA
ATOM      5  H   UNL     1       6.858   3.147   2.714  1.00  0.00     0.296 HD
ENDBRANCH   2   4
ENDBRANCH   1   2
BRANCH   1   6
ATOM      6  C   UNL     1       4.945   1.847   0.898  1.00  0.00     0.047 C 
BRANCH   6   7
ATOM      7  C   UNL     1       5.719   0.593   0.908  1.00  0.00    -0.047 A 
ATOM      8  C   UNL     1       5.750  -0.146   2.085  1.00  0.00     0.004 A 
ATOM      9  C   UNL     1       6.423   0.095  -0.158  1.00  0.00     0.004 A 
ATOM     10  C   UNL     1       6.476  -1.335   2.136  1.00  0.00     0.000 A 
ATOM     11  C   UNL     1       7.151  -1.078  -0.139  1.00  0.00     0.000 A 
ATOM     12  C   UNL     1       7.163  -1.790   1.045  1.00  0.00     0.000 A 
ENDBRANCH   6   7
ENDBRANCH   1   6
TORSDOF 4
ENDMDL
MODEL 5
REMARK VINA RESULT:      -6.6      1.907      2.293
REMARK SMILES O=C(O)CCc1ccccc1
REMARK SMILES IDX 4 1 2 2 1 3 3 4 5 6 6 7 7 8 11 9 8 10 10 11 9 12
REMARK H PARENT 3 5
REMARK Flexibility Score: inf
ROOT
ATOM      1  C   UNL     1       8.251   0.251  -2.211  1.00  0.00     0.127 C 
ENDROOT
BRANCH   1   2
ATOM      2  C   UNL     1       9.370   0.369  -1.259  1.00  0.00     0.303 C 
ATOM      3  O   UNL     1       9.422  -0.421  -0.287  1.00  0.00    -0.252 OA
BRANCH   2   4
ATOM      4  O   UNL     1      10.354   1.325  -1.419  1.00  0.00    -0.481 OA
ATOM      5  H   UNL     1      10.484   2.127  -0.775  1.00  0.00     0.296 HD
ENDBRANCH   2   4
ENDBRANCH   1   2
BRANCH   1   6
ATOM      6  C   UNL     1       7.149  -0.537  -1.513  1.00  0.00     0.047 C 
BRANCH   6   7
ATOM      7  C   UNL     1       6.348   0.308  -0.610  1.00  0.00    -0.047 A 
ATOM      8  C   UNL     1       6.107  -0.157   0.678  1.00  0.00     0.004 A 
ATOM      9  C   UNL     1       5.811   1.524  -0.944  1.00  0.00     0.004 A 
ATOM     10  C   UNL     1       5.348   0.611   1.559  1.00  0.00     0.000 A 
ATOM     11  C   UNL     1       5.056   2.308  -0.094  1.00  0.00     0.000 A 
ATOM     12  C   UNL     1       4.832   1.820   1.179  1.00  0.00     0.000 A 
ENDBRANCH   6   7
ENDBRANCH   1   6
TORSDOF 4
ENDMDL
