@<TRIPOS>MOLECULE
/home/cewinharhar/GITHUB/reincatalyze/data/processed/docking_pred/2023-Apr-25-1829_maxeplen10_maxtrainstep200_exh32_gamma099_lrac3e-4_lrcr1e-3/306d1dfeb5e1085b4f3e24b09348dc81ae645662_ligand_2.pdbqt
 12 12 0 0 0
SMALL
GASTEIGER

@<TRIPOS>ATOM
      1  C          8.2880    0.4490   -1.9110 C.3     1  UNL1        0.1270
      2  C          9.4890    0.4170   -1.0580 C.2     1  UNL1        0.3030
      3  O          9.5250   -0.3840   -0.0940 O.2     1  UNL1       -0.2520
      4  O         10.5670    1.2460   -1.3010 O.3     1  UNL1       -0.4810
      5  H         10.8080    1.6130   -2.2410 H       1  UNL1        0.2960
      6  C          7.2930   -0.5450   -1.3230 C.3     1  UNL1        0.0470
      7  C          6.4390    0.0690   -0.2910 C.2     1  UNL1       -0.0470
      8  C          5.8690    1.3070   -0.5660 C.2     1  UNL1        0.0040
      9  C          6.1620   -0.4870    0.9310 C.2     1  UNL1        0.0040
     10  C          5.0600    1.9220    0.3870 C.2     1  UNL1        0.0000
     11  C          5.3640    0.0970    1.8950 C.2     1  UNL1        0.0000
     12  C          4.8130    1.3280    1.5950 C.2     1  UNL1        0.0000
@<TRIPOS>BOND
     1     5     4    1
     2     1     6    1
     3     1     2    1
     4     6     7    1
     5     4     2    1
     6     2     3    2
     7     8     7    2
     8     8    10    1
     9     7     9    1
    10    10    12    2
    11     9    11    2
    12    12    11    1
