@<TRIPOS>MOLECULE
/home/cewinharhar/GITHUB/reincatalyze/data/processed/docking_pred/2023-Apr-25-1829_maxeplen10_maxtrainstep200_exh32_gamma099_lrac3e-4_lrcr1e-3/306d1dfeb5e1085b4f3e24b09348dc81ae645662_ligand_2.pdbqt
 12 12 0 0 0
SMALL
GASTEIGER

@<TRIPOS>ATOM
      1  C          8.3160   -1.5260    0.9690 C.3     1  UNL1        0.1270
      2  C          8.5280   -2.7960    0.2520 C.2     1  UNL1        0.3030
      3  O          9.1130   -3.7340    0.8440 O.2     1  UNL1       -0.2520
      4  O          8.0960   -2.9700   -1.0490 O.3     1  UNL1       -0.4810
      5  H          8.7020   -3.3230   -1.8120 H       1  UNL1        0.2960
      6  C          6.8300   -1.4410    1.2990 C.3     1  UNL1        0.0470
      7  C          6.2220   -0.1920    0.8050 C.2     1  UNL1       -0.0470
      8  C          6.4660    0.1770   -0.5120 C.2     1  UNL1        0.0040
      9  C          5.4330    0.6450    1.5510 C.2     1  UNL1        0.0040
     10  C          5.9130    1.3550   -1.0130 C.2     1  UNL1        0.0000
     11  C          4.8710    1.8160    1.0840 C.2     1  UNL1        0.0000
     12  C          5.1320    2.1580   -0.2290 C.2     1  UNL1        0.0000
@<TRIPOS>BOND
     1     5     4    1
     2     4     2    1
     3    10     8    1
     4    10    12    2
     5     8     7    2
     6    12    11    1
     7     2     3    2
     8     2     1    1
     9     7     6    1
    10     7     9    1
    11     1     6    1
    12    11     9    2
