MODEL 1
REMARK VINA RESULT:      -7.3      0.000      0.000
REMARK SMILES O=C(O)CCc1ccccc1
REMARK SMILES IDX 4 1 2 2 1 3 3 4 5 6 6 7 7 8 11 9 8 10 10 11 9 12
REMARK H PARENT 3 5
REMARK Flexibility Score: inf
ROOT
ATOM      1  C   UNL     1       8.460  -0.640  -2.168  1.00  0.00     0.127 C 
ENDROOT
BRANCH   1   2
ATOM      2  C   UNL     1       8.467  -1.903  -2.926  1.00  0.00     0.303 C 
ATOM      3  O   UNL     1       9.555  -2.504  -3.091  1.00  0.00    -0.252 OA
BRANCH   2   4
ATOM      4  O   UNL     1       7.305  -2.433  -3.453  1.00  0.00    -0.481 OA
ATOM      5  H   UNL     1       7.257  -2.910  -4.372  1.00  0.00     0.296 HD
ENDBRANCH   2   4
ENDBRANCH   1   2
BRANCH   1   6
ATOM      6  C   UNL     1       7.022  -0.136  -2.149  1.00  0.00     0.047 C 
BRANCH   6   7
ATOM      7  C   UNL     1       6.492  -0.017  -0.779  1.00  0.00    -0.047 A 
ATOM      8  C   UNL     1       5.848   1.162  -0.427  1.00  0.00     0.004 A 
ATOM      9  C   UNL     1       6.589  -0.986   0.186  1.00  0.00     0.004 A 
ATOM     10  C   UNL     1       5.339   1.315   0.861  1.00  0.00     0.000 A 
ATOM     11  C   UNL     1       6.095  -0.865   1.470  1.00  0.00     0.000 A 
ATOM     12  C   UNL     1       5.461   0.319   1.791  1.00  0.00     0.000 A 
ENDBRANCH   6   7
ENDBRANCH   1   6
TORSDOF 4
ENDMDL
MODEL 2
REMARK VINA RESULT:      -7.2      0.146      1.730
REMARK SMILES O=C(O)CCc1ccccc1
REMARK SMILES IDX 4 1 2 2 1 3 3 4 5 6 6 7 7 8 11 9 8 10 10 11 9 12
REMARK H PARENT 3 5
REMARK Flexibility Score: inf
ROOT
ATOM      1  C   UNL     1       8.430  -0.651  -2.109  1.00  0.00     0.127 C 
ENDROOT
BRANCH   1   2
ATOM      2  C   UNL     1       8.410  -1.903  -2.886  1.00  0.00     0.303 C 
ATOM      3  O   UNL     1       7.304  -2.395  -3.213  1.00  0.00    -0.252 OA
BRANCH   2   4
ATOM      4  O   UNL     1       9.580  -2.538  -3.258  1.00  0.00    -0.481 OA
ATOM      5  H   UNL     1       9.705  -3.567  -3.233  1.00  0.00     0.296 HD
ENDBRANCH   2   4
ENDBRANCH   1   2
BRANCH   1   6
ATOM      6  C   UNL     1       7.022  -0.069  -2.160  1.00  0.00     0.047 C 
BRANCH   6   7
ATOM      7  C   UNL     1       6.460   0.144  -0.815  1.00  0.00    -0.047 A 
ATOM      8  C   UNL     1       6.587  -0.879   0.117  1.00  0.00     0.004 A 
ATOM      9  C   UNL     1       5.811   1.281  -0.406  1.00  0.00     0.004 A 
ATOM     10  C   UNL     1       6.062  -0.717   1.398  1.00  0.00     0.000 A 
ATOM     11  C   UNL     1       5.282   1.471   0.855  1.00  0.00     0.000 A 
ATOM     12  C   UNL     1       5.422   0.436   1.758  1.00  0.00     0.000 A 
ENDBRANCH   6   7
ENDBRANCH   1   6
TORSDOF 4
ENDMDL
MODEL 3
REMARK VINA RESULT:      -6.7      3.391      5.093
REMARK SMILES O=C(O)CCc1ccccc1
REMARK SMILES IDX 4 1 2 2 1 3 3 4 5 6 6 7 7 8 11 9 8 10 10 11 9 12
REMARK H PARENT 3 5
REMARK Flexibility Score: inf
ROOT
ATOM      1  C   UNL     1       4.974   1.781   0.703  1.00  0.00     0.127 C 
ENDROOT
BRANCH   1   2
ATOM      2  C   UNL     1       4.464   1.122   1.918  1.00  0.00     0.303 C 
ATOM      3  O   UNL     1       5.161   0.233   2.462  1.00  0.00    -0.252 OA
BRANCH   2   4
ATOM      4  O   UNL     1       3.243   1.467   2.466  1.00  0.00    -0.481 OA
ATOM      5  H   UNL     1       2.971   2.441   2.692  1.00  0.00     0.296 HD
ENDBRANCH   2   4
ENDBRANCH   1   2
BRANCH   1   6
ATOM      6  C   UNL     1       6.494   1.815   0.815  1.00  0.00     0.047 C 
BRANCH   6   7
ATOM      7  C   UNL     1       7.149   1.083  -0.284  1.00  0.00    -0.047 A 
ATOM      8  C   UNL     1       6.372   0.226  -1.053  1.00  0.00     0.004 A 
ATOM      9  C   UNL     1       8.478   1.178  -0.608  1.00  0.00     0.004 A 
ATOM     10  C   UNL     1       6.956  -0.488  -2.097  1.00  0.00     0.000 A 
ATOM     11  C   UNL     1       9.086   0.484  -1.635  1.00  0.00     0.000 A 
ATOM     12  C   UNL     1       8.289  -0.361  -2.382  1.00  0.00     0.000 A 
ENDBRANCH   6   7
ENDBRANCH   1   6
TORSDOF 4
ENDMDL
MODEL 4
REMARK VINA RESULT:      -6.5      2.008      2.325
REMARK SMILES O=C(O)CCc1ccccc1
REMARK SMILES IDX 4 1 2 2 1 3 3 4 5 6 6 7 7 8 11 9 8 10 10 11 9 12
REMARK H PARENT 3 5
REMARK Flexibility Score: inf
ROOT
ATOM      1  C   UNL     1       8.288   0.449  -1.911  1.00  0.00     0.127 C 
ENDROOT
BRANCH   1   2
ATOM      2  C   UNL     1       9.489   0.417  -1.058  1.00  0.00     0.303 C 
ATOM      3  O   UNL     1       9.525  -0.384  -0.094  1.00  0.00    -0.252 OA
BRANCH   2   4
ATOM      4  O   UNL     1      10.567   1.246  -1.301  1.00  0.00    -0.481 OA
ATOM      5  H   UNL     1      10.808   1.613  -2.241  1.00  0.00     0.296 HD
ENDBRANCH   2   4
ENDBRANCH   1   2
BRANCH   1   6
ATOM      6  C   UNL     1       7.293  -0.545  -1.323  1.00  0.00     0.047 C 
BRANCH   6   7
ATOM      7  C   UNL     1       6.439   0.069  -0.291  1.00  0.00    -0.047 A 
ATOM      8  C   UNL     1       5.869   1.307  -0.566  1.00  0.00     0.004 A 
ATOM      9  C   UNL     1       6.162  -0.487   0.931  1.00  0.00     0.004 A 
ATOM     10  C   UNL     1       5.060   1.922   0.387  1.00  0.00     0.000 A 
ATOM     11  C   UNL     1       5.364   0.097   1.895  1.00  0.00     0.000 A 
ATOM     12  C   UNL     1       4.813   1.328   1.595  1.00  0.00     0.000 A 
ENDBRANCH   6   7
ENDBRANCH   1   6
TORSDOF 4
ENDMDL
MODEL 5
REMARK VINA RESULT:      -6.5      1.887      2.847
REMARK SMILES O=C(O)CCc1ccccc1
REMARK SMILES IDX 4 1 2 2 1 3 3 4 5 6 6 7 7 8 11 9 8 10 10 11 9 12
REMARK H PARENT 3 5
REMARK Flexibility Score: inf
ROOT
ATOM      1  C   UNL     1       8.316  -1.526   0.969  1.00  0.00     0.127 C 
ENDROOT
BRANCH   1   2
ATOM      2  C   UNL     1       8.528  -2.796   0.252  1.00  0.00     0.303 C 
ATOM      3  O   UNL     1       9.113  -3.734   0.844  1.00  0.00    -0.252 OA
BRANCH   2   4
ATOM      4  O   UNL     1       8.096  -2.970  -1.049  1.00  0.00    -0.481 OA
ATOM      5  H   UNL     1       8.702  -3.323  -1.812  1.00  0.00     0.296 HD
ENDBRANCH   2   4
ENDBRANCH   1   2
BRANCH   1   6
ATOM      6  C   UNL     1       6.830  -1.441   1.299  1.00  0.00     0.047 C 
BRANCH   6   7
ATOM      7  C   UNL     1       6.222  -0.192   0.805  1.00  0.00    -0.047 A 
ATOM      8  C   UNL     1       6.466   0.177  -0.512  1.00  0.00     0.004 A 
ATOM      9  C   UNL     1       5.433   0.645   1.551  1.00  0.00     0.004 A 
ATOM     10  C   UNL     1       5.913   1.355  -1.013  1.00  0.00     0.000 A 
ATOM     11  C   UNL     1       4.871   1.816   1.084  1.00  0.00     0.000 A 
ATOM     12  C   UNL     1       5.132   2.158  -0.229  1.00  0.00     0.000 A 
ENDBRANCH   6   7
ENDBRANCH   1   6
TORSDOF 4
ENDMDL
