@<TRIPOS>MOLECULE
/home/cewinharhar/GITHUB/reincatalyze/data/processed/docking_pred/2023-Apr-25-1829_maxeplen10_maxtrainstep200_exh32_gamma099_lrac3e-4_lrcr1e-3/306d1dfeb5e1085b4f3e24b09348dc81ae645662_ligand_2.pdbqt
 12 12 0 0 0
SMALL
GASTEIGER

@<TRIPOS>ATOM
      1  C          8.4600   -0.6400   -2.1680 C.3     1  UNL1        0.1270
      2  C          8.4670   -1.9030   -2.9260 C.2     1  UNL1        0.3030
      3  O          9.5550   -2.5040   -3.0910 O.2     1  UNL1       -0.2520
      4  O          7.3050   -2.4330   -3.4530 O.3     1  UNL1       -0.4810
      5  H          7.2570   -2.9100   -4.3720 H       1  UNL1        0.2960
      6  C          7.0220   -0.1360   -2.1490 C.3     1  UNL1        0.0470
      7  C          6.4920   -0.0170   -0.7790 C.2     1  UNL1       -0.0470
      8  C          5.8480    1.1620   -0.4270 C.2     1  UNL1        0.0040
      9  C          6.5890   -0.9860    0.1860 C.2     1  UNL1        0.0040
     10  C          5.3390    1.3150    0.8610 C.2     1  UNL1        0.0000
     11  C          6.0950   -0.8650    1.4700 C.2     1  UNL1        0.0000
     12  C          5.4610    0.3190    1.7910 C.2     1  UNL1        0.0000
@<TRIPOS>BOND
     1     5     4    1
     2     4     2    1
     3     3     2    2
     4     2     1    1
     5     1     6    1
     6     6     7    1
     7     7     8    2
     8     7     9    1
     9     8    10    1
    10     9    11    2
    11    10    12    2
    12    11    12    1
