@<TRIPOS>MOLECULE
/home/cewinharhar/GITHUB/reincatalyze/data/processed/docking_pred/2023-Apr-25-1829_maxeplen10_maxtrainstep200_exh32_gamma099_lrac3e-4_lrcr1e-3/31018d4d3337f577513d0037205f1d699057d88b_ligand_2.pdbqt
 12 12 0 0 0
SMALL
GASTEIGER

@<TRIPOS>ATOM
      1  C          4.9680    1.7710    0.7150 C.3     1  UNL1        0.1270
      2  C          4.4530    1.1230    1.9330 C.2     1  UNL1        0.3030
      3  O          5.1440    0.2340    2.4840 O.2     1  UNL1       -0.2520
      4  O          3.2320    1.4750    2.4750 O.3     1  UNL1       -0.4810
      5  H          2.4080    1.7420    1.9050 H       1  UNL1        0.2960
      6  C          6.4880    1.7980    0.8300 C.3     1  UNL1        0.0470
      7  C          7.1430    1.0920   -0.2850 C.2     1  UNL1       -0.0470
      8  C          6.3680    0.2430   -1.0660 C.2     1  UNL1        0.0040
      9  C          8.4700    1.2010   -0.6130 C.2     1  UNL1        0.0040
     10  C          6.9530   -0.4480   -2.1260 C.2     1  UNL1        0.0000
     11  C          9.0780    0.5310   -1.6560 C.2     1  UNL1        0.0000
     12  C          8.2830   -0.3060   -2.4140 C.2     1  UNL1        0.0000
@<TRIPOS>BOND
     1    12    10    2
     2    12    11    1
     3    10     8    1
     4    11     9    2
     5     8     7    2
     6     9     7    1
     7     7     6    1
     8     1     6    1
     9     1     2    1
    10     5     4    1
    11     2     4    1
    12     2     3    2
