@<TRIPOS>MOLECULE
/home/cewinharhar/GITHUB/reincatalyze/data/processed/docking_pred/2023-Apr-25-1829_maxeplen10_maxtrainstep200_exh32_gamma099_lrac3e-4_lrcr1e-3/31018d4d3337f577513d0037205f1d699057d88b_ligand_2.pdbqt
 12 12 0 0 0
SMALL
GASTEIGER

@<TRIPOS>ATOM
      1  C          8.4800   -0.6980   -2.0840 C.3     1  UNL1        0.1270
      2  C          8.4720   -1.9310   -2.8920 C.2     1  UNL1        0.3030
      3  O          9.5580   -2.5160   -3.1150 O.2     1  UNL1       -0.2520
      4  O          7.2970   -2.4490   -3.4030 O.3     1  UNL1       -0.4810
      5  H          6.3750   -2.3430   -2.9410 H       1  UNL1        0.2960
      6  C          7.0780   -0.1030   -2.1600 C.3     1  UNL1        0.0470
      7  C          6.4950    0.1170   -0.8250 C.2     1  UNL1       -0.0470
      8  C          6.6340   -0.8890    0.1230 C.2     1  UNL1        0.0040
      9  C          5.8150    1.2450   -0.4420 C.2     1  UNL1        0.0040
     10  C          6.0900   -0.7200    1.3950 C.2     1  UNL1        0.0000
     11  C          5.2660    1.4420    0.8090 C.2     1  UNL1        0.0000
     12  C          5.4190    0.4240    1.7300 C.2     1  UNL1        0.0000
@<TRIPOS>BOND
     1     4     5    1
     2     4     2    1
     3     3     2    2
     4     2     1    1
     5     6     1    1
     6     6     7    1
     7     7     9    2
     8     7     8    1
     9     9    11    1
    10     8    10    2
    11    11    12    2
    12    10    12    1
