@<TRIPOS>MOLECULE
/home/cewinharhar/GITHUB/reincatalyze/data/processed/docking_pred/2023-Apr-25-1829_maxeplen10_maxtrainstep200_exh32_gamma099_lrac3e-4_lrcr1e-3/31018d4d3337f577513d0037205f1d699057d88b_ligand_2.pdbqt
 12 12 0 0 0
SMALL
GASTEIGER

@<TRIPOS>ATOM
      1  C          8.3400   -1.4980    0.8890 C.3     1  UNL1        0.1270
      2  C          8.5360   -2.7960    0.2190 C.2     1  UNL1        0.3030
      3  O          9.0920   -3.7250    0.8510 O.2     1  UNL1       -0.2520
      4  O          8.1200   -3.0050   -1.0820 O.3     1  UNL1       -0.4810
      5  H          8.7150   -3.4420   -1.8100 H       1  UNL1        0.2960
      6  C          6.8680   -1.4120    1.2760 C.3     1  UNL1        0.0470
      7  C          6.2380   -0.1690    0.7960 C.2     1  UNL1       -0.0470
      8  C          6.4670    0.2140   -0.5200 C.2     1  UNL1        0.0040
      9  C          5.4420    0.6510    1.5540 C.2     1  UNL1        0.0040
     10  C          5.8940    1.3860   -1.0080 C.2     1  UNL1        0.0000
     11  C          4.8610    1.8180    1.0990 C.2     1  UNL1        0.0000
     12  C          5.1060    2.1730   -0.2130 C.2     1  UNL1        0.0000
@<TRIPOS>BOND
     1     5     4    1
     2     4     2    1
     3    10     8    1
     4    10    12    2
     5     8     7    2
     6    12    11    1
     7     2     3    2
     8     2     1    1
     9     7     6    1
    10     7     9    1
    11     1     6    1
    12    11     9    2
