@<TRIPOS>MOLECULE
/home/cewinharhar/GITHUB/reincatalyze/data/processed/docking_pred/2023-Apr-25-1829_maxeplen10_maxtrainstep200_exh32_gamma099_lrac3e-4_lrcr1e-3/31018d4d3337f577513d0037205f1d699057d88b_ligand_2.pdbqt
 12 12 0 0 0
SMALL
GASTEIGER

@<TRIPOS>ATOM
      1  C          5.3320    2.8360    0.0820 C.3     1  UNL1        0.1270
      2  C          6.1800    3.7570    0.8590 C.2     1  UNL1        0.3030
      3  O          6.2590    3.6050    2.1000 O.2     1  UNL1       -0.2520
      4  O          6.8860    4.7750    0.2460 O.3     1  UNL1       -0.4810
      5  H          6.7250    5.0760   -0.7330 H       1  UNL1        0.2960
      6  C          5.2980    1.5130    0.8370 C.3     1  UNL1        0.0470
      7  C          6.0830    0.4660    0.1590 C.2     1  UNL1       -0.0470
      8  C          6.3130    0.6020   -1.2050 C.2     1  UNL1        0.0040
      9  C          6.6050   -0.6440    0.7710 C.2     1  UNL1        0.0040
     10  C          7.0460   -0.3710   -1.8830 C.2     1  UNL1        0.0000
     11  C          7.3350   -1.6240    0.1270 C.2     1  UNL1        0.0000
     12  C          7.5460   -1.4630   -1.2280 C.2     1  UNL1        0.0000
@<TRIPOS>BOND
     1    10    12    2
     2    10     8    1
     3    12    11    1
     4     8     7    2
     5     5     4    1
     6     1     6    1
     7     1     2    1
     8    11     9    2
     9     7     9    1
    10     7     6    1
    11     4     2    1
    12     2     3    2
