@<TRIPOS>MOLECULE
/home/cewinharhar/GITHUB/reincatalyze/data/processed/docking_pred/2023-Apr-25-1829_maxeplen10_maxtrainstep200_exh32_gamma099_lrac3e-4_lrcr1e-3/31018d4d3337f577513d0037205f1d699057d88b_ligand_2.pdbqt
 12 12 0 0 0
SMALL
GASTEIGER

@<TRIPOS>ATOM
      1  C          8.4120   -0.6530   -2.1140 C.3     1  UNL1        0.1270
      2  C          8.3890   -1.9090   -2.8840 C.2     1  UNL1        0.3030
      3  O          7.2830   -2.3860   -3.2310 O.2     1  UNL1       -0.2520
      4  O          9.5560   -2.5630   -3.2290 O.3     1  UNL1       -0.4810
      5  H         10.2450   -2.1860   -3.9060 H       1  UNL1        0.2960
      6  C          6.9850   -0.1150   -2.0910 C.3     1  UNL1        0.0470
      7  C          6.4560   -0.0000   -0.7200 C.2     1  UNL1       -0.0470
      8  C          5.8100    1.1780   -0.3660 C.2     1  UNL1        0.0040
      9  C          6.5580   -0.9690    0.2440 C.2     1  UNL1        0.0040
     10  C          5.3020    1.3270    0.9230 C.2     1  UNL1        0.0000
     11  C          6.0650   -0.8520    1.5290 C.2     1  UNL1        0.0000
     12  C          5.4280    0.3300    1.8520 C.2     1  UNL1        0.0000
@<TRIPOS>BOND
     1     5     4    1
     2     3     2    2
     3     4     2    1
     4     2     1    1
     5     1     6    1
     6     6     7    1
     7     7     8    2
     8     7     9    1
     9     8    10    1
    10     9    11    2
    11    10    12    2
    12    11    12    1
