@<TRIPOS>MOLECULE
/home/cewinharhar/GITHUB/reincatalyze/data/processed/docking_pred/2023-Apr-25-1829_maxeplen10_maxtrainstep200_exh32_gamma099_lrac3e-4_lrcr1e-3/31638bda67923b1bb66f4f033a77b51352de91e4_ligand_2.pdbqt
 12 12 0 0 0
SMALL
GASTEIGER

@<TRIPOS>ATOM
      1  C          5.4520    2.9070   -0.0060 C.3     1  UNL1        0.1270
      2  C          6.2300    3.8610    0.8050 C.2     1  UNL1        0.3030
      3  O          6.8610    4.7750    0.2230 O.2     1  UNL1       -0.2520
      4  O          6.2740    3.7670    2.1820 O.3     1  UNL1       -0.4810
      5  H          5.7800    3.0330    2.7230 H       1  UNL1        0.2960
      6  C          4.9000    1.8540    0.9490 C.3     1  UNL1        0.0470
      7  C          5.6990    0.6160    0.9310 C.2     1  UNL1       -0.0470
      8  C          5.7570   -0.1410    2.0950 C.2     1  UNL1        0.0040
      9  C          6.4010    0.1490   -0.1500 C.2     1  UNL1        0.0040
     10  C          6.5080   -1.3150    2.1200 C.2     1  UNL1        0.0000
     11  C          7.1520   -1.0090   -0.1570 C.2     1  UNL1        0.0000
     12  C          7.1920   -1.7400    1.0140 C.2     1  UNL1        0.0000
@<TRIPOS>BOND
     1    11     9    1
     2    11    12    2
     3     9     7    2
     4     1     2    1
     5     1     6    1
     6     3     2    2
     7     2     4    1
     8     7     6    1
     9     7     8    1
    10    12    10    1
    11     8    10    2
    12     4     5    1
