@<TRIPOS>MOLECULE
/home/cewinharhar/GITHUB/reincatalyze/data/processed/docking_pred/2023-Apr-25-1829_maxeplen10_maxtrainstep200_exh32_gamma099_lrac3e-4_lrcr1e-3/31638bda67923b1bb66f4f033a77b51352de91e4_ligand_2.pdbqt
 12 12 0 0 0
SMALL
GASTEIGER

@<TRIPOS>ATOM
      1  C          8.4930   -0.6040   -2.2050 C.3     1  UNL1        0.1270
      2  C          8.4860   -1.8950   -2.9160 C.2     1  UNL1        0.3030
      3  O          9.5700   -2.5030   -3.0780 O.2     1  UNL1       -0.2520
      4  O          7.3140   -2.4420   -3.4020 O.3     1  UNL1       -0.4810
      5  H          6.8420   -3.2590   -2.9720 H       1  UNL1        0.2960
      6  C          7.0560   -0.0980   -2.1810 C.3     1  UNL1        0.0470
      7  C          6.5250    0.0030   -0.8100 C.2     1  UNL1       -0.0470
      8  C          5.8930    1.1840   -0.4380 C.2     1  UNL1        0.0040
      9  C          6.6110   -0.9820    0.1400 C.2     1  UNL1        0.0040
     10  C          5.3840    1.3190    0.8520 C.2     1  UNL1        0.0000
     11  C          6.1170   -0.8780    1.4250 C.2     1  UNL1        0.0000
     12  C          5.4950    0.3070    1.7650 C.2     1  UNL1        0.0000
@<TRIPOS>BOND
     1     4     5    1
     2     4     2    1
     3     3     2    2
     4     2     1    1
     5     1     6    1
     6     6     7    1
     7     7     8    2
     8     7     9    1
     9     8    10    1
    10     9    11    2
    11    10    12    2
    12    11    12    1
