@<TRIPOS>MOLECULE
/home/cewinharhar/GITHUB/reincatalyze/data/processed/docking_pred/2023-Apr-25-1829_maxeplen10_maxtrainstep200_exh32_gamma099_lrac3e-4_lrcr1e-3/31638bda67923b1bb66f4f033a77b51352de91e4_ligand_2.pdbqt
 12 12 0 0 0
SMALL
GASTEIGER

@<TRIPOS>ATOM
      1  C          8.2880   -0.8990   -1.8720 C.3     1  UNL1        0.1270
      2  C          8.4170   -1.9840   -2.8590 C.2     1  UNL1        0.3030
      3  O          9.5570   -2.4370   -3.1170 O.2     1  UNL1       -0.2520
      4  O          7.3100   -2.5100   -3.4990 O.3     1  UNL1       -0.4810
      5  H          6.3680   -2.5550   -3.0700 H       1  UNL1        0.2960
      6  C          7.4060   -1.4210   -0.7430 C.3     1  UNL1        0.0470
      7  C          6.5830   -0.3560   -0.1430 C.2     1  UNL1       -0.0470
      8  C          6.2470    0.7350   -0.9350 C.2     1  UNL1        0.0040
      9  C          6.1220   -0.3540    1.1480 C.2     1  UNL1        0.0040
     10  C          5.4740    1.7650   -0.4020 C.2     1  UNL1        0.0000
     11  C          5.3550    0.6500    1.7050 C.2     1  UNL1        0.0000
     12  C          5.0380    1.7230    0.8940 C.2     1  UNL1        0.0000
@<TRIPOS>BOND
     1     4     5    1
     2     4     2    1
     3     3     2    2
     4     2     1    1
     5     1     6    1
     6     8    10    1
     7     8     7    2
     8     6     7    1
     9    10    12    2
    10     7     9    1
    11    12    11    1
    12     9    11    2
