MODEL 1
REMARK VINA RESULT:      -7.3      0.000      0.000
REMARK SMILES O=C(O)CCc1ccccc1
REMARK SMILES IDX 4 1 2 2 1 3 3 4 5 6 6 7 7 8 11 9 8 10 10 11 9 12
REMARK H PARENT 3 5
REMARK Flexibility Score: inf
ROOT
ATOM      1  C   UNL     1       8.449  -0.754  -2.006  1.00  0.00     0.127 C 
ENDROOT
BRANCH   1   2
ATOM      2  C   UNL     1       8.458  -1.950  -2.867  1.00  0.00     0.303 C 
ATOM      3  O   UNL     1       9.545  -2.539  -3.073  1.00  0.00    -0.252 OA
BRANCH   2   4
ATOM      4  O   UNL     1       7.298  -2.430  -3.444  1.00  0.00    -0.481 OA
ATOM      5  H   UNL     1       7.282  -2.994  -4.314  1.00  0.00     0.296 HD
ENDBRANCH   2   4
ENDBRANCH   1   2
BRANCH   1   6
ATOM      6  C   UNL     1       7.055  -0.143  -2.102  1.00  0.00     0.047 C 
BRANCH   6   7
ATOM      7  C   UNL     1       6.464   0.104  -0.775  1.00  0.00    -0.047 A 
ATOM      8  C   UNL     1       6.586  -0.889   0.190  1.00  0.00     0.004 A 
ATOM      9  C   UNL     1       5.792   1.243  -0.415  1.00  0.00     0.004 A 
ATOM     10  C   UNL     1       6.034  -0.695   1.455  1.00  0.00     0.000 A 
ATOM     11  C   UNL     1       5.235   1.465   0.829  1.00  0.00     0.000 A 
ATOM     12  C   UNL     1       5.371   0.460   1.767  1.00  0.00     0.000 A 
ENDBRANCH   6   7
ENDBRANCH   1   6
TORSDOF 4
ENDMDL
MODEL 2
REMARK VINA RESULT:      -7.3      0.150      1.437
REMARK SMILES O=C(O)CCc1ccccc1
REMARK SMILES IDX 4 1 2 2 1 3 3 4 5 6 6 7 7 8 11 9 8 10 10 11 9 12
REMARK H PARENT 3 5
REMARK Flexibility Score: inf
ROOT
ATOM      1  C   UNL     1       8.493  -0.604  -2.205  1.00  0.00     0.127 C 
ENDROOT
BRANCH   1   2
ATOM      2  C   UNL     1       8.486  -1.895  -2.916  1.00  0.00     0.303 C 
ATOM      3  O   UNL     1       9.570  -2.503  -3.078  1.00  0.00    -0.252 OA
BRANCH   2   4
ATOM      4  O   UNL     1       7.314  -2.442  -3.402  1.00  0.00    -0.481 OA
ATOM      5  H   UNL     1       6.842  -3.259  -2.972  1.00  0.00     0.296 HD
ENDBRANCH   2   4
ENDBRANCH   1   2
BRANCH   1   6
ATOM      6  C   UNL     1       7.056  -0.098  -2.181  1.00  0.00     0.047 C 
BRANCH   6   7
ATOM      7  C   UNL     1       6.525   0.003  -0.810  1.00  0.00    -0.047 A 
ATOM      8  C   UNL     1       5.893   1.184  -0.438  1.00  0.00     0.004 A 
ATOM      9  C   UNL     1       6.611  -0.982   0.140  1.00  0.00     0.004 A 
ATOM     10  C   UNL     1       5.384   1.319   0.852  1.00  0.00     0.000 A 
ATOM     11  C   UNL     1       6.117  -0.878   1.425  1.00  0.00     0.000 A 
ATOM     12  C   UNL     1       5.495   0.307   1.765  1.00  0.00     0.000 A 
ENDBRANCH   6   7
ENDBRANCH   1   6
TORSDOF 4
ENDMDL
MODEL 3
REMARK VINA RESULT:      -7.2      0.591      1.571
REMARK SMILES O=C(O)CCc1ccccc1
REMARK SMILES IDX 4 1 2 2 1 3 3 4 5 6 6 7 7 8 11 9 8 10 10 11 9 12
REMARK H PARENT 3 5
REMARK Flexibility Score: inf
ROOT
ATOM      1  C   UNL     1       8.288  -0.899  -1.872  1.00  0.00     0.127 C 
ENDROOT
BRANCH   1   2
ATOM      2  C   UNL     1       8.417  -1.984  -2.859  1.00  0.00     0.303 C 
ATOM      3  O   UNL     1       9.557  -2.437  -3.117  1.00  0.00    -0.252 OA
BRANCH   2   4
ATOM      4  O   UNL     1       7.310  -2.510  -3.499  1.00  0.00    -0.481 OA
ATOM      5  H   UNL     1       6.368  -2.555  -3.070  1.00  0.00     0.296 HD
ENDBRANCH   2   4
ENDBRANCH   1   2
BRANCH   1   6
ATOM      6  C   UNL     1       7.406  -1.421  -0.743  1.00  0.00     0.047 C 
BRANCH   6   7
ATOM      7  C   UNL     1       6.583  -0.356  -0.143  1.00  0.00    -0.047 A 
ATOM      8  C   UNL     1       6.247   0.735  -0.935  1.00  0.00     0.004 A 
ATOM      9  C   UNL     1       6.122  -0.354   1.148  1.00  0.00     0.004 A 
ATOM     10  C   UNL     1       5.474   1.765  -0.402  1.00  0.00     0.000 A 
ATOM     11  C   UNL     1       5.355   0.650   1.705  1.00  0.00     0.000 A 
ATOM     12  C   UNL     1       5.038   1.723   0.894  1.00  0.00     0.000 A 
ENDBRANCH   6   7
ENDBRANCH   1   6
TORSDOF 4
ENDMDL
MODEL 4
REMARK VINA RESULT:      -6.8      3.389      5.092
REMARK SMILES O=C(O)CCc1ccccc1
REMARK SMILES IDX 4 1 2 2 1 3 3 4 5 6 6 7 7 8 11 9 8 10 10 11 9 12
REMARK H PARENT 3 5
REMARK Flexibility Score: inf
ROOT
ATOM      1  C   UNL     1       4.984   1.774   0.733  1.00  0.00     0.127 C 
ENDROOT
BRANCH   1   2
ATOM      2  C   UNL     1       4.457   1.107   1.938  1.00  0.00     0.303 C 
ATOM      3  O   UNL     1       5.141   0.207   2.479  1.00  0.00    -0.252 OA
BRANCH   2   4
ATOM      4  O   UNL     1       3.233   1.456   2.476  1.00  0.00    -0.481 OA
ATOM      5  H   UNL     1       2.733   2.333   2.242  1.00  0.00     0.296 HD
ENDBRANCH   2   4
ENDBRANCH   1   2
BRANCH   1   6
ATOM      6  C   UNL     1       6.503   1.780   0.853  1.00  0.00     0.047 C 
BRANCH   6   7
ATOM      7  C   UNL     1       7.152   1.085  -0.273  1.00  0.00    -0.047 A 
ATOM      8  C   UNL     1       6.380   0.220  -1.040  1.00  0.00     0.004 A 
ATOM      9  C   UNL     1       8.470   1.220  -0.625  1.00  0.00     0.004 A 
ATOM     10  C   UNL     1       6.959  -0.460  -2.109  1.00  0.00     0.000 A 
ATOM     11  C   UNL     1       9.073   0.560  -1.678  1.00  0.00     0.000 A 
ATOM     12  C   UNL     1       8.281  -0.293  -2.421  1.00  0.00     0.000 A 
ENDBRANCH   6   7
ENDBRANCH   1   6
TORSDOF 4
ENDMDL
MODEL 5
REMARK VINA RESULT:      -6.7      3.822      4.954
REMARK SMILES O=C(O)CCc1ccccc1
REMARK SMILES IDX 4 1 2 2 1 3 3 4 5 6 6 7 7 8 11 9 8 10 10 11 9 12
REMARK H PARENT 3 5
REMARK Flexibility Score: inf
ROOT
ATOM      1  C   UNL     1       5.452   2.907  -0.006  1.00  0.00     0.127 C 
ENDROOT
BRANCH   1   2
ATOM      2  C   UNL     1       6.230   3.861   0.805  1.00  0.00     0.303 C 
ATOM      3  O   UNL     1       6.861   4.775   0.223  1.00  0.00    -0.252 OA
BRANCH   2   4
ATOM      4  O   UNL     1       6.274   3.767   2.182  1.00  0.00    -0.481 OA
ATOM      5  H   UNL     1       5.780   3.033   2.723  1.00  0.00     0.296 HD
ENDBRANCH   2   4
ENDBRANCH   1   2
BRANCH   1   6
ATOM      6  C   UNL     1       4.900   1.854   0.949  1.00  0.00     0.047 C 
BRANCH   6   7
ATOM      7  C   UNL     1       5.699   0.616   0.931  1.00  0.00    -0.047 A 
ATOM      8  C   UNL     1       5.757  -0.141   2.095  1.00  0.00     0.004 A 
ATOM      9  C   UNL     1       6.401   0.149  -0.150  1.00  0.00     0.004 A 
ATOM     10  C   UNL     1       6.508  -1.315   2.120  1.00  0.00     0.000 A 
ATOM     11  C   UNL     1       7.152  -1.009  -0.157  1.00  0.00     0.000 A 
ATOM     12  C   UNL     1       7.192  -1.740   1.014  1.00  0.00     0.000 A 
ENDBRANCH   6   7
ENDBRANCH   1   6
TORSDOF 4
ENDMDL
