@<TRIPOS>MOLECULE
/home/cewinharhar/GITHUB/reincatalyze/data/processed/docking_pred/2023-Apr-25-1829_maxeplen10_maxtrainstep200_exh32_gamma099_lrac3e-4_lrcr1e-3/31638bda67923b1bb66f4f033a77b51352de91e4_ligand_2.pdbqt
 12 12 0 0 0
SMALL
GASTEIGER

@<TRIPOS>ATOM
      1  C          8.4490   -0.7540   -2.0060 C.3     1  UNL1        0.1270
      2  C          8.4580   -1.9500   -2.8670 C.2     1  UNL1        0.3030
      3  O          9.5450   -2.5390   -3.0730 O.2     1  UNL1       -0.2520
      4  O          7.2980   -2.4300   -3.4440 O.3     1  UNL1       -0.4810
      5  H          7.2820   -2.9940   -4.3140 H       1  UNL1        0.2960
      6  C          7.0550   -0.1430   -2.1020 C.3     1  UNL1        0.0470
      7  C          6.4640    0.1040   -0.7750 C.2     1  UNL1       -0.0470
      8  C          6.5860   -0.8890    0.1900 C.2     1  UNL1        0.0040
      9  C          5.7920    1.2430   -0.4150 C.2     1  UNL1        0.0040
     10  C          6.0340   -0.6950    1.4550 C.2     1  UNL1        0.0000
     11  C          5.2350    1.4650    0.8290 C.2     1  UNL1        0.0000
     12  C          5.3710    0.4600    1.7670 C.2     1  UNL1        0.0000
@<TRIPOS>BOND
     1     5     4    1
     2     4     2    1
     3     3     2    2
     4     2     1    1
     5     6     1    1
     6     6     7    1
     7     7     9    2
     8     7     8    1
     9     9    11    1
    10     8    10    2
    11    11    12    2
    12    10    12    1
