@<TRIPOS>MOLECULE
/home/cewinharhar/GITHUB/reincatalyze/data/processed/docking_pred/2023-Apr-25-1829_maxeplen10_maxtrainstep200_exh32_gamma099_lrac3e-4_lrcr1e-3/31638bda67923b1bb66f4f033a77b51352de91e4_ligand_2.pdbqt
 12 12 0 0 0
SMALL
GASTEIGER

@<TRIPOS>ATOM
      1  C          4.9840    1.7740    0.7330 C.3     1  UNL1        0.1270
      2  C          4.4570    1.1070    1.9380 C.2     1  UNL1        0.3030
      3  O          5.1410    0.2070    2.4790 O.2     1  UNL1       -0.2520
      4  O          3.2330    1.4560    2.4760 O.3     1  UNL1       -0.4810
      5  H          2.7330    2.3330    2.2420 H       1  UNL1        0.2960
      6  C          6.5030    1.7800    0.8530 C.3     1  UNL1        0.0470
      7  C          7.1520    1.0850   -0.2730 C.2     1  UNL1       -0.0470
      8  C          6.3800    0.2200   -1.0400 C.2     1  UNL1        0.0040
      9  C          8.4700    1.2200   -0.6250 C.2     1  UNL1        0.0040
     10  C          6.9590   -0.4600   -2.1090 C.2     1  UNL1        0.0000
     11  C          9.0730    0.5600   -1.6780 C.2     1  UNL1        0.0000
     12  C          8.2810   -0.2930   -2.4210 C.2     1  UNL1        0.0000
@<TRIPOS>BOND
     1    12    10    2
     2    12    11    1
     3    10     8    1
     4    11     9    2
     5     8     7    2
     6     9     7    1
     7     7     6    1
     8     1     6    1
     9     1     2    1
    10     2     4    1
    11     2     3    2
    12     5     4    1
