@<TRIPOS>MOLECULE
/home/cewinharhar/GITHUB/reincatalyze/data/processed/docking_pred/2023-Apr-25-1829_maxeplen10_maxtrainstep200_exh32_gamma099_lrac3e-4_lrcr1e-3/31de0aabf4a391366091aaa04775d5537fef7eaf_ligand_2.pdbqt
 12 12 0 0 0
SMALL
GASTEIGER

@<TRIPOS>ATOM
      1  C          8.4610   -0.5960   -2.2000 C.3     1  UNL1        0.1270
      2  C          8.4570   -1.8720   -2.9360 C.2     1  UNL1        0.3030
      3  O          9.5450   -2.4650   -3.1240 O.2     1  UNL1       -0.2520
      4  O          7.2850   -2.4220   -3.4170 O.3     1  UNL1       -0.4810
      5  H          6.3640   -1.9490   -3.3590 H       1  UNL1        0.2960
      6  C          7.0270   -0.0800   -2.1890 C.3     1  UNL1        0.0470
      7  C          6.4940    0.0530   -0.8210 C.2     1  UNL1       -0.0470
      8  C          5.8910    1.2540   -0.4690 C.2     1  UNL1        0.0040
      9  C          6.5520   -0.9210    0.1420 C.2     1  UNL1        0.0040
     10  C          5.3800    1.4200    0.8180 C.2     1  UNL1        0.0000
     11  C          6.0560   -0.7880    1.4230 C.2     1  UNL1        0.0000
     12  C          5.4630    0.4170    1.7450 C.2     1  UNL1        0.0000
@<TRIPOS>BOND
     1     4     5    1
     2     4     2    1
     3     3     2    2
     4     2     1    1
     5     1     6    1
     6     6     7    1
     7     7     8    2
     8     7     9    1
     9     8    10    1
    10     9    11    2
    11    10    12    2
    12    11    12    1
