@<TRIPOS>MOLECULE
/home/cewinharhar/GITHUB/reincatalyze/data/processed/docking_pred/2023-Apr-25-1829_maxeplen10_maxtrainstep200_exh32_gamma099_lrac3e-4_lrcr1e-3/31de0aabf4a391366091aaa04775d5537fef7eaf_ligand_2.pdbqt
 12 12 0 0 0
SMALL
GASTEIGER

@<TRIPOS>ATOM
      1  C          4.9940    1.7850    0.7200 C.3     1  UNL1        0.1270
      2  C          4.4720    1.1190    1.9270 C.2     1  UNL1        0.3030
      3  O          5.1630    0.2270    2.4720 O.2     1  UNL1       -0.2520
      4  O          3.2450    1.4590    2.4630 O.3     1  UNL1       -0.4810
      5  H          3.1320    1.9390    3.3750 H       1  UNL1        0.2960
      6  C          6.5150    1.7360    0.8040 C.3     1  UNL1        0.0470
      7  C          7.1090    0.9710   -0.3070 C.2     1  UNL1       -0.0470
      8  C          8.4290    1.2340   -0.6500 C.2     1  UNL1        0.0040
      9  C          6.4540    0.0150   -1.0390 C.2     1  UNL1        0.0040
     10  C          9.0240    0.5350   -1.6990 C.2     1  UNL1        0.0000
     11  C          7.0150   -0.6940   -2.0830 C.2     1  UNL1        0.0000
     12  C          8.3280   -0.4110   -2.4020 C.2     1  UNL1        0.0000
@<TRIPOS>BOND
     1    12    11    2
     2    12    10    1
     3    11     9    1
     4    10     8    2
     5     9     7    2
     6     8     7    1
     7     7     6    1
     8     1     6    1
     9     1     2    1
    10     2     4    1
    11     2     3    2
    12     4     5    1
