@<TRIPOS>MOLECULE
/home/cewinharhar/GITHUB/reincatalyze/data/processed/docking_pred/2023-Apr-25-1829_maxeplen10_maxtrainstep200_exh32_gamma099_lrac3e-4_lrcr1e-3/31de0aabf4a391366091aaa04775d5537fef7eaf_ligand_2.pdbqt
 12 12 0 0 0
SMALL
GASTEIGER

@<TRIPOS>ATOM
      1  C          8.4770   -0.7170   -2.0450 C.3     1  UNL1        0.1270
      2  C          8.4740   -1.9280   -2.8840 C.2     1  UNL1        0.3030
      3  O          9.5610   -2.5110   -3.1090 O.2     1  UNL1       -0.2520
      4  O          7.3030   -2.4300   -3.4200 O.3     1  UNL1       -0.4810
      5  H          7.1950   -3.4090   -3.7440 H       1  UNL1        0.2960
      6  C          7.0840   -0.1040   -2.1390 C.3     1  UNL1        0.0470
      7  C          6.4880    0.1260   -0.8110 C.2     1  UNL1       -0.0470
      8  C          6.6340   -0.8650    0.1520 C.2     1  UNL1        0.0040
      9  C          5.7890    1.2480   -0.4480 C.2     1  UNL1        0.0040
     10  C          6.0790   -0.6870    1.4180 C.2     1  UNL1        0.0000
     11  C          5.2280    1.4540    0.7970 C.2     1  UNL1        0.0000
     12  C          5.3880    0.4510    1.7330 C.2     1  UNL1        0.0000
@<TRIPOS>BOND
     1     5     4    1
     2     4     2    1
     3     3     2    2
     4     2     1    1
     5     6     1    1
     6     6     7    1
     7     7     9    2
     8     7     8    1
     9     9    11    1
    10     8    10    2
    11    11    12    2
    12    10    12    1
