@<TRIPOS>MOLECULE
/home/cewinharhar/GITHUB/reincatalyze/data/processed/docking_pred/2023-Apr-25-1829_maxeplen10_maxtrainstep200_exh32_gamma099_lrac3e-4_lrcr1e-3/31de0aabf4a391366091aaa04775d5537fef7eaf_ligand_2.pdbqt
 12 12 0 0 0
SMALL
GASTEIGER

@<TRIPOS>ATOM
      1  C          5.4960    2.8940   -0.0320 C.3     1  UNL1        0.1270
      2  C          6.2700    3.8220    0.8130 C.2     1  UNL1        0.3030
      3  O          6.8780    4.7730    0.2670 O.2     1  UNL1       -0.2520
      4  O          6.3350    3.6630    2.1840 O.3     1  UNL1       -0.4810
      5  H          5.6040    4.0030    2.8350 H       1  UNL1        0.2960
      6  C          4.9170    1.8270    0.8900 C.3     1  UNL1        0.0470
      7  C          5.7310    0.5980    0.8980 C.2     1  UNL1       -0.0470
      8  C          5.7860   -0.1410    2.0730 C.2     1  UNL1        0.0040
      9  C          6.4490    0.1260   -0.1700 C.2     1  UNL1        0.0040
     10  C          6.5500   -1.3060    2.1210 C.2     1  UNL1        0.0000
     11  C          7.2140   -1.0230   -0.1540 C.2     1  UNL1        0.0000
     12  C          7.2510   -1.7370    1.0280 C.2     1  UNL1        0.0000
@<TRIPOS>BOND
     1     9    11    1
     2     9     7    2
     3    11    12    2
     4     1     2    1
     5     1     6    1
     6     3     2    2
     7     2     4    1
     8     6     7    1
     9     7     8    1
    10    12    10    1
    11     8    10    2
    12     4     5    1
