MODEL 1
REMARK VINA RESULT:      -7.3      0.000      0.000
REMARK SMILES O=C(O)CCc1ccccc1
REMARK SMILES IDX 4 1 2 2 1 3 3 4 5 6 6 7 7 8 11 9 8 10 10 11 9 12
REMARK H PARENT 3 5
REMARK Flexibility Score: inf
ROOT
ATOM      1  C   UNL     1       8.477  -0.717  -2.045  1.00  0.00     0.127 C 
ENDROOT
BRANCH   1   2
ATOM      2  C   UNL     1       8.474  -1.928  -2.884  1.00  0.00     0.303 C 
ATOM      3  O   UNL     1       9.561  -2.511  -3.109  1.00  0.00    -0.252 OA
BRANCH   2   4
ATOM      4  O   UNL     1       7.303  -2.430  -3.420  1.00  0.00    -0.481 OA
ATOM      5  H   UNL     1       7.195  -3.409  -3.744  1.00  0.00     0.296 HD
ENDBRANCH   2   4
ENDBRANCH   1   2
BRANCH   1   6
ATOM      6  C   UNL     1       7.084  -0.104  -2.139  1.00  0.00     0.047 C 
BRANCH   6   7
ATOM      7  C   UNL     1       6.488   0.126  -0.811  1.00  0.00    -0.047 A 
ATOM      8  C   UNL     1       6.634  -0.865   0.152  1.00  0.00     0.004 A 
ATOM      9  C   UNL     1       5.789   1.248  -0.448  1.00  0.00     0.004 A 
ATOM     10  C   UNL     1       6.079  -0.687   1.418  1.00  0.00     0.000 A 
ATOM     11  C   UNL     1       5.228   1.454   0.797  1.00  0.00     0.000 A 
ATOM     12  C   UNL     1       5.388   0.451   1.733  1.00  0.00     0.000 A 
ENDBRANCH   6   7
ENDBRANCH   1   6
TORSDOF 4
ENDMDL
MODEL 2
REMARK VINA RESULT:      -7.3      0.106      1.431
REMARK SMILES O=C(O)CCc1ccccc1
REMARK SMILES IDX 4 1 2 2 1 3 3 4 5 6 6 7 7 8 11 9 8 10 10 11 9 12
REMARK H PARENT 3 5
REMARK Flexibility Score: inf
ROOT
ATOM      1  C   UNL     1       8.461  -0.596  -2.200  1.00  0.00     0.127 C 
ENDROOT
BRANCH   1   2
ATOM      2  C   UNL     1       8.457  -1.872  -2.936  1.00  0.00     0.303 C 
ATOM      3  O   UNL     1       9.545  -2.465  -3.124  1.00  0.00    -0.252 OA
BRANCH   2   4
ATOM      4  O   UNL     1       7.285  -2.422  -3.417  1.00  0.00    -0.481 OA
ATOM      5  H   UNL     1       6.364  -1.949  -3.359  1.00  0.00     0.296 HD
ENDBRANCH   2   4
ENDBRANCH   1   2
BRANCH   1   6
ATOM      6  C   UNL     1       7.027  -0.080  -2.189  1.00  0.00     0.047 C 
BRANCH   6   7
ATOM      7  C   UNL     1       6.494   0.053  -0.821  1.00  0.00    -0.047 A 
ATOM      8  C   UNL     1       5.891   1.254  -0.469  1.00  0.00     0.004 A 
ATOM      9  C   UNL     1       6.552  -0.921   0.142  1.00  0.00     0.004 A 
ATOM     10  C   UNL     1       5.380   1.420   0.818  1.00  0.00     0.000 A 
ATOM     11  C   UNL     1       6.056  -0.788   1.423  1.00  0.00     0.000 A 
ATOM     12  C   UNL     1       5.463   0.417   1.745  1.00  0.00     0.000 A 
ENDBRANCH   6   7
ENDBRANCH   1   6
TORSDOF 4
ENDMDL
MODEL 3
REMARK VINA RESULT:      -6.8      3.369      5.094
REMARK SMILES O=C(O)CCc1ccccc1
REMARK SMILES IDX 4 1 2 2 1 3 3 4 5 6 6 7 7 8 11 9 8 10 10 11 9 12
REMARK H PARENT 3 5
REMARK Flexibility Score: inf
ROOT
ATOM      1  C   UNL     1       4.994   1.785   0.720  1.00  0.00     0.127 C 
ENDROOT
BRANCH   1   2
ATOM      2  C   UNL     1       4.472   1.119   1.927  1.00  0.00     0.303 C 
ATOM      3  O   UNL     1       5.163   0.227   2.472  1.00  0.00    -0.252 OA
BRANCH   2   4
ATOM      4  O   UNL     1       3.245   1.459   2.463  1.00  0.00    -0.481 OA
ATOM      5  H   UNL     1       3.132   1.939   3.375  1.00  0.00     0.296 HD
ENDBRANCH   2   4
ENDBRANCH   1   2
BRANCH   1   6
ATOM      6  C   UNL     1       6.515   1.736   0.804  1.00  0.00     0.047 C 
BRANCH   6   7
ATOM      7  C   UNL     1       7.109   0.971  -0.307  1.00  0.00    -0.047 A 
ATOM      8  C   UNL     1       8.429   1.234  -0.650  1.00  0.00     0.004 A 
ATOM      9  C   UNL     1       6.454   0.015  -1.039  1.00  0.00     0.004 A 
ATOM     10  C   UNL     1       9.024   0.535  -1.699  1.00  0.00     0.000 A 
ATOM     11  C   UNL     1       7.015  -0.694  -2.083  1.00  0.00     0.000 A 
ATOM     12  C   UNL     1       8.328  -0.411  -2.402  1.00  0.00     0.000 A 
ENDBRANCH   6   7
ENDBRANCH   1   6
TORSDOF 4
ENDMDL
MODEL 4
REMARK VINA RESULT:      -6.7      3.827      4.932
REMARK SMILES O=C(O)CCc1ccccc1
REMARK SMILES IDX 4 1 2 2 1 3 3 4 5 6 6 7 7 8 11 9 8 10 10 11 9 12
REMARK H PARENT 3 5
REMARK Flexibility Score: inf
ROOT
ATOM      1  C   UNL     1       5.496   2.894  -0.032  1.00  0.00     0.127 C 
ENDROOT
BRANCH   1   2
ATOM      2  C   UNL     1       6.270   3.822   0.813  1.00  0.00     0.303 C 
ATOM      3  O   UNL     1       6.878   4.773   0.267  1.00  0.00    -0.252 OA
BRANCH   2   4
ATOM      4  O   UNL     1       6.335   3.663   2.184  1.00  0.00    -0.481 OA
ATOM      5  H   UNL     1       5.604   4.003   2.835  1.00  0.00     0.296 HD
ENDBRANCH   2   4
ENDBRANCH   1   2
BRANCH   1   6
ATOM      6  C   UNL     1       4.917   1.827   0.890  1.00  0.00     0.047 C 
BRANCH   6   7
ATOM      7  C   UNL     1       5.731   0.598   0.898  1.00  0.00    -0.047 A 
ATOM      8  C   UNL     1       5.786  -0.141   2.073  1.00  0.00     0.004 A 
ATOM      9  C   UNL     1       6.449   0.126  -0.170  1.00  0.00     0.004 A 
ATOM     10  C   UNL     1       6.550  -1.306   2.121  1.00  0.00     0.000 A 
ATOM     11  C   UNL     1       7.214  -1.023  -0.154  1.00  0.00     0.000 A 
ATOM     12  C   UNL     1       7.251  -1.737   1.028  1.00  0.00     0.000 A 
ENDBRANCH   6   7
ENDBRANCH   1   6
TORSDOF 4
ENDMDL
MODEL 5
REMARK VINA RESULT:      -6.5      3.671      5.123
REMARK SMILES O=C(O)CCc1ccccc1
REMARK SMILES IDX 4 1 2 2 1 3 3 4 5 6 6 7 7 8 11 9 8 10 10 11 9 12
REMARK H PARENT 3 5
REMARK Flexibility Score: inf
ROOT
ATOM      1  C   UNL     1       5.325   2.847   0.110  1.00  0.00     0.127 C 
ENDROOT
BRANCH   1   2
ATOM      2  C   UNL     1       6.185   3.768   0.874  1.00  0.00     0.303 C 
ATOM      3  O   UNL     1       6.268   3.627   2.117  1.00  0.00    -0.252 OA
BRANCH   2   4
ATOM      4  O   UNL     1       6.895   4.775   0.250  1.00  0.00    -0.481 OA
ATOM      5  H   UNL     1       7.929   4.782   0.170  1.00  0.00     0.296 HD
ENDBRANCH   2   4
ENDBRANCH   1   2
BRANCH   1   6
ATOM      6  C   UNL     1       5.281   1.532   0.879  1.00  0.00     0.047 C 
BRANCH   6   7
ATOM      7  C   UNL     1       6.073   0.477   0.223  1.00  0.00    -0.047 A 
ATOM      8  C   UNL     1       6.323   0.598  -1.139  1.00  0.00     0.004 A 
ATOM      9  C   UNL     1       6.583  -0.629   0.853  1.00  0.00     0.004 A 
ATOM     10  C   UNL     1       7.063  -0.382  -1.796  1.00  0.00     0.000 A 
ATOM     11  C   UNL     1       7.319  -1.617   0.230  1.00  0.00     0.000 A 
ATOM     12  C   UNL     1       7.551  -1.469  -1.124  1.00  0.00     0.000 A 
ENDBRANCH   6   7
ENDBRANCH   1   6
TORSDOF 4
ENDMDL
