@<TRIPOS>MOLECULE
/home/cewinharhar/GITHUB/reincatalyze/data/processed/docking_pred/2023-Apr-25-1829_maxeplen10_maxtrainstep200_exh32_gamma099_lrac3e-4_lrcr1e-3/31de0aabf4a391366091aaa04775d5537fef7eaf_ligand_2.pdbqt
 12 12 0 0 0
SMALL
GASTEIGER

@<TRIPOS>ATOM
      1  C          5.3250    2.8470    0.1100 C.3     1  UNL1        0.1270
      2  C          6.1850    3.7680    0.8740 C.2     1  UNL1        0.3030
      3  O          6.2680    3.6270    2.1170 O.2     1  UNL1       -0.2520
      4  O          6.8950    4.7750    0.2500 O.3     1  UNL1       -0.4810
      5  H          7.9290    4.7820    0.1700 H       1  UNL1        0.2960
      6  C          5.2810    1.5320    0.8790 C.3     1  UNL1        0.0470
      7  C          6.0730    0.4770    0.2230 C.2     1  UNL1       -0.0470
      8  C          6.3230    0.5980   -1.1390 C.2     1  UNL1        0.0040
      9  C          6.5830   -0.6290    0.8530 C.2     1  UNL1        0.0040
     10  C          7.0630   -0.3820   -1.7960 C.2     1  UNL1        0.0000
     11  C          7.3190   -1.6170    0.2300 C.2     1  UNL1        0.0000
     12  C          7.5510   -1.4690   -1.1240 C.2     1  UNL1        0.0000
@<TRIPOS>BOND
     1    10     8    1
     2    10    12    2
     3     8     7    2
     4    12    11    1
     5     1     2    1
     6     1     6    1
     7     5     4    1
     8     7     9    1
     9     7     6    1
    10    11     9    2
    11     4     2    1
    12     2     3    2
