@<TRIPOS>MOLECULE
/home/cewinharhar/GITHUB/reincatalyze/data/processed/docking_pred/2023-Apr-25-1829_maxeplen10_maxtrainstep200_exh32_gamma099_lrac3e-4_lrcr1e-3/367438b83e07ec58543242b49c62b5ced391bd04_ligand_2.pdbqt
 12 12 0 0 0
SMALL
GASTEIGER

@<TRIPOS>ATOM
      1  C          5.4240    2.8370   -0.0450 C.3     1  UNL1        0.1270
      2  C          6.1760    3.7920    0.7870 C.2     1  UNL1        0.3030
      3  O          6.0950    3.7030    2.0350 O.2     1  UNL1       -0.2520
      4  O          6.9650    4.7750    0.2200 O.3     1  UNL1       -0.4810
      5  H          7.2690    4.7650   -0.7710 H       1  UNL1        0.2960
      6  C          4.8440    1.7850    0.8940 C.3     1  UNL1        0.0470
      7  C          5.6400    0.5450    0.9010 C.2     1  UNL1       -0.0470
      8  C          5.7500   -0.1550    2.0960 C.2     1  UNL1        0.0040
      9  C          6.2930    0.0260   -0.1870 C.2     1  UNL1        0.0040
     10  C          6.5010   -1.3280    2.1440 C.2     1  UNL1        0.0000
     11  C          7.0430   -1.1330   -0.1720 C.2     1  UNL1        0.0000
     12  C          7.1350   -1.8070    1.0300 C.2     1  UNL1        0.0000
@<TRIPOS>BOND
     1     5     4    1
     2     9    11    1
     3     9     7    2
     4    11    12    2
     5     1     2    1
     6     1     6    1
     7     4     2    1
     8     2     3    2
     9     6     7    1
    10     7     8    1
    11    12    10    1
    12     8    10    2
