@<TRIPOS>MOLECULE
/home/cewinharhar/GITHUB/reincatalyze/data/processed/docking_pred/2023-Apr-25-1829_maxeplen10_maxtrainstep200_exh32_gamma099_lrac3e-4_lrcr1e-3/367438b83e07ec58543242b49c62b5ced391bd04_ligand_2.pdbqt
 12 12 0 0 0
SMALL
GASTEIGER

@<TRIPOS>ATOM
      1  C          7.2930   -1.3870   -2.2330 C.3     1  UNL1        0.1270
      2  C          8.7340   -1.4470   -2.5350 C.2     1  UNL1        0.3030
      3  O          9.4840   -0.5450   -2.0900 O.2     1  UNL1       -0.2520
      4  O          9.2700   -2.4710   -3.2920 O.3     1  UNL1       -0.4810
      5  H          9.2440   -2.4910   -4.3290 H       1  UNL1        0.2960
      6  C          6.9540    0.0720   -1.9520 C.3     1  UNL1        0.0470
      7  C          6.3100    0.2510   -0.6390 C.2     1  UNL1       -0.0470
      8  C          6.4000   -0.7880    0.2790 C.2     1  UNL1        0.0040
      9  C          5.6160    1.3680   -0.2500 C.2     1  UNL1        0.0040
     10  C          5.7980   -0.6600    1.5300 C.2     1  UNL1        0.0000
     11  C          5.0100    1.5250    0.9800 C.2     1  UNL1        0.0000
     12  C          5.1150    0.4760    1.8720 C.2     1  UNL1        0.0000
@<TRIPOS>BOND
     1     5     4    1
     2     4     2    1
     3     2     1    1
     4     2     3    2
     5     1     6    1
     6     6     7    1
     7     7     9    2
     8     7     8    1
     9     9    11    1
    10     8    10    2
    11    11    12    2
    12    10    12    1
