MODEL 1
REMARK VINA RESULT:      -7.2      0.000      0.000
REMARK SMILES O=C(O)CCc1ccccc1
REMARK SMILES IDX 4 1 2 2 1 3 3 4 5 6 6 7 7 8 11 9 8 10 10 11 9 12
REMARK H PARENT 3 5
REMARK Flexibility Score: inf
ROOT
ATOM      1  C   UNL     1       8.446  -0.677  -2.059  1.00  0.00     0.127 C 
ENDROOT
BRANCH   1   2
ATOM      2  C   UNL     1       8.398  -1.912  -2.861  1.00  0.00     0.303 C 
ATOM      3  O   UNL     1       7.281  -2.371  -3.200  1.00  0.00    -0.252 OA
BRANCH   2   4
ATOM      4  O   UNL     1       9.552  -2.567  -3.245  1.00  0.00    -0.481 OA
ATOM      5  H   UNL     1       9.798  -3.525  -2.935  1.00  0.00     0.296 HD
ENDBRANCH   2   4
ENDBRANCH   1   2
BRANCH   1   6
ATOM      6  C   UNL     1       7.047  -0.073  -2.081  1.00  0.00     0.047 C 
BRANCH   6   7
ATOM      7  C   UNL     1       6.456   0.011  -0.734  1.00  0.00    -0.047 A 
ATOM      8  C   UNL     1       5.801   1.184  -0.379  1.00  0.00     0.004 A 
ATOM      9  C   UNL     1       6.506  -0.984   0.208  1.00  0.00     0.004 A 
ATOM     10  C   UNL     1       5.235   1.303   0.889  1.00  0.00     0.000 A 
ATOM     11  C   UNL     1       5.955  -0.896   1.471  1.00  0.00     0.000 A 
ATOM     12  C   UNL     1       5.311   0.283   1.796  1.00  0.00     0.000 A 
ENDBRANCH   6   7
ENDBRANCH   1   6
TORSDOF 4
ENDMDL
MODEL 2
REMARK VINA RESULT:      -7.2      0.061      1.429
REMARK SMILES O=C(O)CCc1ccccc1
REMARK SMILES IDX 4 1 2 2 1 3 3 4 5 6 6 7 7 8 11 9 8 10 10 11 9 12
REMARK H PARENT 3 5
REMARK Flexibility Score: inf
ROOT
ATOM      1  C   UNL     1       8.400  -0.671  -2.061  1.00  0.00     0.127 C 
ENDROOT
BRANCH   1   2
ATOM      2  C   UNL     1       8.381  -1.905  -2.865  1.00  0.00     0.303 C 
ATOM      3  O   UNL     1       7.277  -2.380  -3.220  1.00  0.00    -0.252 OA
BRANCH   2   4
ATOM      4  O   UNL     1       9.551  -2.543  -3.232  1.00  0.00    -0.481 OA
ATOM      5  H   UNL     1      10.165  -2.216  -4.001  1.00  0.00     0.296 HD
ENDBRANCH   2   4
ENDBRANCH   1   2
BRANCH   1   6
ATOM      6  C   UNL     1       6.992  -0.089  -2.101  1.00  0.00     0.047 C 
BRANCH   6   7
ATOM      7  C   UNL     1       6.415   0.064  -0.753  1.00  0.00    -0.047 A 
ATOM      8  C   UNL     1       6.528  -1.001   0.131  1.00  0.00     0.004 A 
ATOM      9  C   UNL     1       5.765   1.183  -0.300  1.00  0.00     0.004 A 
ATOM     10  C   UNL     1       5.990  -0.897   1.412  1.00  0.00     0.000 A 
ATOM     11  C   UNL     1       5.222   1.317   0.962  1.00  0.00     0.000 A 
ATOM     12  C   UNL     1       5.349   0.241   1.819  1.00  0.00     0.000 A 
ENDBRANCH   6   7
ENDBRANCH   1   6
TORSDOF 4
ENDMDL
MODEL 3
REMARK VINA RESULT:      -7.0      0.869      1.779
REMARK SMILES O=C(O)CCc1ccccc1
REMARK SMILES IDX 4 1 2 2 1 3 3 4 5 6 6 7 7 8 11 9 8 10 10 11 9 12
REMARK H PARENT 3 5
REMARK Flexibility Score: inf
ROOT
ATOM      1  C   UNL     1       7.293  -1.387  -2.233  1.00  0.00     0.127 C 
ENDROOT
BRANCH   1   2
ATOM      2  C   UNL     1       8.734  -1.447  -2.535  1.00  0.00     0.303 C 
ATOM      3  O   UNL     1       9.484  -0.545  -2.090  1.00  0.00    -0.252 OA
BRANCH   2   4
ATOM      4  O   UNL     1       9.270  -2.471  -3.292  1.00  0.00    -0.481 OA
ATOM      5  H   UNL     1       9.244  -2.491  -4.329  1.00  0.00     0.296 HD
ENDBRANCH   2   4
ENDBRANCH   1   2
BRANCH   1   6
ATOM      6  C   UNL     1       6.954   0.072  -1.952  1.00  0.00     0.047 C 
BRANCH   6   7
ATOM      7  C   UNL     1       6.310   0.251  -0.639  1.00  0.00    -0.047 A 
ATOM      8  C   UNL     1       6.400  -0.788   0.279  1.00  0.00     0.004 A 
ATOM      9  C   UNL     1       5.616   1.368  -0.250  1.00  0.00     0.004 A 
ATOM     10  C   UNL     1       5.798  -0.660   1.530  1.00  0.00     0.000 A 
ATOM     11  C   UNL     1       5.010   1.525   0.980  1.00  0.00     0.000 A 
ATOM     12  C   UNL     1       5.115   0.476   1.872  1.00  0.00     0.000 A 
ENDBRANCH   6   7
ENDBRANCH   1   6
TORSDOF 4
ENDMDL
MODEL 4
REMARK VINA RESULT:      -6.9      3.291      5.132
REMARK SMILES O=C(O)CCc1ccccc1
REMARK SMILES IDX 4 1 2 2 1 3 3 4 5 6 6 7 7 8 11 9 8 10 10 11 9 12
REMARK H PARENT 3 5
REMARK Flexibility Score: inf
ROOT
ATOM      1  C   UNL     1       4.944   1.713   0.700  1.00  0.00     0.127 C 
ENDROOT
BRANCH   1   2
ATOM      2  C   UNL     1       4.445   1.074   1.930  1.00  0.00     0.303 C 
ATOM      3  O   UNL     1       5.140   0.185   2.476  1.00  0.00    -0.252 OA
BRANCH   2   4
ATOM      4  O   UNL     1       3.234   1.436   2.489  1.00  0.00    -0.481 OA
ATOM      5  H   UNL     1       2.753   2.332   2.284  1.00  0.00     0.296 HD
ENDBRANCH   2   4
ENDBRANCH   1   2
BRANCH   1   6
ATOM      6  C   UNL     1       6.467   1.707   0.778  1.00  0.00     0.047 C 
BRANCH   6   7
ATOM      7  C   UNL     1       7.077   0.932  -0.316  1.00  0.00    -0.047 A 
ATOM      8  C   UNL     1       8.391   1.217  -0.666  1.00  0.00     0.004 A 
ATOM      9  C   UNL     1       6.443  -0.055  -1.026  1.00  0.00     0.004 A 
ATOM     10  C   UNL     1       9.000   0.509  -1.700  1.00  0.00     0.000 A 
ATOM     11  C   UNL     1       7.019  -0.774  -2.055  1.00  0.00     0.000 A 
ATOM     12  C   UNL     1       8.326  -0.467  -2.381  1.00  0.00     0.000 A 
ENDBRANCH   6   7
ENDBRANCH   1   6
TORSDOF 4
ENDMDL
MODEL 5
REMARK VINA RESULT:      -6.6      3.805      4.926
REMARK SMILES O=C(O)CCc1ccccc1
REMARK SMILES IDX 4 1 2 2 1 3 3 4 5 6 6 7 7 8 11 9 8 10 10 11 9 12
REMARK H PARENT 3 5
REMARK Flexibility Score: inf
ROOT
ATOM      1  C   UNL     1       5.424   2.837  -0.045  1.00  0.00     0.127 C 
ENDROOT
BRANCH   1   2
ATOM      2  C   UNL     1       6.176   3.792   0.787  1.00  0.00     0.303 C 
ATOM      3  O   UNL     1       6.095   3.703   2.035  1.00  0.00    -0.252 OA
BRANCH   2   4
ATOM      4  O   UNL     1       6.965   4.775   0.220  1.00  0.00    -0.481 OA
ATOM      5  H   UNL     1       7.269   4.765  -0.771  1.00  0.00     0.296 HD
ENDBRANCH   2   4
ENDBRANCH   1   2
BRANCH   1   6
ATOM      6  C   UNL     1       4.844   1.785   0.894  1.00  0.00     0.047 C 
BRANCH   6   7
ATOM      7  C   UNL     1       5.640   0.545   0.901  1.00  0.00    -0.047 A 
ATOM      8  C   UNL     1       5.750  -0.155   2.096  1.00  0.00     0.004 A 
ATOM      9  C   UNL     1       6.293   0.026  -0.187  1.00  0.00     0.004 A 
ATOM     10  C   UNL     1       6.501  -1.328   2.144  1.00  0.00     0.000 A 
ATOM     11  C   UNL     1       7.043  -1.133  -0.172  1.00  0.00     0.000 A 
ATOM     12  C   UNL     1       7.135  -1.807   1.030  1.00  0.00     0.000 A 
ENDBRANCH   6   7
ENDBRANCH   1   6
TORSDOF 4
ENDMDL
