@<TRIPOS>MOLECULE
/home/cewinharhar/GITHUB/reincatalyze/data/processed/docking_pred/2023-Apr-25-1829_maxeplen10_maxtrainstep200_exh32_gamma099_lrac3e-4_lrcr1e-3/367438b83e07ec58543242b49c62b5ced391bd04_ligand_2.pdbqt
 12 12 0 0 0
SMALL
GASTEIGER

@<TRIPOS>ATOM
      1  C          8.4000   -0.6710   -2.0610 C.3     1  UNL1        0.1270
      2  C          8.3810   -1.9050   -2.8650 C.2     1  UNL1        0.3030
      3  O          7.2770   -2.3800   -3.2200 O.2     1  UNL1       -0.2520
      4  O          9.5510   -2.5430   -3.2320 O.3     1  UNL1       -0.4810
      5  H         10.1650   -2.2160   -4.0010 H       1  UNL1        0.2960
      6  C          6.9920   -0.0890   -2.1010 C.3     1  UNL1        0.0470
      7  C          6.4150    0.0640   -0.7530 C.2     1  UNL1       -0.0470
      8  C          6.5280   -1.0010    0.1310 C.2     1  UNL1        0.0040
      9  C          5.7650    1.1830   -0.3000 C.2     1  UNL1        0.0040
     10  C          5.9900   -0.8970    1.4120 C.2     1  UNL1        0.0000
     11  C          5.2220    1.3170    0.9620 C.2     1  UNL1        0.0000
     12  C          5.3490    0.2410    1.8190 C.2     1  UNL1        0.0000
@<TRIPOS>BOND
     1     5     4    1
     2     4     2    1
     3     3     2    2
     4     2     1    1
     5     6     1    1
     6     6     7    1
     7     7     9    2
     8     7     8    1
     9     9    11    1
    10     8    10    2
    11    11    12    2
    12    10    12    1
