@<TRIPOS>MOLECULE
/home/cewinharhar/GITHUB/reincatalyze/data/processed/docking_pred/2023-Apr-25-1829_maxeplen10_maxtrainstep200_exh32_gamma099_lrac3e-4_lrcr1e-3/367438b83e07ec58543242b49c62b5ced391bd04_ligand_2.pdbqt
 12 12 0 0 0
SMALL
GASTEIGER

@<TRIPOS>ATOM
      1  C          4.9440    1.7130    0.7000 C.3     1  UNL1        0.1270
      2  C          4.4450    1.0740    1.9300 C.2     1  UNL1        0.3030
      3  O          5.1400    0.1850    2.4760 O.2     1  UNL1       -0.2520
      4  O          3.2340    1.4360    2.4890 O.3     1  UNL1       -0.4810
      5  H          2.7530    2.3320    2.2840 H       1  UNL1        0.2960
      6  C          6.4670    1.7070    0.7780 C.3     1  UNL1        0.0470
      7  C          7.0770    0.9320   -0.3160 C.2     1  UNL1       -0.0470
      8  C          8.3910    1.2170   -0.6660 C.2     1  UNL1        0.0040
      9  C          6.4430   -0.0550   -1.0260 C.2     1  UNL1        0.0040
     10  C          9.0000    0.5090   -1.7000 C.2     1  UNL1        0.0000
     11  C          7.0190   -0.7740   -2.0550 C.2     1  UNL1        0.0000
     12  C          8.3260   -0.4670   -2.3810 C.2     1  UNL1        0.0000
@<TRIPOS>BOND
     1    12    11    2
     2    12    10    1
     3    11     9    1
     4    10     8    2
     5     9     7    2
     6     8     7    1
     7     7     6    1
     8     1     6    1
     9     1     2    1
    10     2     3    2
    11     2     4    1
    12     5     4    1
