@<TRIPOS>MOLECULE
/home/cewinharhar/GITHUB/reincatalyze/data/processed/docking_pred/2023-Apr-25-1829_maxeplen10_maxtrainstep200_exh32_gamma099_lrac3e-4_lrcr1e-3/37a8b72800122466266a4bb22cdda1f56f02b914_ligand_2.pdbqt
 12 12 0 0 0
SMALL
GASTEIGER

@<TRIPOS>ATOM
      1  C          8.2160    0.2290   -2.2540 C.3     1  UNL1        0.1270
      2  C          9.3300    0.3440   -1.2960 C.2     1  UNL1        0.3030
      3  O          9.3830   -0.4540   -0.3300 O.2     1  UNL1       -0.2520
      4  O         10.3110    1.3060   -1.4450 O.3     1  UNL1       -0.4810
      5  H         10.9000    1.3980   -2.2920 H       1  UNL1        0.2960
      6  C          7.0990   -0.5340   -1.5510 C.3     1  UNL1        0.0470
      7  C          6.3180    0.3310   -0.6490 C.2     1  UNL1       -0.0470
      8  C          6.0860   -0.1150    0.6460 C.2     1  UNL1        0.0040
      9  C          5.7910    1.5500   -0.9910 C.2     1  UNL1        0.0040
     10  C          5.3460    0.6720    1.5270 C.2     1  UNL1        0.0000
     11  C          5.0550    2.3520   -0.1420 C.2     1  UNL1        0.0000
     12  C          4.8400    1.8820    1.1380 C.2     1  UNL1        0.0000
@<TRIPOS>BOND
     1     5     4    1
     2     1     6    1
     3     1     2    1
     4     6     7    1
     5     4     2    1
     6     2     3    2
     7     9     7    2
     8     9    11    1
     9     7     8    1
    10    11    12    2
    11     8    10    2
    12    12    10    1
