@<TRIPOS>MOLECULE
/home/cewinharhar/GITHUB/reincatalyze/data/processed/docking_pred/2023-Apr-25-1829_maxeplen10_maxtrainstep200_exh32_gamma099_lrac3e-4_lrcr1e-3/37a8b72800122466266a4bb22cdda1f56f02b914_ligand_2.pdbqt
 12 12 0 0 0
SMALL
GASTEIGER

@<TRIPOS>ATOM
      1  C          8.4470   -0.6200   -2.1550 C.3     1  UNL1        0.1270
      2  C          8.4600   -1.8860   -2.9090 C.2     1  UNL1        0.3030
      3  O          9.5530   -2.4740   -3.0870 O.2     1  UNL1       -0.2520
      4  O          7.2970   -2.4330   -3.4170 O.3     1  UNL1       -0.4810
      5  H          7.1520   -2.6350   -4.4240 H       1  UNL1        0.2960
      6  C          7.0120   -0.1070   -2.1650 C.3     1  UNL1        0.0470
      7  C          6.4780    0.0780   -0.8040 C.2     1  UNL1       -0.0470
      8  C          6.6100   -0.9700    0.0980 C.2     1  UNL1        0.0040
      9  C          5.8490    1.2110   -0.3550 C.2     1  UNL1        0.0040
     10  C          6.1120   -0.8360    1.3930 C.2     1  UNL1        0.0000
     11  C          5.3460    1.3740    0.9210 C.2     1  UNL1        0.0000
     12  C          5.4910    0.3150    1.7950 C.2     1  UNL1        0.0000
@<TRIPOS>BOND
     1     5     4    1
     2     4     2    1
     3     3     2    2
     4     2     1    1
     5     6     1    1
     6     6     7    1
     7     7     9    2
     8     7     8    1
     9     9    11    1
    10     8    10    2
    11    11    12    2
    12    10    12    1
