@<TRIPOS>MOLECULE
/home/cewinharhar/GITHUB/reincatalyze/data/processed/docking_pred/2023-Apr-25-1829_maxeplen10_maxtrainstep200_exh32_gamma099_lrac3e-4_lrcr1e-3/37a8b72800122466266a4bb22cdda1f56f02b914_ligand_2.pdbqt
 12 12 0 0 0
SMALL
GASTEIGER

@<TRIPOS>ATOM
      1  C          5.6730    3.0070   -0.0930 C.3     1  UNL1        0.1270
      2  C          6.3660    3.9460    0.8060 C.2     1  UNL1        0.3030
      3  O          7.1690    4.7730    0.3140 O.2     1  UNL1       -0.2520
      4  O          6.1460    3.9330    2.1700 O.3     1  UNL1       -0.4810
      5  H          6.9070    3.9490    2.8730 H       1  UNL1        0.2960
      6  C          4.9750    1.9760    0.7870 C.3     1  UNL1        0.0470
      7  C          5.7160    0.7040    0.8490 C.2     1  UNL1       -0.0470
      8  C          5.7630    0.0330    2.0650 C.2     1  UNL1        0.0040
      9  C          6.3750    0.1280   -0.2060 C.2     1  UNL1        0.0040
     10  C          6.4600   -1.1700    2.1650 C.2     1  UNL1        0.0000
     11  C          7.0730   -1.0620   -0.1390 C.2     1  UNL1        0.0000
     12  C          7.1030   -1.7060    1.0820 C.2     1  UNL1        0.0000
@<TRIPOS>BOND
     1     9    11    1
     2     9     7    2
     3    11    12    2
     4     1     6    1
     5     1     2    1
     6     3     2    2
     7     6     7    1
     8     2     4    1
     9     7     8    1
    10    12    10    1
    11     8    10    2
    12     4     5    1
