@<TRIPOS>MOLECULE
/home/cewinharhar/GITHUB/reincatalyze/data/processed/docking_pred/2023-Apr-25-1829_maxeplen10_maxtrainstep200_exh32_gamma099_lrac3e-4_lrcr1e-3/37a8b72800122466266a4bb22cdda1f56f02b914_ligand_2.pdbqt
 12 12 0 0 0
SMALL
GASTEIGER

@<TRIPOS>ATOM
      1  C          8.4400   -0.6250   -2.1520 C.3     1  UNL1        0.1270
      2  C          8.4120   -1.8980   -2.8940 C.2     1  UNL1        0.3030
      3  O          7.3030   -2.3950   -3.2010 O.2     1  UNL1       -0.2520
      4  O          9.5780   -2.5460   -3.2550 O.3     1  UNL1       -0.4810
      5  H          9.7190   -2.9990   -4.1770 H       1  UNL1        0.2960
      6  C          7.0130   -0.0880   -2.1310 C.3     1  UNL1        0.0470
      7  C          6.4800    0.0190   -0.7610 C.2     1  UNL1       -0.0470
      8  C          5.8490    1.2020   -0.3950 C.2     1  UNL1        0.0040
      9  C          6.5610   -0.9640    0.1910 C.2     1  UNL1        0.0040
     10  C          5.3370    1.3430    0.8930 C.2     1  UNL1        0.0000
     11  C          6.0630   -0.8550    1.4750 C.2     1  UNL1        0.0000
     12  C          5.4430    0.3330    1.8100 C.2     1  UNL1        0.0000
@<TRIPOS>BOND
     1     5     4    1
     2     4     2    1
     3     3     2    2
     4     2     1    1
     5     1     6    1
     6     6     7    1
     7     7     8    2
     8     7     9    1
     9     8    10    1
    10     9    11    2
    11    10    12    2
    12    11    12    1
