@<TRIPOS>MOLECULE
/home/cewinharhar/GITHUB/reincatalyze/data/processed/docking_pred/2023-Apr-25-1829_maxeplen10_maxtrainstep200_exh32_gamma099_lrac3e-4_lrcr1e-3/37a8b72800122466266a4bb22cdda1f56f02b914_ligand_2.pdbqt
 12 12 0 0 0
SMALL
GASTEIGER

@<TRIPOS>ATOM
      1  C          4.9990    1.7700    0.7250 C.3     1  UNL1        0.1270
      2  C          4.4720    1.1060    1.9300 C.2     1  UNL1        0.3030
      3  O          5.1570    0.2080    2.4740 O.2     1  UNL1       -0.2520
      4  O          3.2470    1.4540    2.4660 O.3     1  UNL1       -0.4810
      5  H          3.0980    1.6560    3.4720 H       1  UNL1        0.2960
      6  C          6.5200    1.7100    0.8090 C.3     1  UNL1        0.0470
      7  C          7.1090    0.9450   -0.3040 C.2     1  UNL1       -0.0470
      8  C          8.4260    1.2140   -0.6570 C.2     1  UNL1        0.0040
      9  C          6.4540   -0.0160   -1.0290 C.2     1  UNL1        0.0040
     10  C          9.0160    0.5150   -1.7090 C.2     1  UNL1        0.0000
     11  C          7.0100   -0.7250   -2.0760 C.2     1  UNL1        0.0000
     12  C          8.3200   -0.4350   -2.4050 C.2     1  UNL1        0.0000
@<TRIPOS>BOND
     1    12    11    2
     2    12    10    1
     3    11     9    1
     4    10     8    2
     5     9     7    2
     6     8     7    1
     7     7     6    1
     8     1     6    1
     9     1     2    1
    10     2     4    1
    11     2     3    2
    12     4     5    1
