MODEL 1
REMARK VINA RESULT:      -7.3      0.000      0.000
REMARK SMILES O=C(O)CCc1ccccc1
REMARK SMILES IDX 4 1 2 2 1 3 3 4 5 6 6 7 7 8 11 9 8 10 10 11 9 12
REMARK H PARENT 3 5
REMARK Flexibility Score: inf
ROOT
ATOM      1  C   UNL     1       8.447  -0.620  -2.155  1.00  0.00     0.127 C 
ENDROOT
BRANCH   1   2
ATOM      2  C   UNL     1       8.460  -1.886  -2.909  1.00  0.00     0.303 C 
ATOM      3  O   UNL     1       9.553  -2.474  -3.087  1.00  0.00    -0.252 OA
BRANCH   2   4
ATOM      4  O   UNL     1       7.297  -2.433  -3.417  1.00  0.00    -0.481 OA
ATOM      5  H   UNL     1       7.152  -2.635  -4.424  1.00  0.00     0.296 HD
ENDBRANCH   2   4
ENDBRANCH   1   2
BRANCH   1   6
ATOM      6  C   UNL     1       7.012  -0.107  -2.165  1.00  0.00     0.047 C 
BRANCH   6   7
ATOM      7  C   UNL     1       6.478   0.078  -0.804  1.00  0.00    -0.047 A 
ATOM      8  C   UNL     1       6.610  -0.970   0.098  1.00  0.00     0.004 A 
ATOM      9  C   UNL     1       5.849   1.211  -0.355  1.00  0.00     0.004 A 
ATOM     10  C   UNL     1       6.112  -0.836   1.393  1.00  0.00     0.000 A 
ATOM     11  C   UNL     1       5.346   1.374   0.921  1.00  0.00     0.000 A 
ATOM     12  C   UNL     1       5.491   0.315   1.795  1.00  0.00     0.000 A 
ENDBRANCH   6   7
ENDBRANCH   1   6
TORSDOF 4
ENDMDL
MODEL 2
REMARK VINA RESULT:      -7.2      0.104      1.727
REMARK SMILES O=C(O)CCc1ccccc1
REMARK SMILES IDX 4 1 2 2 1 3 3 4 5 6 6 7 7 8 11 9 8 10 10 11 9 12
REMARK H PARENT 3 5
REMARK Flexibility Score: inf
ROOT
ATOM      1  C   UNL     1       8.440  -0.625  -2.152  1.00  0.00     0.127 C 
ENDROOT
BRANCH   1   2
ATOM      2  C   UNL     1       8.412  -1.898  -2.894  1.00  0.00     0.303 C 
ATOM      3  O   UNL     1       7.303  -2.395  -3.201  1.00  0.00    -0.252 OA
BRANCH   2   4
ATOM      4  O   UNL     1       9.578  -2.546  -3.255  1.00  0.00    -0.481 OA
ATOM      5  H   UNL     1       9.719  -2.999  -4.177  1.00  0.00     0.296 HD
ENDBRANCH   2   4
ENDBRANCH   1   2
BRANCH   1   6
ATOM      6  C   UNL     1       7.013  -0.088  -2.131  1.00  0.00     0.047 C 
BRANCH   6   7
ATOM      7  C   UNL     1       6.480   0.019  -0.761  1.00  0.00    -0.047 A 
ATOM      8  C   UNL     1       5.849   1.202  -0.395  1.00  0.00     0.004 A 
ATOM      9  C   UNL     1       6.561  -0.964   0.191  1.00  0.00     0.004 A 
ATOM     10  C   UNL     1       5.337   1.343   0.893  1.00  0.00     0.000 A 
ATOM     11  C   UNL     1       6.063  -0.855   1.475  1.00  0.00     0.000 A 
ATOM     12  C   UNL     1       5.443   0.333   1.810  1.00  0.00     0.000 A 
ENDBRANCH   6   7
ENDBRANCH   1   6
TORSDOF 4
ENDMDL
MODEL 3
REMARK VINA RESULT:      -6.8      3.368      5.087
REMARK SMILES O=C(O)CCc1ccccc1
REMARK SMILES IDX 4 1 2 2 1 3 3 4 5 6 6 7 7 8 11 9 8 10 10 11 9 12
REMARK H PARENT 3 5
REMARK Flexibility Score: inf
ROOT
ATOM      1  C   UNL     1       4.999   1.770   0.725  1.00  0.00     0.127 C 
ENDROOT
BRANCH   1   2
ATOM      2  C   UNL     1       4.472   1.106   1.930  1.00  0.00     0.303 C 
ATOM      3  O   UNL     1       5.157   0.208   2.474  1.00  0.00    -0.252 OA
BRANCH   2   4
ATOM      4  O   UNL     1       3.247   1.454   2.466  1.00  0.00    -0.481 OA
ATOM      5  H   UNL     1       3.098   1.656   3.472  1.00  0.00     0.296 HD
ENDBRANCH   2   4
ENDBRANCH   1   2
BRANCH   1   6
ATOM      6  C   UNL     1       6.520   1.710   0.809  1.00  0.00     0.047 C 
BRANCH   6   7
ATOM      7  C   UNL     1       7.109   0.945  -0.304  1.00  0.00    -0.047 A 
ATOM      8  C   UNL     1       8.426   1.214  -0.657  1.00  0.00     0.004 A 
ATOM      9  C   UNL     1       6.454  -0.016  -1.029  1.00  0.00     0.004 A 
ATOM     10  C   UNL     1       9.016   0.515  -1.709  1.00  0.00     0.000 A 
ATOM     11  C   UNL     1       7.010  -0.725  -2.076  1.00  0.00     0.000 A 
ATOM     12  C   UNL     1       8.320  -0.435  -2.405  1.00  0.00     0.000 A 
ENDBRANCH   6   7
ENDBRANCH   1   6
TORSDOF 4
ENDMDL
MODEL 4
REMARK VINA RESULT:      -6.6      1.898      2.309
REMARK SMILES O=C(O)CCc1ccccc1
REMARK SMILES IDX 4 1 2 2 1 3 3 4 5 6 6 7 7 8 11 9 8 10 10 11 9 12
REMARK H PARENT 3 5
REMARK Flexibility Score: inf
ROOT
ATOM      1  C   UNL     1       8.216   0.229  -2.254  1.00  0.00     0.127 C 
ENDROOT
BRANCH   1   2
ATOM      2  C   UNL     1       9.330   0.344  -1.296  1.00  0.00     0.303 C 
ATOM      3  O   UNL     1       9.383  -0.454  -0.330  1.00  0.00    -0.252 OA
BRANCH   2   4
ATOM      4  O   UNL     1      10.311   1.306  -1.445  1.00  0.00    -0.481 OA
ATOM      5  H   UNL     1      10.900   1.398  -2.292  1.00  0.00     0.296 HD
ENDBRANCH   2   4
ENDBRANCH   1   2
BRANCH   1   6
ATOM      6  C   UNL     1       7.099  -0.534  -1.551  1.00  0.00     0.047 C 
BRANCH   6   7
ATOM      7  C   UNL     1       6.318   0.331  -0.649  1.00  0.00    -0.047 A 
ATOM      8  C   UNL     1       6.086  -0.115   0.646  1.00  0.00     0.004 A 
ATOM      9  C   UNL     1       5.791   1.550  -0.991  1.00  0.00     0.004 A 
ATOM     10  C   UNL     1       5.346   0.672   1.527  1.00  0.00     0.000 A 
ATOM     11  C   UNL     1       5.055   2.352  -0.142  1.00  0.00     0.000 A 
ATOM     12  C   UNL     1       4.840   1.882   1.138  1.00  0.00     0.000 A 
ENDBRANCH   6   7
ENDBRANCH   1   6
TORSDOF 4
ENDMDL
MODEL 5
REMARK VINA RESULT:      -6.6      3.814      4.919
REMARK SMILES O=C(O)CCc1ccccc1
REMARK SMILES IDX 4 1 2 2 1 3 3 4 5 6 6 7 7 8 11 9 8 10 10 11 9 12
REMARK H PARENT 3 5
REMARK Flexibility Score: inf
ROOT
ATOM      1  C   UNL     1       5.673   3.007  -0.093  1.00  0.00     0.127 C 
ENDROOT
BRANCH   1   2
ATOM      2  C   UNL     1       6.366   3.946   0.806  1.00  0.00     0.303 C 
ATOM      3  O   UNL     1       7.169   4.773   0.314  1.00  0.00    -0.252 OA
BRANCH   2   4
ATOM      4  O   UNL     1       6.146   3.933   2.170  1.00  0.00    -0.481 OA
ATOM      5  H   UNL     1       6.907   3.949   2.873  1.00  0.00     0.296 HD
ENDBRANCH   2   4
ENDBRANCH   1   2
BRANCH   1   6
ATOM      6  C   UNL     1       4.975   1.976   0.787  1.00  0.00     0.047 C 
BRANCH   6   7
ATOM      7  C   UNL     1       5.716   0.704   0.849  1.00  0.00    -0.047 A 
ATOM      8  C   UNL     1       5.763   0.033   2.065  1.00  0.00     0.004 A 
ATOM      9  C   UNL     1       6.375   0.128  -0.206  1.00  0.00     0.004 A 
ATOM     10  C   UNL     1       6.460  -1.170   2.165  1.00  0.00     0.000 A 
ATOM     11  C   UNL     1       7.073  -1.062  -0.139  1.00  0.00     0.000 A 
ATOM     12  C   UNL     1       7.103  -1.706   1.082  1.00  0.00     0.000 A 
ENDBRANCH   6   7
ENDBRANCH   1   6
TORSDOF 4
ENDMDL
