@<TRIPOS>MOLECULE
/home/cewinharhar/GITHUB/reincatalyze/data/processed/docking_pred/2023-Apr-25-1829_maxeplen10_maxtrainstep200_exh32_gamma099_lrac3e-4_lrcr1e-3/3b11ad51370e6150fddf32b3aa65dd5e24197163_ligand_2.pdbqt
 12 12 0 0 0
SMALL
GASTEIGER

@<TRIPOS>ATOM
      1  C          5.0520    1.8050    0.7110 C.3     1  UNL1        0.1270
      2  C          4.6400    1.1910    1.9850 C.2     1  UNL1        0.3030
      3  O          5.3650    0.3030    2.4920 O.2     1  UNL1       -0.2520
      4  O          3.4780    1.5760    2.6260 O.3     1  UNL1       -0.4810
      5  H          2.5760    1.0730    2.5290 H       1  UNL1        0.2960
      6  C          6.5720    1.9250    0.7420 C.3     1  UNL1        0.0470
      7  C          7.2120    1.1700   -0.3490 C.2     1  UNL1       -0.0470
      8  C          6.4180    0.3200   -1.1090 C.2     1  UNL1        0.0040
      9  C          8.5420    1.2360   -0.6740 C.2     1  UNL1        0.0040
     10  C          6.9880   -0.4160   -2.1460 C.2     1  UNL1        0.0000
     11  C          9.1360    0.5210   -1.6950 C.2     1  UNL1        0.0000
     12  C          8.3220   -0.3170   -2.4330 C.2     1  UNL1        0.0000
@<TRIPOS>BOND
     1    12    10    2
     2    12    11    1
     3    10     8    1
     4    11     9    2
     5     8     7    2
     6     9     7    1
     7     7     6    1
     8     1     6    1
     9     1     2    1
    10     2     3    2
    11     2     4    1
    12     5     4    1
