@<TRIPOS>MOLECULE
/home/cewinharhar/GITHUB/reincatalyze/data/processed/docking_pred/2023-Apr-25-1829_maxeplen10_maxtrainstep200_exh32_gamma099_lrac3e-4_lrcr1e-3/3b11ad51370e6150fddf32b3aa65dd5e24197163_ligand_2.pdbqt
 12 12 0 0 0
SMALL
GASTEIGER

@<TRIPOS>ATOM
      1  C          8.4570    0.4440   -1.9340 C.3     1  UNL1        0.1270
      2  C          9.0690   -0.1120   -3.1530 C.2     1  UNL1        0.3030
      3  O          9.7760   -1.1430   -3.0600 O.2     1  UNL1       -0.2520
      4  O          8.8760    0.4770   -4.3880 O.3     1  UNL1       -0.4810
      5  H          9.5600    0.4170   -5.1650 H       1  UNL1        0.2960
      6  C          7.0690   -0.1740   -1.8060 C.3     1  UNL1        0.0470
      7  C          6.3850    0.2460   -0.5710 C.2     1  UNL1       -0.0470
      8  C          5.7420    1.4780   -0.5660 C.2     1  UNL1        0.0040
      9  C          6.3370   -0.4850    0.5880 C.2     1  UNL1        0.0040
     10  C          5.0890    1.9130    0.5860 C.2     1  UNL1        0.0000
     11  C          5.6990   -0.0820    1.7440 C.2     1  UNL1        0.0000
     12  C          5.0690    1.1470    1.7190 C.2     1  UNL1        0.0000
@<TRIPOS>BOND
     1     5     4    1
     2     4     2    1
     3     2     3    2
     4     2     1    1
     5     1     6    1
     6     6     7    1
     7     7     8    2
     8     7     9    1
     9     8    10    1
    10    10    12    2
    11     9    11    2
    12    12    11    1
