@<TRIPOS>MOLECULE
/home/cewinharhar/GITHUB/reincatalyze/data/processed/docking_pred/2023-Apr-25-1829_maxeplen10_maxtrainstep200_exh32_gamma099_lrac3e-4_lrcr1e-3/3b11ad51370e6150fddf32b3aa65dd5e24197163_ligand_2.pdbqt
 12 12 0 0 0
SMALL
GASTEIGER

@<TRIPOS>ATOM
      1  C          8.5530    0.5040   -1.8050 C.3     1  UNL1        0.1270
      2  C          9.1750    0.0430   -3.0590 C.2     1  UNL1        0.3030
      3  O         10.1090   -0.7900   -3.0010 O.2     1  UNL1       -0.2520
      4  O          8.7470    0.5090   -4.2880 O.3     1  UNL1       -0.4810
      5  H          8.7940   -0.0500   -5.1600 H       1  UNL1        0.2960
      6  C          7.0960    0.0580   -1.8370 C.3     1  UNL1        0.0470
      7  C          6.3810    0.4060   -0.5960 C.2     1  UNL1       -0.0470
      8  C          6.4150   -0.5020    0.4540 C.2     1  UNL1        0.0040
      9  C          5.6730    1.5630   -0.3960 C.2     1  UNL1        0.0040
     10  C          5.7450   -0.2120    1.6420 C.2     1  UNL1        0.0000
     11  C          5.0010    1.8800    0.7670 C.2     1  UNL1        0.0000
     12  C          5.0510    0.9570    1.7940 C.2     1  UNL1        0.0000
@<TRIPOS>BOND
     1     5     4    1
     2     4     2    1
     3     2     3    2
     4     2     1    1
     5     6     1    1
     6     6     7    1
     7     7     9    2
     8     7     8    1
     9     9    11    1
    10     8    10    2
    11    11    12    2
    12    10    12    1
