MODEL 1
REMARK VINA RESULT:      -6.8      0.000      0.000
REMARK SMILES O=C(O)CCc1ccccc1
REMARK SMILES IDX 4 1 2 2 1 3 3 4 5 6 6 7 7 8 11 9 8 10 10 11 9 12
REMARK H PARENT 3 5
REMARK Flexibility Score: inf
ROOT
ATOM      1  C   UNL     1       8.457   0.444  -1.934  1.00  0.00     0.127 C 
ENDROOT
BRANCH   1   2
ATOM      2  C   UNL     1       9.069  -0.112  -3.153  1.00  0.00     0.303 C 
ATOM      3  O   UNL     1       9.776  -1.143  -3.060  1.00  0.00    -0.252 OA
BRANCH   2   4
ATOM      4  O   UNL     1       8.876   0.477  -4.388  1.00  0.00    -0.481 OA
ATOM      5  H   UNL     1       9.560   0.417  -5.165  1.00  0.00     0.296 HD
ENDBRANCH   2   4
ENDBRANCH   1   2
BRANCH   1   6
ATOM      6  C   UNL     1       7.069  -0.174  -1.806  1.00  0.00     0.047 C 
BRANCH   6   7
ATOM      7  C   UNL     1       6.385   0.246  -0.571  1.00  0.00    -0.047 A 
ATOM      8  C   UNL     1       5.742   1.478  -0.566  1.00  0.00     0.004 A 
ATOM      9  C   UNL     1       6.337  -0.485   0.588  1.00  0.00     0.004 A 
ATOM     10  C   UNL     1       5.089   1.913   0.586  1.00  0.00     0.000 A 
ATOM     11  C   UNL     1       5.699  -0.082   1.744  1.00  0.00     0.000 A 
ATOM     12  C   UNL     1       5.069   1.147   1.719  1.00  0.00     0.000 A 
ENDBRANCH   6   7
ENDBRANCH   1   6
TORSDOF 4
ENDMDL
MODEL 2
REMARK VINA RESULT:      -6.8      0.234      1.441
REMARK SMILES O=C(O)CCc1ccccc1
REMARK SMILES IDX 4 1 2 2 1 3 3 4 5 6 6 7 7 8 11 9 8 10 10 11 9 12
REMARK H PARENT 3 5
REMARK Flexibility Score: inf
ROOT
ATOM      1  C   UNL     1       8.553   0.504  -1.805  1.00  0.00     0.127 C 
ENDROOT
BRANCH   1   2
ATOM      2  C   UNL     1       9.175   0.043  -3.059  1.00  0.00     0.303 C 
ATOM      3  O   UNL     1      10.109  -0.790  -3.001  1.00  0.00    -0.252 OA
BRANCH   2   4
ATOM      4  O   UNL     1       8.747   0.509  -4.288  1.00  0.00    -0.481 OA
ATOM      5  H   UNL     1       8.794  -0.050  -5.160  1.00  0.00     0.296 HD
ENDBRANCH   2   4
ENDBRANCH   1   2
BRANCH   1   6
ATOM      6  C   UNL     1       7.096   0.058  -1.837  1.00  0.00     0.047 C 
BRANCH   6   7
ATOM      7  C   UNL     1       6.381   0.406  -0.596  1.00  0.00    -0.047 A 
ATOM      8  C   UNL     1       6.415  -0.502   0.454  1.00  0.00     0.004 A 
ATOM      9  C   UNL     1       5.673   1.563  -0.396  1.00  0.00     0.004 A 
ATOM     10  C   UNL     1       5.745  -0.212   1.642  1.00  0.00     0.000 A 
ATOM     11  C   UNL     1       5.001   1.880   0.767  1.00  0.00     0.000 A 
ATOM     12  C   UNL     1       5.051   0.957   1.794  1.00  0.00     0.000 A 
ENDBRANCH   6   7
ENDBRANCH   1   6
TORSDOF 4
ENDMDL
MODEL 3
REMARK VINA RESULT:      -6.8      3.567      5.177
REMARK SMILES O=C(O)CCc1ccccc1
REMARK SMILES IDX 4 1 2 2 1 3 3 4 5 6 6 7 7 8 11 9 8 10 10 11 9 12
REMARK H PARENT 3 5
REMARK Flexibility Score: inf
ROOT
ATOM      1  C   UNL     1       5.052   1.805   0.711  1.00  0.00     0.127 C 
ENDROOT
BRANCH   1   2
ATOM      2  C   UNL     1       4.640   1.191   1.985  1.00  0.00     0.303 C 
ATOM      3  O   UNL     1       5.365   0.303   2.492  1.00  0.00    -0.252 OA
BRANCH   2   4
ATOM      4  O   UNL     1       3.478   1.576   2.626  1.00  0.00    -0.481 OA
ATOM      5  H   UNL     1       2.576   1.073   2.529  1.00  0.00     0.296 HD
ENDBRANCH   2   4
ENDBRANCH   1   2
BRANCH   1   6
ATOM      6  C   UNL     1       6.572   1.925   0.742  1.00  0.00     0.047 C 
BRANCH   6   7
ATOM      7  C   UNL     1       7.212   1.170  -0.349  1.00  0.00    -0.047 A 
ATOM      8  C   UNL     1       6.418   0.320  -1.109  1.00  0.00     0.004 A 
ATOM      9  C   UNL     1       8.542   1.236  -0.674  1.00  0.00     0.004 A 
ATOM     10  C   UNL     1       6.988  -0.416  -2.146  1.00  0.00     0.000 A 
ATOM     11  C   UNL     1       9.136   0.521  -1.695  1.00  0.00     0.000 A 
ATOM     12  C   UNL     1       8.322  -0.317  -2.433  1.00  0.00     0.000 A 
ENDBRANCH   6   7
ENDBRANCH   1   6
TORSDOF 4
ENDMDL
MODEL 4
REMARK VINA RESULT:      -6.8      3.574      5.167
REMARK SMILES O=C(O)CCc1ccccc1
REMARK SMILES IDX 4 1 2 2 1 3 3 4 5 6 6 7 7 8 11 9 8 10 10 11 9 12
REMARK H PARENT 3 5
REMARK Flexibility Score: inf
ROOT
ATOM      1  C   UNL     1       5.044   1.800   0.698  1.00  0.00     0.127 C 
ENDROOT
BRANCH   1   2
ATOM      2  C   UNL     1       4.606   1.206   1.973  1.00  0.00     0.303 C 
ATOM      3  O   UNL     1       5.303   0.303   2.492  1.00  0.00    -0.252 OA
BRANCH   2   4
ATOM      4  O   UNL     1       3.449   1.625   2.603  1.00  0.00    -0.481 OA
ATOM      5  H   UNL     1       3.435   2.315   3.376  1.00  0.00     0.296 HD
ENDBRANCH   2   4
ENDBRANCH   1   2
BRANCH   1   6
ATOM      6  C   UNL     1       6.569   1.820   0.714  1.00  0.00     0.047 C 
BRANCH   6   7
ATOM      7  C   UNL     1       7.147   1.006  -0.369  1.00  0.00    -0.047 A 
ATOM      8  C   UNL     1       8.473   1.229  -0.718  1.00  0.00     0.004 A 
ATOM      9  C   UNL     1       6.472   0.041  -1.072  1.00  0.00     0.004 A 
ATOM     10  C   UNL     1       9.053   0.483  -1.743  1.00  0.00     0.000 A 
ATOM     11  C   UNL     1       7.018  -0.714  -2.091  1.00  0.00     0.000 A 
ATOM     12  C   UNL     1       8.338  -0.469  -2.416  1.00  0.00     0.000 A 
ENDBRANCH   6   7
ENDBRANCH   1   6
TORSDOF 4
ENDMDL
MODEL 5
REMARK VINA RESULT:      -6.7      1.153      2.045
REMARK SMILES O=C(O)CCc1ccccc1
REMARK SMILES IDX 4 1 2 2 1 3 3 4 5 6 6 7 7 8 11 9 8 10 10 11 9 12
REMARK H PARENT 3 5
REMARK Flexibility Score: inf
ROOT
ATOM      1  C   UNL     1       7.515  -1.552  -1.486  1.00  0.00     0.127 C 
ENDROOT
BRANCH   1   2
ATOM      2  C   UNL     1       8.183  -1.966  -2.733  1.00  0.00     0.303 C 
ATOM      3  O   UNL     1       7.563  -2.704  -3.535  1.00  0.00    -0.252 OA
BRANCH   2   4
ATOM      4  O   UNL     1       9.468  -1.556  -3.031  1.00  0.00    -0.481 OA
ATOM      5  H   UNL     1       9.939  -0.759  -2.563  1.00  0.00     0.296 HD
ENDBRANCH   2   4
ENDBRANCH   1   2
BRANCH   1   6
ATOM      6  C   UNL     1       6.962  -0.151  -1.717  1.00  0.00     0.047 C 
BRANCH   6   7
ATOM      7  C   UNL     1       6.272   0.378  -0.527  1.00  0.00    -0.047 A 
ATOM      8  C   UNL     1       6.298  -0.383   0.636  1.00  0.00     0.004 A 
ATOM      9  C   UNL     1       5.596   1.569  -0.476  1.00  0.00     0.004 A 
ATOM     10  C   UNL     1       5.652   0.081   1.780  1.00  0.00     0.000 A 
ATOM     11  C   UNL     1       4.946   2.055   0.641  1.00  0.00     0.000 A 
ATOM     12  C   UNL     1       4.989   1.277   1.782  1.00  0.00     0.000 A 
ENDBRANCH   6   7
ENDBRANCH   1   6
TORSDOF 4
ENDMDL
