@<TRIPOS>MOLECULE
/home/cewinharhar/GITHUB/reincatalyze/data/processed/docking_pred/2023-Apr-25-1829_maxeplen10_maxtrainstep200_exh32_gamma099_lrac3e-4_lrcr1e-3/3b11ad51370e6150fddf32b3aa65dd5e24197163_ligand_2.pdbqt
 12 12 0 0 0
SMALL
GASTEIGER

@<TRIPOS>ATOM
      1  C          5.0440    1.8000    0.6980 C.3     1  UNL1        0.1270
      2  C          4.6060    1.2060    1.9730 C.2     1  UNL1        0.3030
      3  O          5.3030    0.3030    2.4920 O.2     1  UNL1       -0.2520
      4  O          3.4490    1.6250    2.6030 O.3     1  UNL1       -0.4810
      5  H          3.4350    2.3150    3.3760 H       1  UNL1        0.2960
      6  C          6.5690    1.8200    0.7140 C.3     1  UNL1        0.0470
      7  C          7.1470    1.0060   -0.3690 C.2     1  UNL1       -0.0470
      8  C          8.4730    1.2290   -0.7180 C.2     1  UNL1        0.0040
      9  C          6.4720    0.0410   -1.0720 C.2     1  UNL1        0.0040
     10  C          9.0530    0.4830   -1.7430 C.2     1  UNL1        0.0000
     11  C          7.0180   -0.7140   -2.0910 C.2     1  UNL1        0.0000
     12  C          8.3380   -0.4690   -2.4160 C.2     1  UNL1        0.0000
@<TRIPOS>BOND
     1    12    11    2
     2    12    10    1
     3    11     9    1
     4    10     8    2
     5     9     7    2
     6     8     7    1
     7     7     6    1
     8     1     6    1
     9     1     2    1
    10     2     3    2
    11     2     4    1
    12     4     5    1
