@<TRIPOS>MOLECULE
/home/cewinharhar/GITHUB/reincatalyze/data/processed/docking_pred/2023-Apr-25-1829_maxeplen10_maxtrainstep200_exh32_gamma099_lrac3e-4_lrcr1e-3/3b98b0574a09314ff34419eb6cee054edaec9098_ligand_2.pdbqt
 12 12 0 0 0
SMALL
GASTEIGER

@<TRIPOS>ATOM
      1  C          8.4300   -0.6300   -2.1420 C.3     1  UNL1        0.1270
      2  C          8.4000   -1.9000   -2.8870 C.2     1  UNL1        0.3030
      3  O          7.2900   -2.3900   -3.2040 O.2     1  UNL1       -0.2520
      4  O          9.5640   -2.5550   -3.2410 O.3     1  UNL1       -0.4810
      5  H          9.7550   -3.5480   -3.0130 H       1  UNL1        0.2960
      6  C          7.0040   -0.0920   -2.1160 C.3     1  UNL1        0.0470
      7  C          6.4740    0.0120   -0.7450 C.2     1  UNL1       -0.0470
      8  C          5.8450    1.1950   -0.3750 C.2     1  UNL1        0.0040
      9  C          6.5580   -0.9720    0.2060 C.2     1  UNL1        0.0040
     10  C          5.3360    1.3330    0.9150 C.2     1  UNL1        0.0000
     11  C          6.0650   -0.8650    1.4910 C.2     1  UNL1        0.0000
     12  C          5.4450    0.3220    1.8300 C.2     1  UNL1        0.0000
@<TRIPOS>BOND
     1     4     5    1
     2     4     2    1
     3     3     2    2
     4     2     1    1
     5     1     6    1
     6     6     7    1
     7     7     8    2
     8     7     9    1
     9     8    10    1
    10     9    11    2
    11    10    12    2
    12    11    12    1
