@<TRIPOS>MOLECULE
/home/cewinharhar/GITHUB/reincatalyze/data/processed/docking_pred/2023-Apr-25-1829_maxeplen10_maxtrainstep200_exh32_gamma099_lrac3e-4_lrcr1e-3/3b98b0574a09314ff34419eb6cee054edaec9098_ligand_2.pdbqt
 12 12 0 0 0
SMALL
GASTEIGER

@<TRIPOS>ATOM
      1  C          8.2170   -0.7920   -2.0120 C.3     1  UNL1        0.1270
      2  C          8.3360   -1.9550   -2.9080 C.2     1  UNL1        0.3030
      3  O          9.4690   -2.4530   -3.1070 O.2     1  UNL1       -0.2520
      4  O          7.2280   -2.5030   -3.5270 O.3     1  UNL1       -0.4810
      5  H          7.2690   -3.3400   -4.1380 H       1  UNL1        0.2960
      6  C          7.6500   -1.3010   -0.6910 C.3     1  UNL1        0.0470
      7  C          6.7180   -0.3380   -0.0780 C.2     1  UNL1       -0.0470
      8  C          6.3320    0.7660   -0.8290 C.2     1  UNL1        0.0040
      9  C          6.2010   -0.4430    1.1870 C.2     1  UNL1        0.0040
     10  C          5.4570    1.7020   -0.2820 C.2     1  UNL1        0.0000
     11  C          5.3320    0.4670    1.7570 C.2     1  UNL1        0.0000
     12  C          4.9670    1.5550    0.9870 C.2     1  UNL1        0.0000
@<TRIPOS>BOND
     1     5     4    1
     2     4     2    1
     3     3     2    2
     4     2     1    1
     5     1     6    1
     6     8    10    1
     7     8     7    2
     8     6     7    1
     9    10    12    2
    10     7     9    1
    11    12    11    1
    12     9    11    2
