@<TRIPOS>MOLECULE
/home/cewinharhar/GITHUB/reincatalyze/data/processed/docking_pred/2023-Apr-25-1829_maxeplen10_maxtrainstep200_exh32_gamma099_lrac3e-4_lrcr1e-3/3b98b0574a09314ff34419eb6cee054edaec9098_ligand_2.pdbqt
 12 12 0 0 0
SMALL
GASTEIGER

@<TRIPOS>ATOM
      1  C          4.9980    1.7820    0.7170 C.3     1  UNL1        0.1270
      2  C          4.4750    1.1160    1.9230 C.2     1  UNL1        0.3030
      3  O          5.1650    0.2220    2.4670 O.2     1  UNL1       -0.2520
      4  O          3.2490    1.4590    2.4600 O.3     1  UNL1       -0.4810
      5  H          3.1030    2.2800    3.0750 H       1  UNL1        0.2960
      6  C          6.5200    1.7290    0.8000 C.3     1  UNL1        0.0470
      7  C          7.1100    0.9590   -0.3090 C.2     1  UNL1       -0.0470
      8  C          8.4310    1.2170   -0.6530 C.2     1  UNL1        0.0040
      9  C          6.4520    0.0030   -1.0390 C.2     1  UNL1        0.0040
     10  C          9.0230    0.5140   -1.7010 C.2     1  UNL1        0.0000
     11  C          7.0100   -0.7110   -2.0810 C.2     1  UNL1        0.0000
     12  C          8.3250   -0.4320   -2.4010 C.2     1  UNL1        0.0000
@<TRIPOS>BOND
     1    12    11    2
     2    12    10    1
     3    11     9    1
     4    10     8    2
     5     9     7    2
     6     8     7    1
     7     7     6    1
     8     1     6    1
     9     1     2    1
    10     2     4    1
    11     2     3    2
    12     4     5    1
