@<TRIPOS>MOLECULE
/home/cewinharhar/GITHUB/reincatalyze/data/processed/docking_pred/2023-Apr-25-1829_maxeplen10_maxtrainstep200_exh32_gamma099_lrac3e-4_lrcr1e-3/3b98b0574a09314ff34419eb6cee054edaec9098_ligand_2.pdbqt
 12 12 0 0 0
SMALL
GASTEIGER

@<TRIPOS>ATOM
      1  C          8.4470   -0.6260   -2.1560 C.3     1  UNL1        0.1270
      2  C          8.4630   -1.8940   -2.9060 C.2     1  UNL1        0.3030
      3  O          9.5580   -2.4780   -3.0830 O.2     1  UNL1       -0.2520
      4  O          7.3020   -2.4460   -3.4110 O.3     1  UNL1       -0.4810
      5  H          7.1190   -2.5670   -4.4240 H       1  UNL1        0.2960
      6  C          7.0110   -0.1150   -2.1700 C.3     1  UNL1        0.0470
      7  C          6.4750    0.0740   -0.8100 C.2     1  UNL1       -0.0470
      8  C          6.6020   -0.9730    0.0940 C.2     1  UNL1        0.0040
      9  C          5.8490    1.2100   -0.3640 C.2     1  UNL1        0.0040
     10  C          6.1020   -0.8340    1.3880 C.2     1  UNL1        0.0000
     11  C          5.3440    1.3780    0.9100 C.2     1  UNL1        0.0000
     12  C          5.4840    0.3200    1.7870 C.2     1  UNL1        0.0000
@<TRIPOS>BOND
     1     5     4    1
     2     4     2    1
     3     3     2    2
     4     2     1    1
     5     6     1    1
     6     6     7    1
     7     7     9    2
     8     7     8    1
     9     9    11    1
    10     8    10    2
    11    11    12    2
    12    10    12    1
