MODEL 1
REMARK VINA RESULT:      -7.3      0.000      0.000
REMARK SMILES O=C(O)CCc1ccccc1
REMARK SMILES IDX 4 1 2 2 1 3 3 4 5 6 6 7 7 8 11 9 8 10 10 11 9 12
REMARK H PARENT 3 5
REMARK Flexibility Score: inf
ROOT
ATOM      1  C   UNL     1       8.447  -0.626  -2.156  1.00  0.00     0.127 C 
ENDROOT
BRANCH   1   2
ATOM      2  C   UNL     1       8.463  -1.894  -2.906  1.00  0.00     0.303 C 
ATOM      3  O   UNL     1       9.558  -2.478  -3.083  1.00  0.00    -0.252 OA
BRANCH   2   4
ATOM      4  O   UNL     1       7.302  -2.446  -3.411  1.00  0.00    -0.481 OA
ATOM      5  H   UNL     1       7.119  -2.567  -4.424  1.00  0.00     0.296 HD
ENDBRANCH   2   4
ENDBRANCH   1   2
BRANCH   1   6
ATOM      6  C   UNL     1       7.011  -0.115  -2.170  1.00  0.00     0.047 C 
BRANCH   6   7
ATOM      7  C   UNL     1       6.475   0.074  -0.810  1.00  0.00    -0.047 A 
ATOM      8  C   UNL     1       6.602  -0.973   0.094  1.00  0.00     0.004 A 
ATOM      9  C   UNL     1       5.849   1.210  -0.364  1.00  0.00     0.004 A 
ATOM     10  C   UNL     1       6.102  -0.834   1.388  1.00  0.00     0.000 A 
ATOM     11  C   UNL     1       5.344   1.378   0.910  1.00  0.00     0.000 A 
ATOM     12  C   UNL     1       5.484   0.320   1.787  1.00  0.00     0.000 A 
ENDBRANCH   6   7
ENDBRANCH   1   6
TORSDOF 4
ENDMDL
MODEL 2
REMARK VINA RESULT:      -7.3      0.643      1.114
REMARK SMILES O=C(O)CCc1ccccc1
REMARK SMILES IDX 4 1 2 2 1 3 3 4 5 6 6 7 7 8 11 9 8 10 10 11 9 12
REMARK H PARENT 3 5
REMARK Flexibility Score: inf
ROOT
ATOM      1  C   UNL     1       8.255  -0.889  -1.919  1.00  0.00     0.127 C 
ENDROOT
BRANCH   1   2
ATOM      2  C   UNL     1       8.398  -2.005  -2.870  1.00  0.00     0.303 C 
ATOM      3  O   UNL     1       9.543  -2.459  -3.102  1.00  0.00    -0.252 OA
BRANCH   2   4
ATOM      4  O   UNL     1       7.301  -2.555  -3.505  1.00  0.00    -0.481 OA
ATOM      5  H   UNL     1       7.110  -3.574  -3.538  1.00  0.00     0.296 HD
ENDBRANCH   2   4
ENDBRANCH   1   2
BRANCH   1   6
ATOM      6  C   UNL     1       7.356  -1.377  -0.788  1.00  0.00     0.047 C 
BRANCH   6   7
ATOM      7  C   UNL     1       6.550  -0.288  -0.209  1.00  0.00    -0.047 A 
ATOM      8  C   UNL     1       6.143  -0.408   1.114  1.00  0.00     0.004 A 
ATOM      9  C   UNL     1       6.162   0.843  -0.879  1.00  0.00     0.004 A 
ATOM     10  C   UNL     1       5.374   0.599   1.696  1.00  0.00     0.000 A 
ATOM     11  C   UNL     1       5.401   1.858  -0.332  1.00  0.00     0.000 A 
ATOM     12  C   UNL     1       5.011   1.710   0.985  1.00  0.00     0.000 A 
ENDBRANCH   6   7
ENDBRANCH   1   6
TORSDOF 4
ENDMDL
MODEL 3
REMARK VINA RESULT:      -7.2      0.107      1.727
REMARK SMILES O=C(O)CCc1ccccc1
REMARK SMILES IDX 4 1 2 2 1 3 3 4 5 6 6 7 7 8 11 9 8 10 10 11 9 12
REMARK H PARENT 3 5
REMARK Flexibility Score: inf
ROOT
ATOM      1  C   UNL     1       8.430  -0.630  -2.142  1.00  0.00     0.127 C 
ENDROOT
BRANCH   1   2
ATOM      2  C   UNL     1       8.400  -1.900  -2.887  1.00  0.00     0.303 C 
ATOM      3  O   UNL     1       7.290  -2.390  -3.204  1.00  0.00    -0.252 OA
BRANCH   2   4
ATOM      4  O   UNL     1       9.564  -2.555  -3.241  1.00  0.00    -0.481 OA
ATOM      5  H   UNL     1       9.755  -3.548  -3.013  1.00  0.00     0.296 HD
ENDBRANCH   2   4
ENDBRANCH   1   2
BRANCH   1   6
ATOM      6  C   UNL     1       7.004  -0.092  -2.116  1.00  0.00     0.047 C 
BRANCH   6   7
ATOM      7  C   UNL     1       6.474   0.012  -0.745  1.00  0.00    -0.047 A 
ATOM      8  C   UNL     1       5.845   1.195  -0.375  1.00  0.00     0.004 A 
ATOM      9  C   UNL     1       6.558  -0.972   0.206  1.00  0.00     0.004 A 
ATOM     10  C   UNL     1       5.336   1.333   0.915  1.00  0.00     0.000 A 
ATOM     11  C   UNL     1       6.065  -0.865   1.491  1.00  0.00     0.000 A 
ATOM     12  C   UNL     1       5.445   0.322   1.830  1.00  0.00     0.000 A 
ENDBRANCH   6   7
ENDBRANCH   1   6
TORSDOF 4
ENDMDL
MODEL 4
REMARK VINA RESULT:      -7.2      0.593      1.588
REMARK SMILES O=C(O)CCc1ccccc1
REMARK SMILES IDX 4 1 2 2 1 3 3 4 5 6 6 7 7 8 11 9 8 10 10 11 9 12
REMARK H PARENT 3 5
REMARK Flexibility Score: inf
ROOT
ATOM      1  C   UNL     1       8.217  -0.792  -2.012  1.00  0.00     0.127 C 
ENDROOT
BRANCH   1   2
ATOM      2  C   UNL     1       8.336  -1.955  -2.908  1.00  0.00     0.303 C 
ATOM      3  O   UNL     1       9.469  -2.453  -3.107  1.00  0.00    -0.252 OA
BRANCH   2   4
ATOM      4  O   UNL     1       7.228  -2.503  -3.527  1.00  0.00    -0.481 OA
ATOM      5  H   UNL     1       7.269  -3.340  -4.138  1.00  0.00     0.296 HD
ENDBRANCH   2   4
ENDBRANCH   1   2
BRANCH   1   6
ATOM      6  C   UNL     1       7.650  -1.301  -0.691  1.00  0.00     0.047 C 
BRANCH   6   7
ATOM      7  C   UNL     1       6.718  -0.338  -0.078  1.00  0.00    -0.047 A 
ATOM      8  C   UNL     1       6.332   0.766  -0.829  1.00  0.00     0.004 A 
ATOM      9  C   UNL     1       6.201  -0.443   1.187  1.00  0.00     0.004 A 
ATOM     10  C   UNL     1       5.457   1.702  -0.282  1.00  0.00     0.000 A 
ATOM     11  C   UNL     1       5.332   0.467   1.757  1.00  0.00     0.000 A 
ATOM     12  C   UNL     1       4.967   1.555   0.987  1.00  0.00     0.000 A 
ENDBRANCH   6   7
ENDBRANCH   1   6
TORSDOF 4
ENDMDL
MODEL 5
REMARK VINA RESULT:      -6.8      3.369      5.088
REMARK SMILES O=C(O)CCc1ccccc1
REMARK SMILES IDX 4 1 2 2 1 3 3 4 5 6 6 7 7 8 11 9 8 10 10 11 9 12
REMARK H PARENT 3 5
REMARK Flexibility Score: inf
ROOT
ATOM      1  C   UNL     1       4.998   1.782   0.717  1.00  0.00     0.127 C 
ENDROOT
BRANCH   1   2
ATOM      2  C   UNL     1       4.475   1.116   1.923  1.00  0.00     0.303 C 
ATOM      3  O   UNL     1       5.165   0.222   2.467  1.00  0.00    -0.252 OA
BRANCH   2   4
ATOM      4  O   UNL     1       3.249   1.459   2.460  1.00  0.00    -0.481 OA
ATOM      5  H   UNL     1       3.103   2.280   3.075  1.00  0.00     0.296 HD
ENDBRANCH   2   4
ENDBRANCH   1   2
BRANCH   1   6
ATOM      6  C   UNL     1       6.520   1.729   0.800  1.00  0.00     0.047 C 
BRANCH   6   7
ATOM      7  C   UNL     1       7.110   0.959  -0.309  1.00  0.00    -0.047 A 
ATOM      8  C   UNL     1       8.431   1.217  -0.653  1.00  0.00     0.004 A 
ATOM      9  C   UNL     1       6.452   0.003  -1.039  1.00  0.00     0.004 A 
ATOM     10  C   UNL     1       9.023   0.514  -1.701  1.00  0.00     0.000 A 
ATOM     11  C   UNL     1       7.010  -0.711  -2.081  1.00  0.00     0.000 A 
ATOM     12  C   UNL     1       8.325  -0.432  -2.401  1.00  0.00     0.000 A 
ENDBRANCH   6   7
ENDBRANCH   1   6
TORSDOF 4
ENDMDL
