@<TRIPOS>MOLECULE
/home/cewinharhar/GITHUB/reincatalyze/data/processed/docking_pred/2023-Apr-25-1829_maxeplen10_maxtrainstep200_exh32_gamma099_lrac3e-4_lrcr1e-3/3b98b0574a09314ff34419eb6cee054edaec9098_ligand_2.pdbqt
 12 12 0 0 0
SMALL
GASTEIGER

@<TRIPOS>ATOM
      1  C          8.2550   -0.8890   -1.9190 C.3     1  UNL1        0.1270
      2  C          8.3980   -2.0050   -2.8700 C.2     1  UNL1        0.3030
      3  O          9.5430   -2.4590   -3.1020 O.2     1  UNL1       -0.2520
      4  O          7.3010   -2.5550   -3.5050 O.3     1  UNL1       -0.4810
      5  H          7.1100   -3.5740   -3.5380 H       1  UNL1        0.2960
      6  C          7.3560   -1.3770   -0.7880 C.3     1  UNL1        0.0470
      7  C          6.5500   -0.2880   -0.2090 C.2     1  UNL1       -0.0470
      8  C          6.1430   -0.4080    1.1140 C.2     1  UNL1        0.0040
      9  C          6.1620    0.8430   -0.8790 C.2     1  UNL1        0.0040
     10  C          5.3740    0.5990    1.6960 C.2     1  UNL1        0.0000
     11  C          5.4010    1.8580   -0.3320 C.2     1  UNL1        0.0000
     12  C          5.0110    1.7100    0.9850 C.2     1  UNL1        0.0000
@<TRIPOS>BOND
     1     5     4    1
     2     4     2    1
     3     3     2    2
     4     2     1    1
     5     1     6    1
     6     9    11    1
     7     9     7    2
     8     6     7    1
     9    11    12    2
    10     7     8    1
    11    12    10    1
    12     8    10    2
