MODEL 1
REMARK VINA RESULT:      -7.3      0.000      0.000
REMARK SMILES O=C(O)CCc1ccccc1
REMARK SMILES IDX 4 1 2 2 1 3 3 4 5 6 6 7 7 8 11 9 8 10 10 11 9 12
REMARK H PARENT 3 5
REMARK Flexibility Score: inf
ROOT
ATOM      1  C   UNL     1       8.474  -0.660  -2.118  1.00  0.00     0.127 C 
ENDROOT
BRANCH   1   2
ATOM      2  C   UNL     1       8.458  -1.912  -2.894  1.00  0.00     0.303 C 
ATOM      3  O   UNL     1       9.535  -2.529  -3.069  1.00  0.00    -0.252 OA
BRANCH   2   4
ATOM      4  O   UNL     1       7.286  -2.414  -3.427  1.00  0.00    -0.481 OA
ATOM      5  H   UNL     1       6.458  -2.666  -2.855  1.00  0.00     0.296 HD
ENDBRANCH   2   4
ENDBRANCH   1   2
BRANCH   1   6
ATOM      6  C   UNL     1       7.050  -0.116  -2.116  1.00  0.00     0.047 C 
BRANCH   6   7
ATOM      7  C   UNL     1       6.500  -0.001  -0.754  1.00  0.00    -0.047 A 
ATOM      8  C   UNL     1       5.870   1.186  -0.400  1.00  0.00     0.004 A 
ATOM      9  C   UNL     1       6.567  -0.980   0.204  1.00  0.00     0.004 A 
ATOM     10  C   UNL     1       5.343   1.334   0.881  1.00  0.00     0.000 A 
ATOM     11  C   UNL     1       6.055  -0.864   1.481  1.00  0.00     0.000 A 
ATOM     12  C   UNL     1       5.435   0.328   1.804  1.00  0.00     0.000 A 
ENDBRANCH   6   7
ENDBRANCH   1   6
TORSDOF 4
ENDMDL
MODEL 2
REMARK VINA RESULT:      -7.3      0.067      1.430
REMARK SMILES O=C(O)CCc1ccccc1
REMARK SMILES IDX 4 1 2 2 1 3 3 4 5 6 6 7 7 8 11 9 8 10 10 11 9 12
REMARK H PARENT 3 5
REMARK Flexibility Score: inf
ROOT
ATOM      1  C   UNL     1       8.437  -0.635  -2.148  1.00  0.00     0.127 C 
ENDROOT
BRANCH   1   2
ATOM      2  C   UNL     1       8.456  -1.894  -2.913  1.00  0.00     0.303 C 
ATOM      3  O   UNL     1       9.551  -2.476  -3.094  1.00  0.00    -0.252 OA
BRANCH   2   4
ATOM      4  O   UNL     1       7.296  -2.441  -3.429  1.00  0.00    -0.481 OA
ATOM      5  H   UNL     1       6.412  -1.911  -3.537  1.00  0.00     0.296 HD
ENDBRANCH   2   4
ENDBRANCH   1   2
BRANCH   1   6
ATOM      6  C   UNL     1       7.000  -0.125  -2.160  1.00  0.00     0.047 C 
BRANCH   6   7
ATOM      7  C   UNL     1       6.468   0.069  -0.800  1.00  0.00    -0.047 A 
ATOM      8  C   UNL     1       6.606  -0.972   0.111  1.00  0.00     0.004 A 
ATOM      9  C   UNL     1       5.835   1.202  -0.358  1.00  0.00     0.004 A 
ATOM     10  C   UNL     1       6.110  -0.829   1.405  1.00  0.00     0.000 A 
ATOM     11  C   UNL     1       5.334   1.374   0.917  1.00  0.00     0.000 A 
ATOM     12  C   UNL     1       5.485   0.323   1.799  1.00  0.00     0.000 A 
ENDBRANCH   6   7
ENDBRANCH   1   6
TORSDOF 4
ENDMDL
MODEL 3
REMARK VINA RESULT:      -7.2      0.615      1.609
REMARK SMILES O=C(O)CCc1ccccc1
REMARK SMILES IDX 4 1 2 2 1 3 3 4 5 6 6 7 7 8 11 9 8 10 10 11 9 12
REMARK H PARENT 3 5
REMARK Flexibility Score: inf
ROOT
ATOM      1  C   UNL     1       8.216  -0.834  -2.004  1.00  0.00     0.127 C 
ENDROOT
BRANCH   1   2
ATOM      2  C   UNL     1       8.363  -2.001  -2.892  1.00  0.00     0.303 C 
ATOM      3  O   UNL     1       9.502  -2.500  -3.052  1.00  0.00    -0.252 OA
BRANCH   2   4
ATOM      4  O   UNL     1       7.276  -2.551  -3.543  1.00  0.00    -0.481 OA
ATOM      5  H   UNL     1       6.292  -2.359  -3.279  1.00  0.00     0.296 HD
ENDBRANCH   2   4
ENDBRANCH   1   2
BRANCH   1   6
ATOM      6  C   UNL     1       7.496  -1.314  -0.749  1.00  0.00     0.047 C 
BRANCH   6   7
ATOM      7  C   UNL     1       6.626  -0.272  -0.175  1.00  0.00    -0.047 A 
ATOM      8  C   UNL     1       6.180  -0.439   1.131  1.00  0.00     0.004 A 
ATOM      9  C   UNL     1       6.212   0.856  -0.835  1.00  0.00     0.004 A 
ATOM     10  C   UNL     1       5.351   0.522   1.706  1.00  0.00     0.000 A 
ATOM     11  C   UNL     1       5.391   1.825  -0.293  1.00  0.00     0.000 A 
ATOM     12  C   UNL     1       4.964   1.632   1.006  1.00  0.00     0.000 A 
ENDBRANCH   6   7
ENDBRANCH   1   6
TORSDOF 4
ENDMDL
MODEL 4
REMARK VINA RESULT:      -6.8      3.367      5.062
REMARK SMILES O=C(O)CCc1ccccc1
REMARK SMILES IDX 4 1 2 2 1 3 3 4 5 6 6 7 7 8 11 9 8 10 10 11 9 12
REMARK H PARENT 3 5
REMARK Flexibility Score: inf
ROOT
ATOM      1  C   UNL     1       5.011   1.767   0.698  1.00  0.00     0.127 C 
ENDROOT
BRANCH   1   2
ATOM      2  C   UNL     1       4.480   1.120   1.911  1.00  0.00     0.303 C 
ATOM      3  O   UNL     1       5.160   0.227   2.468  1.00  0.00    -0.252 OA
BRANCH   2   4
ATOM      4  O   UNL     1       3.256   1.480   2.441  1.00  0.00    -0.481 OA
ATOM      5  H   UNL     1       2.856   1.057   3.299  1.00  0.00     0.296 HD
ENDBRANCH   2   4
ENDBRANCH   1   2
BRANCH   1   6
ATOM      6  C   UNL     1       6.532   1.708   0.789  1.00  0.00     0.047 C 
BRANCH   6   7
ATOM      7  C   UNL     1       7.125   0.946  -0.324  1.00  0.00    -0.047 A 
ATOM      8  C   UNL     1       8.448   1.205  -0.662  1.00  0.00     0.004 A 
ATOM      9  C   UNL     1       6.469  -0.004  -1.064  1.00  0.00     0.004 A 
ATOM     10  C   UNL     1       9.043   0.509  -1.713  1.00  0.00     0.000 A 
ATOM     11  C   UNL     1       7.030  -0.710  -2.109  1.00  0.00     0.000 A 
ATOM     12  C   UNL     1       8.346  -0.430  -2.422  1.00  0.00     0.000 A 
ENDBRANCH   6   7
ENDBRANCH   1   6
TORSDOF 4
ENDMDL
MODEL 5
REMARK VINA RESULT:      -6.6      1.959      2.700
REMARK SMILES O=C(O)CCc1ccccc1
REMARK SMILES IDX 4 1 2 2 1 3 3 4 5 6 6 7 7 8 11 9 8 10 10 11 9 12
REMARK H PARENT 3 5
REMARK Flexibility Score: inf
ROOT
ATOM      1  C   UNL     1       8.349   0.162  -2.125  1.00  0.00     0.127 C 
ENDROOT
BRANCH   1   2
ATOM      2  C   UNL     1       9.426   0.329  -1.132  1.00  0.00     0.303 C 
ATOM      3  O   UNL     1       9.457  -0.436  -0.139  1.00  0.00    -0.252 OA
BRANCH   2   4
ATOM      4  O   UNL     1      10.393   1.305  -1.277  1.00  0.00    -0.481 OA
ATOM      5  H   UNL     1      10.367   2.033  -2.015  1.00  0.00     0.296 HD
ENDBRANCH   2   4
ENDBRANCH   1   2
BRANCH   1   6
ATOM      6  C   UNL     1       7.222  -0.602  -1.439  1.00  0.00     0.047 C 
BRANCH   6   7
ATOM      7  C   UNL     1       6.399   0.270  -0.583  1.00  0.00    -0.047 A 
ATOM      8  C   UNL     1       6.140  -0.146   0.717  1.00  0.00     0.004 A 
ATOM      9  C   UNL     1       5.860   1.469  -0.972  1.00  0.00     0.004 A 
ATOM     10  C   UNL     1       5.360   0.649   1.555  1.00  0.00     0.000 A 
ATOM     11  C   UNL     1       5.084   2.279  -0.166  1.00  0.00     0.000 A 
ATOM     12  C   UNL     1       4.842   1.838   1.120  1.00  0.00     0.000 A 
ENDBRANCH   6   7
ENDBRANCH   1   6
TORSDOF 4
ENDMDL
