@<TRIPOS>MOLECULE
/home/cewinharhar/GITHUB/reincatalyze/data/processed/docking_pred/2023-Apr-25-1829_maxeplen10_maxtrainstep200_exh32_gamma099_lrac3e-4_lrcr1e-3/3c93f0ab1d0179ecce707f4524a6ff468bff7290_ligand_2.pdbqt
 12 12 0 0 0
SMALL
GASTEIGER

@<TRIPOS>ATOM
      1  C          8.4740   -0.6600   -2.1180 C.3     1  UNL1        0.1270
      2  C          8.4580   -1.9120   -2.8940 C.2     1  UNL1        0.3030
      3  O          9.5350   -2.5290   -3.0690 O.2     1  UNL1       -0.2520
      4  O          7.2860   -2.4140   -3.4270 O.3     1  UNL1       -0.4810
      5  H          6.4580   -2.6660   -2.8550 H       1  UNL1        0.2960
      6  C          7.0500   -0.1160   -2.1160 C.3     1  UNL1        0.0470
      7  C          6.5000   -0.0010   -0.7540 C.2     1  UNL1       -0.0470
      8  C          5.8700    1.1860   -0.4000 C.2     1  UNL1        0.0040
      9  C          6.5670   -0.9800    0.2040 C.2     1  UNL1        0.0040
     10  C          5.3430    1.3340    0.8810 C.2     1  UNL1        0.0000
     11  C          6.0550   -0.8640    1.4810 C.2     1  UNL1        0.0000
     12  C          5.4350    0.3280    1.8040 C.2     1  UNL1        0.0000
@<TRIPOS>BOND
     1     4     2    1
     2     4     5    1
     3     3     2    2
     4     2     1    1
     5     1     6    1
     6     6     7    1
     7     7     8    2
     8     7     9    1
     9     8    10    1
    10     9    11    2
    11    10    12    2
    12    11    12    1
