@<TRIPOS>MOLECULE
/home/cewinharhar/GITHUB/reincatalyze/data/processed/docking_pred/2023-Apr-25-1829_maxeplen10_maxtrainstep200_exh32_gamma099_lrac3e-4_lrcr1e-3/3c93f0ab1d0179ecce707f4524a6ff468bff7290_ligand_2.pdbqt
 12 12 0 0 0
SMALL
GASTEIGER

@<TRIPOS>ATOM
      1  C          8.2160   -0.8340   -2.0040 C.3     1  UNL1        0.1270
      2  C          8.3630   -2.0010   -2.8920 C.2     1  UNL1        0.3030
      3  O          9.5020   -2.5000   -3.0520 O.2     1  UNL1       -0.2520
      4  O          7.2760   -2.5510   -3.5430 O.3     1  UNL1       -0.4810
      5  H          6.2920   -2.3590   -3.2790 H       1  UNL1        0.2960
      6  C          7.4960   -1.3140   -0.7490 C.3     1  UNL1        0.0470
      7  C          6.6260   -0.2720   -0.1750 C.2     1  UNL1       -0.0470
      8  C          6.1800   -0.4390    1.1310 C.2     1  UNL1        0.0040
      9  C          6.2120    0.8560   -0.8350 C.2     1  UNL1        0.0040
     10  C          5.3510    0.5220    1.7060 C.2     1  UNL1        0.0000
     11  C          5.3910    1.8250   -0.2930 C.2     1  UNL1        0.0000
     12  C          4.9640    1.6320    1.0060 C.2     1  UNL1        0.0000
@<TRIPOS>BOND
     1     4     5    1
     2     4     2    1
     3     3     2    2
     4     2     1    1
     5     1     6    1
     6     9    11    1
     7     9     7    2
     8     6     7    1
     9    11    12    2
    10     7     8    1
    11    12    10    1
    12     8    10    2
