@<TRIPOS>MOLECULE
/home/cewinharhar/GITHUB/reincatalyze/data/processed/docking_pred/2023-Apr-25-1829_maxeplen10_maxtrainstep200_exh32_gamma099_lrac3e-4_lrcr1e-3/3c93f0ab1d0179ecce707f4524a6ff468bff7290_ligand_2.pdbqt
 12 12 0 0 0
SMALL
GASTEIGER

@<TRIPOS>ATOM
      1  C          8.3490    0.1620   -2.1250 C.3     1  UNL1        0.1270
      2  C          9.4260    0.3290   -1.1320 C.2     1  UNL1        0.3030
      3  O          9.4570   -0.4360   -0.1390 O.2     1  UNL1       -0.2520
      4  O         10.3930    1.3050   -1.2770 O.3     1  UNL1       -0.4810
      5  H         10.3670    2.0330   -2.0150 H       1  UNL1        0.2960
      6  C          7.2220   -0.6020   -1.4390 C.3     1  UNL1        0.0470
      7  C          6.3990    0.2700   -0.5830 C.2     1  UNL1       -0.0470
      8  C          6.1400   -0.1460    0.7170 C.2     1  UNL1        0.0040
      9  C          5.8600    1.4690   -0.9720 C.2     1  UNL1        0.0040
     10  C          5.3600    0.6490    1.5550 C.2     1  UNL1        0.0000
     11  C          5.0840    2.2790   -0.1660 C.2     1  UNL1        0.0000
     12  C          4.8420    1.8380    1.1200 C.2     1  UNL1        0.0000
@<TRIPOS>BOND
     1     1     6    1
     2     1     2    1
     3     5     4    1
     4     6     7    1
     5     4     2    1
     6     2     3    2
     7     9     7    2
     8     9    11    1
     9     7     8    1
    10    11    12    2
    11     8    10    2
    12    12    10    1
