@<TRIPOS>MOLECULE
/home/cewinharhar/GITHUB/reincatalyze/data/processed/docking_pred/2023-Apr-25-1829_maxeplen10_maxtrainstep200_exh32_gamma099_lrac3e-4_lrcr1e-3/3c93f0ab1d0179ecce707f4524a6ff468bff7290_ligand_2.pdbqt
 12 12 0 0 0
SMALL
GASTEIGER

@<TRIPOS>ATOM
      1  C          5.0110    1.7670    0.6980 C.3     1  UNL1        0.1270
      2  C          4.4800    1.1200    1.9110 C.2     1  UNL1        0.3030
      3  O          5.1600    0.2270    2.4680 O.2     1  UNL1       -0.2520
      4  O          3.2560    1.4800    2.4410 O.3     1  UNL1       -0.4810
      5  H          2.8560    1.0570    3.2990 H       1  UNL1        0.2960
      6  C          6.5320    1.7080    0.7890 C.3     1  UNL1        0.0470
      7  C          7.1250    0.9460   -0.3240 C.2     1  UNL1       -0.0470
      8  C          8.4480    1.2050   -0.6620 C.2     1  UNL1        0.0040
      9  C          6.4690   -0.0040   -1.0640 C.2     1  UNL1        0.0040
     10  C          9.0430    0.5090   -1.7130 C.2     1  UNL1        0.0000
     11  C          7.0300   -0.7100   -2.1090 C.2     1  UNL1        0.0000
     12  C          8.3460   -0.4300   -2.4220 C.2     1  UNL1        0.0000
@<TRIPOS>BOND
     1    12    11    2
     2    12    10    1
     3    11     9    1
     4    10     8    2
     5     9     7    2
     6     8     7    1
     7     7     6    1
     8     1     6    1
     9     1     2    1
    10     2     4    1
    11     2     3    2
    12     4     5    1
