@<TRIPOS>MOLECULE
/home/cewinharhar/GITHUB/reincatalyze/data/processed/docking_pred/2023-Apr-25-1829_maxeplen10_maxtrainstep200_exh32_gamma099_lrac3e-4_lrcr1e-3/3ef00b253c4480de2280c2f95d83164b82996574_ligand_2.pdbqt
 12 12 0 0 0
SMALL
GASTEIGER

@<TRIPOS>ATOM
      1  C          8.4580   -0.6840   -2.0630 C.3     1  UNL1        0.1270
      2  C          8.4170   -1.9170   -2.8700 C.2     1  UNL1        0.3030
      3  O          7.3020   -2.3860   -3.2010 O.2     1  UNL1       -0.2520
      4  O          9.5750   -2.5590   -3.2640 O.3     1  UNL1       -0.4810
      5  H         10.2880   -2.1270   -3.8810 H       1  UNL1        0.2960
      6  C          7.0570   -0.0850   -2.0890 C.3     1  UNL1        0.0470
      7  C          6.4840    0.0480   -0.7380 C.2     1  UNL1       -0.0470
      8  C          5.8280    1.2300   -0.4190 C.2     1  UNL1        0.0040
      9  C          6.5520   -0.9100    0.2410 C.2     1  UNL1        0.0040
     10  C          5.2790    1.3950    0.8510 C.2     1  UNL1        0.0000
     11  C          6.0170   -0.7770    1.5070 C.2     1  UNL1        0.0000
     12  C          5.3730    0.4100    1.7950 C.2     1  UNL1        0.0000
@<TRIPOS>BOND
     1     5     4    1
     2     4     2    1
     3     3     2    2
     4     2     1    1
     5     6     1    1
     6     6     7    1
     7     7     8    2
     8     7     9    1
     9     8    10    1
    10     9    11    2
    11    10    12    2
    12    11    12    1
