@<TRIPOS>MOLECULE
/home/cewinharhar/GITHUB/reincatalyze/data/processed/docking_pred/2023-Apr-25-1829_maxeplen10_maxtrainstep200_exh32_gamma099_lrac3e-4_lrcr1e-3/3ef00b253c4480de2280c2f95d83164b82996574_ligand_2.pdbqt
 12 12 0 0 0
SMALL
GASTEIGER

@<TRIPOS>ATOM
      1  C          5.4860    2.8790   -0.0120 C.3     1  UNL1        0.1270
      2  C          6.2560    3.8280    0.8120 C.2     1  UNL1        0.3030
      3  O          6.8570    4.7710    0.2460 O.2     1  UNL1       -0.2520
      4  O          6.3250    3.6970    2.1850 O.3     1  UNL1       -0.4810
      5  H          6.8560    2.9460    2.6640 H       1  UNL1        0.2960
      6  C          4.9270    1.8190    0.9300 C.3     1  UNL1        0.0470
      7  C          5.7300    0.5840    0.9170 C.2     1  UNL1       -0.0470
      8  C          5.7970   -0.1650    2.0850 C.2     1  UNL1        0.0040
      9  C          6.4270    0.1130   -0.1660 C.2     1  UNL1        0.0040
     10  C          6.5520   -1.3360    2.1140 C.2     1  UNL1        0.0000
     11  C          7.1830   -1.0430   -0.1690 C.2     1  UNL1        0.0000
     12  C          7.2310   -1.7660    1.0070 C.2     1  UNL1        0.0000
@<TRIPOS>BOND
     1    11     9    1
     2    11    12    2
     3     9     7    2
     4     1     2    1
     5     1     6    1
     6     3     2    2
     7     2     4    1
     8     7     6    1
     9     7     8    1
    10    12    10    1
    11     8    10    2
    12     4     5    1
