@<TRIPOS>MOLECULE
/home/cewinharhar/GITHUB/reincatalyze/data/processed/docking_pred/2023-Apr-25-1829_maxeplen10_maxtrainstep200_exh32_gamma099_lrac3e-4_lrcr1e-3/3ef00b253c4480de2280c2f95d83164b82996574_ligand_2.pdbqt
 12 12 0 0 0
SMALL
GASTEIGER

@<TRIPOS>ATOM
      1  C          8.4220   -0.6960   -2.0590 C.3     1  UNL1        0.1270
      2  C          8.3970   -1.9270   -2.8690 C.2     1  UNL1        0.3030
      3  O          7.2900   -2.3980   -3.2190 O.2     1  UNL1       -0.2520
      4  O          9.5640   -2.5640   -3.2460 O.3     1  UNL1       -0.4810
      5  H         10.2050   -3.0290   -2.5760 H       1  UNL1        0.2960
      6  C          7.0250   -0.0900   -2.1210 C.3     1  UNL1        0.0470
      7  C          6.4530    0.1260   -0.7810 C.2     1  UNL1       -0.0470
      8  C          6.5720   -0.8950    0.1540 C.2     1  UNL1        0.0040
      9  C          5.8010    1.2640   -0.3790 C.2     1  UNL1        0.0040
     10  C          6.0380   -0.7300    1.4310 C.2     1  UNL1        0.0000
     11  C          5.2620    1.4580    0.8770 C.2     1  UNL1        0.0000
     12  C          5.3960    0.4240    1.7840 C.2     1  UNL1        0.0000
@<TRIPOS>BOND
     1     4     2    1
     2     4     5    1
     3     3     2    2
     4     2     1    1
     5     6     1    1
     6     6     7    1
     7     7     9    2
     8     7     8    1
     9     9    11    1
    10     8    10    2
    11    11    12    2
    12    10    12    1
