@<TRIPOS>MOLECULE
/home/cewinharhar/GITHUB/reincatalyze/data/processed/docking_pred/2023-Apr-25-1829_maxeplen10_maxtrainstep200_exh32_gamma099_lrac3e-4_lrcr1e-3/3ef00b253c4480de2280c2f95d83164b82996574_ligand_2.pdbqt
 12 12 0 0 0
SMALL
GASTEIGER

@<TRIPOS>ATOM
      1  C          4.9820    1.7750    0.7000 C.3     1  UNL1        0.1270
      2  C          4.4760    1.1140    1.9160 C.2     1  UNL1        0.3030
      3  O          5.1780    0.2280    2.4590 O.2     1  UNL1       -0.2520
      4  O          3.2540    1.4510    2.4640 O.3     1  UNL1       -0.4810
      5  H          2.3930    1.5900    1.9030 H       1  UNL1        0.2960
      6  C          6.5040    1.7520    0.7770 C.3     1  UNL1        0.0470
      7  C          7.1040    0.9760   -0.3220 C.2     1  UNL1       -0.0470
      8  C          8.4340    1.2190   -0.6440 C.2     1  UNL1        0.0040
      9  C          6.4480    0.0270   -1.0630 C.2     1  UNL1        0.0040
     10  C          9.0360    0.5090   -1.6810 C.2     1  UNL1        0.0000
     11  C          7.0160   -0.6920   -2.0950 C.2     1  UNL1        0.0000
     12  C          8.3380   -0.4280   -2.3930 C.2     1  UNL1        0.0000
@<TRIPOS>BOND
     1    12    11    2
     2    12    10    1
     3    11     9    1
     4    10     8    2
     5     9     7    2
     6     8     7    1
     7     7     6    1
     8     1     6    1
     9     1     2    1
    10     5     4    1
    11     2     3    2
    12     2     4    1
