@<TRIPOS>MOLECULE
/home/cewinharhar/GITHUB/reincatalyze/data/processed/docking_pred/2023-Apr-25-1829_maxeplen10_maxtrainstep200_exh32_gamma099_lrac3e-4_lrcr1e-3/3ef00b253c4480de2280c2f95d83164b82996574_ligand_2.pdbqt
 12 12 0 0 0
SMALL
GASTEIGER

@<TRIPOS>ATOM
      1  C          4.9620    1.7990    0.7160 C.3     1  UNL1        0.1270
      2  C          4.4580    1.1220    1.9250 C.2     1  UNL1        0.3030
      3  O          5.1610    0.2310    2.4570 O.2     1  UNL1       -0.2520
      4  O          3.2350    1.4520    2.4770 O.3     1  UNL1       -0.4810
      5  H          2.7510    2.3520    2.3000 H       1  UNL1        0.2960
      6  C          6.4820    1.8400    0.8270 C.3     1  UNL1        0.0470
      7  C          7.1400    1.1330   -0.2860 C.2     1  UNL1       -0.0470
      8  C          6.3610    0.3060   -1.0860 C.2     1  UNL1        0.0040
      9  C          8.4730    1.2220   -0.5940 C.2     1  UNL1        0.0040
     10  C          6.9490   -0.3850   -2.1450 C.2     1  UNL1        0.0000
     11  C          9.0840    0.5510   -1.6350 C.2     1  UNL1        0.0000
     12  C          8.2850   -0.2640   -2.4120 C.2     1  UNL1        0.0000
@<TRIPOS>BOND
     1    12    10    2
     2    12    11    1
     3    10     8    1
     4    11     9    2
     5     8     7    2
     6     9     7    1
     7     7     6    1
     8     1     6    1
     9     1     2    1
    10     2     3    2
    11     2     4    1
    12     5     4    1
