@<TRIPOS>MOLECULE
/home/cewinharhar/GITHUB/reincatalyze/data/processed/docking_pred/2023-Apr-25-1829_maxeplen10_maxtrainstep200_exh32_gamma099_lrac3e-4_lrcr1e-3/4295960a5818388fac6ce93a10a8a6662c8ec52f_ligand_2.pdbqt
 12 12 0 0 0
SMALL
GASTEIGER

@<TRIPOS>ATOM
      1  C          5.3060    2.8710    0.0970 C.3     1  UNL1        0.1270
      2  C          6.1760    3.7780    0.8650 C.2     1  UNL1        0.3030
      3  O          6.2540    3.6330    2.1080 O.2     1  UNL1       -0.2520
      4  O          6.9040    4.7750    0.2450 O.3     1  UNL1       -0.4810
      5  H          7.7840    5.1660    0.6290 H       1  UNL1        0.2960
      6  C          5.2700    1.5430    0.8450 C.3     1  UNL1        0.0470
      7  C          6.0540    0.4990    0.1620 C.2     1  UNL1       -0.0470
      8  C          6.2990    0.6490   -1.1980 C.2     1  UNL1        0.0040
      9  C          6.5610   -0.6230    0.7650 C.2     1  UNL1        0.0040
     10  C          7.0310   -0.3200   -1.8800 C.2     1  UNL1        0.0000
     11  C          7.2900   -1.6010    0.1170 C.2     1  UNL1        0.0000
     12  C          7.5160   -1.4240   -1.2340 C.2     1  UNL1        0.0000
@<TRIPOS>BOND
     1    10    12    2
     2    10     8    1
     3    12    11    1
     4     8     7    2
     5     1     6    1
     6     1     2    1
     7    11     9    2
     8     7     9    1
     9     7     6    1
    10     4     5    1
    11     4     2    1
    12     2     3    2
