MODEL 1
REMARK VINA RESULT:      -7.2      0.000      0.000
REMARK SMILES O=C(O)CCc1ccccc1
REMARK SMILES IDX 4 1 2 2 1 3 3 4 5 6 6 7 7 8 11 9 8 10 10 11 9 12
REMARK H PARENT 3 5
REMARK Flexibility Score: inf
ROOT
ATOM      1  C   UNL     1       8.425  -0.704  -2.062  1.00  0.00     0.127 C 
ENDROOT
BRANCH   1   2
ATOM      2  C   UNL     1       8.403  -1.932  -2.876  1.00  0.00     0.303 C 
ATOM      3  O   UNL     1       7.296  -2.406  -3.226  1.00  0.00    -0.252 OA
BRANCH   2   4
ATOM      4  O   UNL     1       9.571  -2.563  -3.259  1.00  0.00    -0.481 OA
ATOM      5  H   UNL     1       9.851  -2.698  -4.248  1.00  0.00     0.296 HD
ENDBRANCH   2   4
ENDBRANCH   1   2
BRANCH   1   6
ATOM      6  C   UNL     1       7.034  -0.086  -2.146  1.00  0.00     0.047 C 
BRANCH   6   7
ATOM      7  C   UNL     1       6.453   0.158  -0.814  1.00  0.00    -0.047 A 
ATOM      8  C   UNL     1       6.596  -0.831   0.152  1.00  0.00     0.004 A 
ATOM      9  C   UNL     1       5.771   1.290  -0.449  1.00  0.00     0.004 A 
ATOM     10  C   UNL     1       6.054  -0.641   1.422  1.00  0.00     0.000 A 
ATOM     11  C   UNL     1       5.224   1.508   0.799  1.00  0.00     0.000 A 
ATOM     12  C   UNL     1       5.381   0.508   1.738  1.00  0.00     0.000 A 
ENDBRANCH   6   7
ENDBRANCH   1   6
TORSDOF 4
ENDMDL
MODEL 2
REMARK VINA RESULT:      -7.2      0.162      1.438
REMARK SMILES O=C(O)CCc1ccccc1
REMARK SMILES IDX 4 1 2 2 1 3 3 4 5 6 6 7 7 8 11 9 8 10 10 11 9 12
REMARK H PARENT 3 5
REMARK Flexibility Score: inf
ROOT
ATOM      1  C   UNL     1       8.418  -0.621  -2.156  1.00  0.00     0.127 C 
ENDROOT
BRANCH   1   2
ATOM      2  C   UNL     1       8.391  -1.895  -2.896  1.00  0.00     0.303 C 
ATOM      3  O   UNL     1       7.283  -2.386  -3.215  1.00  0.00    -0.252 OA
BRANCH   2   4
ATOM      4  O   UNL     1       9.557  -2.551  -3.242  1.00  0.00    -0.481 OA
ATOM      5  H   UNL     1      10.070  -3.183  -2.601  1.00  0.00     0.296 HD
ENDBRANCH   2   4
ENDBRANCH   1   2
BRANCH   1   6
ATOM      6  C   UNL     1       6.988  -0.095  -2.116  1.00  0.00     0.047 C 
BRANCH   6   7
ATOM      7  C   UNL     1       6.470   0.005  -0.740  1.00  0.00    -0.047 A 
ATOM      8  C   UNL     1       5.838   1.183  -0.363  1.00  0.00     0.004 A 
ATOM      9  C   UNL     1       6.569  -0.980   0.209  1.00  0.00     0.004 A 
ATOM     10  C   UNL     1       5.340   1.318   0.932  1.00  0.00     0.000 A 
ATOM     11  C   UNL     1       6.087  -0.877   1.499  1.00  0.00     0.000 A 
ATOM     12  C   UNL     1       5.464   0.306   1.845  1.00  0.00     0.000 A 
ENDBRANCH   6   7
ENDBRANCH   1   6
TORSDOF 4
ENDMDL
MODEL 3
REMARK VINA RESULT:      -6.8      3.299      5.166
REMARK SMILES O=C(O)CCc1ccccc1
REMARK SMILES IDX 4 1 2 2 1 3 3 4 5 6 6 7 7 8 11 9 8 10 10 11 9 12
REMARK H PARENT 3 5
REMARK Flexibility Score: inf
ROOT
ATOM      1  C   UNL     1       4.996   1.770   0.739  1.00  0.00     0.127 C 
ENDROOT
BRANCH   1   2
ATOM      2  C   UNL     1       4.462   1.098   1.937  1.00  0.00     0.303 C 
ATOM      3  O   UNL     1       5.140   0.190   2.473  1.00  0.00    -0.252 OA
BRANCH   2   4
ATOM      4  O   UNL     1       3.239   1.449   2.475  1.00  0.00    -0.481 OA
ATOM      5  H   UNL     1       3.100   1.685   3.475  1.00  0.00     0.296 HD
ENDBRANCH   2   4
ENDBRANCH   1   2
BRANCH   1   6
ATOM      6  C   UNL     1       6.516   1.699   0.825  1.00  0.00     0.047 C 
BRANCH   6   7
ATOM      7  C   UNL     1       7.101   0.936  -0.291  1.00  0.00    -0.047 A 
ATOM      8  C   UNL     1       8.411   1.218  -0.661  1.00  0.00     0.004 A 
ATOM      9  C   UNL     1       6.448  -0.035  -1.005  1.00  0.00     0.004 A 
ATOM     10  C   UNL     1       8.997   0.522  -1.716  1.00  0.00     0.000 A 
ATOM     11  C   UNL     1       7.001  -0.742  -2.055  1.00  0.00     0.000 A 
ATOM     12  C   UNL     1       8.304  -0.440  -2.400  1.00  0.00     0.000 A 
ENDBRANCH   6   7
ENDBRANCH   1   6
TORSDOF 4
ENDMDL
MODEL 4
REMARK VINA RESULT:      -6.6      2.060      2.576
REMARK SMILES O=C(O)CCc1ccccc1
REMARK SMILES IDX 4 1 2 2 1 3 3 4 5 6 6 7 7 8 11 9 8 10 10 11 9 12
REMARK H PARENT 3 5
REMARK Flexibility Score: inf
ROOT
ATOM      1  C   UNL     1       7.983  -2.227   0.842  1.00  0.00     0.127 C 
ENDROOT
BRANCH   1   2
ATOM      2  C   UNL     1       8.769  -3.361   0.327  1.00  0.00     0.303 C 
ATOM      3  O   UNL     1       9.632  -3.887   1.069  1.00  0.00    -0.252 OA
BRANCH   2   4
ATOM      4  O   UNL     1       8.573  -3.853  -0.950  1.00  0.00    -0.481 OA
ATOM      5  H   UNL     1       9.333  -3.960  -1.646  1.00  0.00     0.296 HD
ENDBRANCH   2   4
ENDBRANCH   1   2
BRANCH   1   6
ATOM      6  C   UNL     1       7.447  -1.468  -0.366  1.00  0.00     0.047 C 
BRANCH   6   7
ATOM      7  C   UNL     1       6.595  -0.331   0.025  1.00  0.00    -0.047 A 
ATOM      8  C   UNL     1       6.063  -0.324   1.309  1.00  0.00     0.004 A 
ATOM      9  C   UNL     1       6.277   0.728  -0.786  1.00  0.00     0.004 A 
ATOM     10  C   UNL     1       5.247   0.731   1.714  1.00  0.00     0.000 A 
ATOM     11  C   UNL     1       5.472   1.787  -0.414  1.00  0.00     0.000 A 
ATOM     12  C   UNL     1       4.958   1.766   0.867  1.00  0.00     0.000 A 
ENDBRANCH   6   7
ENDBRANCH   1   6
TORSDOF 4
ENDMDL
MODEL 5
REMARK VINA RESULT:      -6.5      3.660      5.110
REMARK SMILES O=C(O)CCc1ccccc1
REMARK SMILES IDX 4 1 2 2 1 3 3 4 5 6 6 7 7 8 11 9 8 10 10 11 9 12
REMARK H PARENT 3 5
REMARK Flexibility Score: inf
ROOT
ATOM      1  C   UNL     1       5.306   2.871   0.097  1.00  0.00     0.127 C 
ENDROOT
BRANCH   1   2
ATOM      2  C   UNL     1       6.176   3.778   0.865  1.00  0.00     0.303 C 
ATOM      3  O   UNL     1       6.254   3.633   2.108  1.00  0.00    -0.252 OA
BRANCH   2   4
ATOM      4  O   UNL     1       6.904   4.775   0.245  1.00  0.00    -0.481 OA
ATOM      5  H   UNL     1       7.784   5.166   0.629  1.00  0.00     0.296 HD
ENDBRANCH   2   4
ENDBRANCH   1   2
BRANCH   1   6
ATOM      6  C   UNL     1       5.270   1.543   0.845  1.00  0.00     0.047 C 
BRANCH   6   7
ATOM      7  C   UNL     1       6.054   0.499   0.162  1.00  0.00    -0.047 A 
ATOM      8  C   UNL     1       6.299   0.649  -1.198  1.00  0.00     0.004 A 
ATOM      9  C   UNL     1       6.561  -0.623   0.765  1.00  0.00     0.004 A 
ATOM     10  C   UNL     1       7.031  -0.320  -1.880  1.00  0.00     0.000 A 
ATOM     11  C   UNL     1       7.290  -1.601   0.117  1.00  0.00     0.000 A 
ATOM     12  C   UNL     1       7.516  -1.424  -1.234  1.00  0.00     0.000 A 
ENDBRANCH   6   7
ENDBRANCH   1   6
TORSDOF 4
ENDMDL
