@<TRIPOS>MOLECULE
/home/cewinharhar/GITHUB/reincatalyze/data/processed/docking_pred/2023-Apr-25-1829_maxeplen10_maxtrainstep200_exh32_gamma099_lrac3e-4_lrcr1e-3/4295960a5818388fac6ce93a10a8a6662c8ec52f_ligand_2.pdbqt
 12 12 0 0 0
SMALL
GASTEIGER

@<TRIPOS>ATOM
      1  C          4.9960    1.7700    0.7390 C.3     1  UNL1        0.1270
      2  C          4.4620    1.0980    1.9370 C.2     1  UNL1        0.3030
      3  O          5.1400    0.1900    2.4730 O.2     1  UNL1       -0.2520
      4  O          3.2390    1.4490    2.4750 O.3     1  UNL1       -0.4810
      5  H          3.1000    1.6850    3.4750 H       1  UNL1        0.2960
      6  C          6.5160    1.6990    0.8250 C.3     1  UNL1        0.0470
      7  C          7.1010    0.9360   -0.2910 C.2     1  UNL1       -0.0470
      8  C          8.4110    1.2180   -0.6610 C.2     1  UNL1        0.0040
      9  C          6.4480   -0.0350   -1.0050 C.2     1  UNL1        0.0040
     10  C          8.9970    0.5220   -1.7160 C.2     1  UNL1        0.0000
     11  C          7.0010   -0.7420   -2.0550 C.2     1  UNL1        0.0000
     12  C          8.3040   -0.4400   -2.4000 C.2     1  UNL1        0.0000
@<TRIPOS>BOND
     1    12    11    2
     2    12    10    1
     3    11     9    1
     4    10     8    2
     5     9     7    2
     6     8     7    1
     7     7     6    1
     8     1     6    1
     9     1     2    1
    10     2     3    2
    11     2     4    1
    12     4     5    1
