@<TRIPOS>MOLECULE
/home/cewinharhar/GITHUB/reincatalyze/data/processed/docking_pred/2023-Apr-25-1829_maxeplen10_maxtrainstep200_exh32_gamma099_lrac3e-4_lrcr1e-3/4295960a5818388fac6ce93a10a8a6662c8ec52f_ligand_2.pdbqt
 12 12 0 0 0
SMALL
GASTEIGER

@<TRIPOS>ATOM
      1  C          8.4180   -0.6210   -2.1560 C.3     1  UNL1        0.1270
      2  C          8.3910   -1.8950   -2.8960 C.2     1  UNL1        0.3030
      3  O          7.2830   -2.3860   -3.2150 O.2     1  UNL1       -0.2520
      4  O          9.5570   -2.5510   -3.2420 O.3     1  UNL1       -0.4810
      5  H         10.0700   -3.1830   -2.6010 H       1  UNL1        0.2960
      6  C          6.9880   -0.0950   -2.1160 C.3     1  UNL1        0.0470
      7  C          6.4700    0.0050   -0.7400 C.2     1  UNL1       -0.0470
      8  C          5.8380    1.1830   -0.3630 C.2     1  UNL1        0.0040
      9  C          6.5690   -0.9800    0.2090 C.2     1  UNL1        0.0040
     10  C          5.3400    1.3180    0.9320 C.2     1  UNL1        0.0000
     11  C          6.0870   -0.8770    1.4990 C.2     1  UNL1        0.0000
     12  C          5.4640    0.3060    1.8450 C.2     1  UNL1        0.0000
@<TRIPOS>BOND
     1     4     2    1
     2     4     5    1
     3     3     2    2
     4     2     1    1
     5     1     6    1
     6     6     7    1
     7     7     8    2
     8     7     9    1
     9     8    10    1
    10     9    11    2
    11    10    12    2
    12    11    12    1
