@<TRIPOS>MOLECULE
/home/cewinharhar/GITHUB/reincatalyze/data/processed/docking_pred/2023-Apr-25-1829_maxeplen10_maxtrainstep200_exh32_gamma099_lrac3e-4_lrcr1e-3/4295960a5818388fac6ce93a10a8a6662c8ec52f_ligand_2.pdbqt
 12 12 0 0 0
SMALL
GASTEIGER

@<TRIPOS>ATOM
      1  C          7.9830   -2.2270    0.8420 C.3     1  UNL1        0.1270
      2  C          8.7690   -3.3610    0.3270 C.2     1  UNL1        0.3030
      3  O          9.6320   -3.8870    1.0690 O.2     1  UNL1       -0.2520
      4  O          8.5730   -3.8530   -0.9500 O.3     1  UNL1       -0.4810
      5  H          9.3330   -3.9600   -1.6460 H       1  UNL1        0.2960
      6  C          7.4470   -1.4680   -0.3660 C.3     1  UNL1        0.0470
      7  C          6.5950   -0.3310    0.0250 C.2     1  UNL1       -0.0470
      8  C          6.0630   -0.3240    1.3090 C.2     1  UNL1        0.0040
      9  C          6.2770    0.7280   -0.7860 C.2     1  UNL1        0.0040
     10  C          5.2470    0.7310    1.7140 C.2     1  UNL1        0.0000
     11  C          5.4720    1.7870   -0.4140 C.2     1  UNL1        0.0000
     12  C          4.9580    1.7660    0.8670 C.2     1  UNL1        0.0000
@<TRIPOS>BOND
     1     5     4    1
     2     4     2    1
     3     9    11    1
     4     9     7    2
     5    11    12    2
     6     6     7    1
     7     6     1    1
     8     7     8    1
     9     2     1    1
    10     2     3    2
    11    12    10    1
    12     8    10    2
