@<TRIPOS>MOLECULE
/home/cewinharhar/GITHUB/reincatalyze/data/processed/docking_pred/2023-Apr-25-1829_maxeplen10_maxtrainstep200_exh32_gamma099_lrac3e-4_lrcr1e-3/46861e00ed193d15618049a480e2ca269f83ce14_ligand_2.pdbqt
 12 12 0 0 0
SMALL
GASTEIGER

@<TRIPOS>ATOM
      1  C          4.9910    1.7640    0.7430 C.3     1  UNL1        0.1270
      2  C          4.4560    1.0980    1.9430 C.2     1  UNL1        0.3030
      3  O          5.1320    0.1920    2.4850 O.2     1  UNL1       -0.2520
      4  O          3.2320    1.4530    2.4780 O.3     1  UNL1       -0.4810
      5  H          2.3970    0.8390    2.4560 H       1  UNL1        0.2960
      6  C          6.5110    1.6930    0.8320 C.3     1  UNL1        0.0470
      7  C          7.0990    0.9360   -0.2870 C.2     1  UNL1       -0.0470
      8  C          8.4050    1.2280   -0.6610 C.2     1  UNL1        0.0040
      9  C          6.4520   -0.0400   -1.0000 C.2     1  UNL1        0.0040
     10  C          8.9930    0.5380   -1.7180 C.2     1  UNL1        0.0000
     11  C          7.0070   -0.7420   -2.0520 C.2     1  UNL1        0.0000
     12  C          8.3060   -0.4290   -2.4010 C.2     1  UNL1        0.0000
@<TRIPOS>BOND
     1    12    11    2
     2    12    10    1
     3    11     9    1
     4    10     8    2
     5     9     7    2
     6     8     7    1
     7     7     6    1
     8     1     6    1
     9     1     2    1
    10     2     4    1
    11     2     3    2
    12     5     4    1
