MODEL 1
REMARK VINA RESULT:      -7.3      0.000      0.000
REMARK SMILES O=C(O)CCc1ccccc1
REMARK SMILES IDX 4 1 2 2 1 3 3 4 5 6 6 7 7 8 11 9 8 10 10 11 9 12
REMARK H PARENT 3 5
REMARK Flexibility Score: inf
ROOT
ATOM      1  C   UNL     1       8.462  -0.612  -2.185  1.00  0.00     0.127 C 
ENDROOT
BRANCH   1   2
ATOM      2  C   UNL     1       8.469  -1.890  -2.919  1.00  0.00     0.303 C 
ATOM      3  O   UNL     1       9.558  -2.490  -3.078  1.00  0.00    -0.252 OA
BRANCH   2   4
ATOM      4  O   UNL     1       7.306  -2.433  -3.430  1.00  0.00    -0.481 OA
ATOM      5  H   UNL     1       6.359  -2.188  -3.084  1.00  0.00     0.296 HD
ENDBRANCH   2   4
ENDBRANCH   1   2
BRANCH   1   6
ATOM      6  C   UNL     1       7.020  -0.117  -2.161  1.00  0.00     0.047 C 
BRANCH   6   7
ATOM      7  C   UNL     1       6.496   0.001  -0.789  1.00  0.00    -0.047 A 
ATOM      8  C   UNL     1       5.864   1.186  -0.431  1.00  0.00     0.004 A 
ATOM      9  C   UNL     1       6.587  -0.971   0.173  1.00  0.00     0.004 A 
ATOM     10  C   UNL     1       5.360   1.338   0.859  1.00  0.00     0.000 A 
ATOM     11  C   UNL     1       6.099  -0.850   1.459  1.00  0.00     0.000 A 
ATOM     12  C   UNL     1       5.477   0.338   1.786  1.00  0.00     0.000 A 
ENDBRANCH   6   7
ENDBRANCH   1   6
TORSDOF 4
ENDMDL
MODEL 2
REMARK VINA RESULT:      -7.3      0.052      1.429
REMARK SMILES O=C(O)CCc1ccccc1
REMARK SMILES IDX 4 1 2 2 1 3 3 4 5 6 6 7 7 8 11 9 8 10 10 11 9 12
REMARK H PARENT 3 5
REMARK Flexibility Score: inf
ROOT
ATOM      1  C   UNL     1       8.446  -0.627  -2.149  1.00  0.00     0.127 C 
ENDROOT
BRANCH   1   2
ATOM      2  C   UNL     1       8.462  -1.889  -2.910  1.00  0.00     0.303 C 
ATOM      3  O   UNL     1       9.556  -2.473  -3.091  1.00  0.00    -0.252 OA
BRANCH   2   4
ATOM      4  O   UNL     1       7.300  -2.436  -3.421  1.00  0.00    -0.481 OA
ATOM      5  H   UNL     1       6.361  -2.018  -3.283  1.00  0.00     0.296 HD
ENDBRANCH   2   4
ENDBRANCH   1   2
BRANCH   1   6
ATOM      6  C   UNL     1       7.011  -0.114  -2.162  1.00  0.00     0.047 C 
BRANCH   6   7
ATOM      7  C   UNL     1       6.476   0.075  -0.802  1.00  0.00    -0.047 A 
ATOM      8  C   UNL     1       6.612  -0.970   0.105  1.00  0.00     0.004 A 
ATOM      9  C   UNL     1       5.843   1.207  -0.357  1.00  0.00     0.004 A 
ATOM     10  C   UNL     1       6.112  -0.832   1.399  1.00  0.00     0.000 A 
ATOM     11  C   UNL     1       5.339   1.374   0.918  1.00  0.00     0.000 A 
ATOM     12  C   UNL     1       5.488   0.319   1.796  1.00  0.00     0.000 A 
ENDBRANCH   6   7
ENDBRANCH   1   6
TORSDOF 4
ENDMDL
MODEL 3
REMARK VINA RESULT:      -7.2      0.338      1.756
REMARK SMILES O=C(O)CCc1ccccc1
REMARK SMILES IDX 4 1 2 2 1 3 3 4 5 6 6 7 7 8 11 9 8 10 10 11 9 12
REMARK H PARENT 3 5
REMARK Flexibility Score: inf
ROOT
ATOM      1  C   UNL     1       8.373  -0.937  -1.797  1.00  0.00     0.127 C 
ENDROOT
BRANCH   1   2
ATOM      2  C   UNL     1       8.363  -2.004  -2.813  1.00  0.00     0.303 C 
ATOM      3  O   UNL     1       7.263  -2.398  -3.267  1.00  0.00    -0.252 OA
BRANCH   2   4
ATOM      4  O   UNL     1       9.536  -2.572  -3.271  1.00  0.00    -0.481 OA
ATOM      5  H   UNL     1       9.572  -3.289  -4.020  1.00  0.00     0.296 HD
ENDBRANCH   2   4
ENDBRANCH   1   2
BRANCH   1   6
ATOM      6  C   UNL     1       7.111  -0.107  -2.007  1.00  0.00     0.047 C 
BRANCH   6   7
ATOM      7  C   UNL     1       6.444   0.222  -0.735  1.00  0.00    -0.047 A 
ATOM      8  C   UNL     1       6.501  -0.710   0.293  1.00  0.00     0.004 A 
ATOM      9  C   UNL     1       5.760   1.384  -0.485  1.00  0.00     0.004 A 
ATOM     10  C   UNL     1       5.876  -0.438   1.509  1.00  0.00     0.000 A 
ATOM     11  C   UNL     1       5.132   1.683   0.708  1.00  0.00     0.000 A 
ATOM     12  C   UNL     1       5.205   0.737   1.711  1.00  0.00     0.000 A 
ENDBRANCH   6   7
ENDBRANCH   1   6
TORSDOF 4
ENDMDL
MODEL 4
REMARK VINA RESULT:      -6.8      3.380      5.061
REMARK SMILES O=C(O)CCc1ccccc1
REMARK SMILES IDX 4 1 2 2 1 3 3 4 5 6 6 7 7 8 11 9 8 10 10 11 9 12
REMARK H PARENT 3 5
REMARK Flexibility Score: inf
ROOT
ATOM      1  C   UNL     1       4.991   1.764   0.743  1.00  0.00     0.127 C 
ENDROOT
BRANCH   1   2
ATOM      2  C   UNL     1       4.456   1.098   1.943  1.00  0.00     0.303 C 
ATOM      3  O   UNL     1       5.132   0.192   2.485  1.00  0.00    -0.252 OA
BRANCH   2   4
ATOM      4  O   UNL     1       3.232   1.453   2.478  1.00  0.00    -0.481 OA
ATOM      5  H   UNL     1       2.397   0.839   2.456  1.00  0.00     0.296 HD
ENDBRANCH   2   4
ENDBRANCH   1   2
BRANCH   1   6
ATOM      6  C   UNL     1       6.511   1.693   0.832  1.00  0.00     0.047 C 
BRANCH   6   7
ATOM      7  C   UNL     1       7.099   0.936  -0.287  1.00  0.00    -0.047 A 
ATOM      8  C   UNL     1       8.405   1.228  -0.661  1.00  0.00     0.004 A 
ATOM      9  C   UNL     1       6.452  -0.040  -1.000  1.00  0.00     0.004 A 
ATOM     10  C   UNL     1       8.993   0.538  -1.718  1.00  0.00     0.000 A 
ATOM     11  C   UNL     1       7.007  -0.742  -2.052  1.00  0.00     0.000 A 
ATOM     12  C   UNL     1       8.306  -0.429  -2.401  1.00  0.00     0.000 A 
ENDBRANCH   6   7
ENDBRANCH   1   6
TORSDOF 4
ENDMDL
MODEL 5
REMARK VINA RESULT:      -6.6      1.934      2.662
REMARK SMILES O=C(O)CCc1ccccc1
REMARK SMILES IDX 4 1 2 2 1 3 3 4 5 6 6 7 7 8 11 9 8 10 10 11 9 12
REMARK H PARENT 3 5
REMARK Flexibility Score: inf
ROOT
ATOM      1  C   UNL     1       8.295   0.061  -2.177  1.00  0.00     0.127 C 
ENDROOT
BRANCH   1   2
ATOM      2  C   UNL     1       9.395   0.317  -1.230  1.00  0.00     0.303 C 
ATOM      3  O   UNL     1       9.483  -0.392  -0.200  1.00  0.00    -0.252 OA
BRANCH   2   4
ATOM      4  O   UNL     1      10.324   1.314  -1.457  1.00  0.00    -0.481 OA
ATOM      5  H   UNL     1      10.940   1.344  -2.291  1.00  0.00     0.296 HD
ENDBRANCH   2   4
ENDBRANCH   1   2
BRANCH   1   6
ATOM      6  C   UNL     1       7.209  -0.685  -1.411  1.00  0.00     0.047 C 
BRANCH   6   7
ATOM      7  C   UNL     1       6.402   0.217  -0.570  1.00  0.00    -0.047 A 
ATOM      8  C   UNL     1       6.149  -0.165   0.742  1.00  0.00     0.004 A 
ATOM      9  C   UNL     1       5.870   1.411  -0.985  1.00  0.00     0.004 A 
ATOM     10  C   UNL     1       5.384   0.658   1.566  1.00  0.00     0.000 A 
ATOM     11  C   UNL     1       5.110   2.248  -0.193  1.00  0.00     0.000 A 
ATOM     12  C   UNL     1       4.874   1.842   1.106  1.00  0.00     0.000 A 
ENDBRANCH   6   7
ENDBRANCH   1   6
TORSDOF 4
ENDMDL
