@<TRIPOS>MOLECULE
/home/cewinharhar/GITHUB/reincatalyze/data/processed/docking_pred/2023-Apr-25-1829_maxeplen10_maxtrainstep200_exh32_gamma099_lrac3e-4_lrcr1e-3/46861e00ed193d15618049a480e2ca269f83ce14_ligand_2.pdbqt
 12 12 0 0 0
SMALL
GASTEIGER

@<TRIPOS>ATOM
      1  C          8.4620   -0.6120   -2.1850 C.3     1  UNL1        0.1270
      2  C          8.4690   -1.8900   -2.9190 C.2     1  UNL1        0.3030
      3  O          9.5580   -2.4900   -3.0780 O.2     1  UNL1       -0.2520
      4  O          7.3060   -2.4330   -3.4300 O.3     1  UNL1       -0.4810
      5  H          6.3590   -2.1880   -3.0840 H       1  UNL1        0.2960
      6  C          7.0200   -0.1170   -2.1610 C.3     1  UNL1        0.0470
      7  C          6.4960    0.0010   -0.7890 C.2     1  UNL1       -0.0470
      8  C          5.8640    1.1860   -0.4310 C.2     1  UNL1        0.0040
      9  C          6.5870   -0.9710    0.1730 C.2     1  UNL1        0.0040
     10  C          5.3600    1.3380    0.8590 C.2     1  UNL1        0.0000
     11  C          6.0990   -0.8500    1.4590 C.2     1  UNL1        0.0000
     12  C          5.4770    0.3380    1.7860 C.2     1  UNL1        0.0000
@<TRIPOS>BOND
     1     4     5    1
     2     4     2    1
     3     3     2    2
     4     2     1    1
     5     1     6    1
     6     6     7    1
     7     7     8    2
     8     7     9    1
     9     8    10    1
    10     9    11    2
    11    10    12    2
    12    11    12    1
