@<TRIPOS>MOLECULE
/home/cewinharhar/GITHUB/reincatalyze/data/processed/docking_pred/2023-Apr-25-1829_maxeplen10_maxtrainstep200_exh32_gamma099_lrac3e-4_lrcr1e-3/46861e00ed193d15618049a480e2ca269f83ce14_ligand_2.pdbqt
 12 12 0 0 0
SMALL
GASTEIGER

@<TRIPOS>ATOM
      1  C          8.3730   -0.9370   -1.7970 C.3     1  UNL1        0.1270
      2  C          8.3630   -2.0040   -2.8130 C.2     1  UNL1        0.3030
      3  O          7.2630   -2.3980   -3.2670 O.2     1  UNL1       -0.2520
      4  O          9.5360   -2.5720   -3.2710 O.3     1  UNL1       -0.4810
      5  H          9.5720   -3.2890   -4.0200 H       1  UNL1        0.2960
      6  C          7.1110   -0.1070   -2.0070 C.3     1  UNL1        0.0470
      7  C          6.4440    0.2220   -0.7350 C.2     1  UNL1       -0.0470
      8  C          6.5010   -0.7100    0.2930 C.2     1  UNL1        0.0040
      9  C          5.7600    1.3840   -0.4850 C.2     1  UNL1        0.0040
     10  C          5.8760   -0.4380    1.5090 C.2     1  UNL1        0.0000
     11  C          5.1320    1.6830    0.7080 C.2     1  UNL1        0.0000
     12  C          5.2050    0.7370    1.7110 C.2     1  UNL1        0.0000
@<TRIPOS>BOND
     1     5     4    1
     2     4     2    1
     3     3     2    2
     4     2     1    1
     5     6     1    1
     6     6     7    1
     7     7     9    2
     8     7     8    1
     9     9    11    1
    10     8    10    2
    11    11    12    2
    12    10    12    1
