@<TRIPOS>MOLECULE
/home/cewinharhar/GITHUB/reincatalyze/data/processed/docking_pred/2023-Apr-25-1829_maxeplen10_maxtrainstep200_exh32_gamma099_lrac3e-4_lrcr1e-3/46861e00ed193d15618049a480e2ca269f83ce14_ligand_2.pdbqt
 12 12 0 0 0
SMALL
GASTEIGER

@<TRIPOS>ATOM
      1  C          8.4460   -0.6270   -2.1490 C.3     1  UNL1        0.1270
      2  C          8.4620   -1.8890   -2.9100 C.2     1  UNL1        0.3030
      3  O          9.5560   -2.4730   -3.0910 O.2     1  UNL1       -0.2520
      4  O          7.3000   -2.4360   -3.4210 O.3     1  UNL1       -0.4810
      5  H          6.3610   -2.0180   -3.2830 H       1  UNL1        0.2960
      6  C          7.0110   -0.1140   -2.1620 C.3     1  UNL1        0.0470
      7  C          6.4760    0.0750   -0.8020 C.2     1  UNL1       -0.0470
      8  C          6.6120   -0.9700    0.1050 C.2     1  UNL1        0.0040
      9  C          5.8430    1.2070   -0.3570 C.2     1  UNL1        0.0040
     10  C          6.1120   -0.8320    1.3990 C.2     1  UNL1        0.0000
     11  C          5.3390    1.3740    0.9180 C.2     1  UNL1        0.0000
     12  C          5.4880    0.3190    1.7960 C.2     1  UNL1        0.0000
@<TRIPOS>BOND
     1     4     5    1
     2     4     2    1
     3     3     2    2
     4     2     1    1
     5     6     1    1
     6     6     7    1
     7     7     9    2
     8     7     8    1
     9     9    11    1
    10     8    10    2
    11    11    12    2
    12    10    12    1
