@<TRIPOS>MOLECULE
/home/cewinharhar/GITHUB/reincatalyze/data/processed/docking_pred/2023-Apr-25-1829_maxeplen10_maxtrainstep200_exh32_gamma099_lrac3e-4_lrcr1e-3/46861e00ed193d15618049a480e2ca269f83ce14_ligand_2.pdbqt
 12 12 0 0 0
SMALL
GASTEIGER

@<TRIPOS>ATOM
      1  C          8.2950    0.0610   -2.1770 C.3     1  UNL1        0.1270
      2  C          9.3950    0.3170   -1.2300 C.2     1  UNL1        0.3030
      3  O          9.4830   -0.3920   -0.2000 O.2     1  UNL1       -0.2520
      4  O         10.3240    1.3140   -1.4570 O.3     1  UNL1       -0.4810
      5  H         10.9400    1.3440   -2.2910 H       1  UNL1        0.2960
      6  C          7.2090   -0.6850   -1.4110 C.3     1  UNL1        0.0470
      7  C          6.4020    0.2170   -0.5700 C.2     1  UNL1       -0.0470
      8  C          6.1490   -0.1650    0.7420 C.2     1  UNL1        0.0040
      9  C          5.8700    1.4110   -0.9850 C.2     1  UNL1        0.0040
     10  C          5.3840    0.6580    1.5660 C.2     1  UNL1        0.0000
     11  C          5.1100    2.2480   -0.1930 C.2     1  UNL1        0.0000
     12  C          4.8740    1.8420    1.1060 C.2     1  UNL1        0.0000
@<TRIPOS>BOND
     1     5     4    1
     2     1     6    1
     3     1     2    1
     4     4     2    1
     5     6     7    1
     6     2     3    2
     7     9     7    2
     8     9    11    1
     9     7     8    1
    10    11    12    2
    11     8    10    2
    12    12    10    1
