@<TRIPOS>MOLECULE
/home/cewinharhar/GITHUB/reincatalyze/data/processed/docking_pred/2023-Apr-25-1829_maxeplen10_maxtrainstep200_exh32_gamma099_lrac3e-4_lrcr1e-3/4a3a178b6a4326eb13634b12f3ce9c4ec26f8538_ligand_2.pdbqt
 12 12 0 0 0
SMALL
GASTEIGER

@<TRIPOS>ATOM
      1  C          4.9930    1.7780    0.7300 C.3     1  UNL1        0.1270
      2  C          4.4610    1.1080    1.9300 C.2     1  UNL1        0.3030
      3  O          5.1400    0.2030    2.4690 O.2     1  UNL1       -0.2520
      4  O          3.2370    1.4600    2.4670 O.3     1  UNL1       -0.4810
      5  H          2.4230    0.8190    2.5050 H       1  UNL1        0.2960
      6  C          6.5130    1.7120    0.8180 C.3     1  UNL1        0.0470
      7  C          7.1020    0.9450   -0.2940 C.2     1  UNL1       -0.0470
      8  C          8.4090    1.2350   -0.6680 C.2     1  UNL1        0.0040
      9  C          6.4550   -0.0360   -1.0000 C.2     1  UNL1        0.0040
     10  C          8.9980    0.5350   -1.7190 C.2     1  UNL1        0.0000
     11  C          7.0120   -0.7470   -2.0450 C.2     1  UNL1        0.0000
     12  C          8.3120   -0.4370   -2.3940 C.2     1  UNL1        0.0000
@<TRIPOS>BOND
     1    12    11    2
     2    12    10    1
     3    11     9    1
     4    10     8    2
     5     9     7    2
     6     8     7    1
     7     7     6    1
     8     1     6    1
     9     1     2    1
    10     2     4    1
    11     2     3    2
    12     4     5    1
