MODEL 1
REMARK VINA RESULT:      -7.3      0.000      0.000
REMARK SMILES O=C(O)CCc1ccccc1
REMARK SMILES IDX 4 1 2 2 1 3 3 4 5 6 6 7 7 8 11 9 8 10 10 11 9 12
REMARK H PARENT 3 5
REMARK Flexibility Score: inf
ROOT
ATOM      1  C   UNL     1       8.462  -0.683  -2.065  1.00  0.00     0.127 C 
ENDROOT
BRANCH   1   2
ATOM      2  C   UNL     1       8.412  -1.915  -2.871  1.00  0.00     0.303 C 
ATOM      3  O   UNL     1       7.295  -2.380  -3.199  1.00  0.00    -0.252 OA
BRANCH   2   4
ATOM      4  O   UNL     1       9.567  -2.561  -3.270  1.00  0.00    -0.481 OA
ATOM      5  H   UNL     1       9.733  -2.890  -4.240  1.00  0.00     0.296 HD
ENDBRANCH   2   4
ENDBRANCH   1   2
BRANCH   1   6
ATOM      6  C   UNL     1       7.065  -0.073  -2.093  1.00  0.00     0.047 C 
BRANCH   6   7
ATOM      7  C   UNL     1       6.488   0.057  -0.744  1.00  0.00    -0.047 A 
ATOM      8  C   UNL     1       5.815   1.232  -0.431  1.00  0.00     0.004 A 
ATOM      9  C   UNL     1       6.568  -0.895   0.239  1.00  0.00     0.004 A 
ATOM     10  C   UNL     1       5.260   1.395   0.837  1.00  0.00     0.000 A 
ATOM     11  C   UNL     1       6.029  -0.764   1.504  1.00  0.00     0.000 A 
ATOM     12  C   UNL     1       5.367   0.415   1.786  1.00  0.00     0.000 A 
ENDBRANCH   6   7
ENDBRANCH   1   6
TORSDOF 4
ENDMDL
MODEL 2
REMARK VINA RESULT:      -7.2      0.067      1.429
REMARK SMILES O=C(O)CCc1ccccc1
REMARK SMILES IDX 4 1 2 2 1 3 3 4 5 6 6 7 7 8 11 9 8 10 10 11 9 12
REMARK H PARENT 3 5
REMARK Flexibility Score: inf
ROOT
ATOM      1  C   UNL     1       8.421  -0.664  -2.092  1.00  0.00     0.127 C 
ENDROOT
BRANCH   1   2
ATOM      2  C   UNL     1       8.399  -1.911  -2.876  1.00  0.00     0.303 C 
ATOM      3  O   UNL     1       7.292  -2.395  -3.213  1.00  0.00    -0.252 OA
BRANCH   2   4
ATOM      4  O   UNL     1       9.567  -2.551  -3.244  1.00  0.00    -0.481 OA
ATOM      5  H   UNL     1       9.600  -3.342  -3.914  1.00  0.00     0.296 HD
ENDBRANCH   2   4
ENDBRANCH   1   2
BRANCH   1   6
ATOM      6  C   UNL     1       7.013  -0.082  -2.136  1.00  0.00     0.047 C 
BRANCH   6   7
ATOM      7  C   UNL     1       6.453   0.121  -0.788  1.00  0.00    -0.047 A 
ATOM      8  C   UNL     1       6.575  -0.913   0.132  1.00  0.00     0.004 A 
ATOM      9  C   UNL     1       5.811   1.257  -0.367  1.00  0.00     0.004 A 
ATOM     10  C   UNL     1       6.053  -0.761   1.416  1.00  0.00     0.000 A 
ATOM     11  C   UNL     1       5.283   1.437   0.896  1.00  0.00     0.000 A 
ATOM     12  C   UNL     1       5.419   0.392   1.789  1.00  0.00     0.000 A 
ENDBRANCH   6   7
ENDBRANCH   1   6
TORSDOF 4
ENDMDL
MODEL 3
REMARK VINA RESULT:      -6.8      3.290      5.138
REMARK SMILES O=C(O)CCc1ccccc1
REMARK SMILES IDX 4 1 2 2 1 3 3 4 5 6 6 7 7 8 11 9 8 10 10 11 9 12
REMARK H PARENT 3 5
REMARK Flexibility Score: inf
ROOT
ATOM      1  C   UNL     1       4.993   1.778   0.730  1.00  0.00     0.127 C 
ENDROOT
BRANCH   1   2
ATOM      2  C   UNL     1       4.461   1.108   1.930  1.00  0.00     0.303 C 
ATOM      3  O   UNL     1       5.140   0.203   2.469  1.00  0.00    -0.252 OA
BRANCH   2   4
ATOM      4  O   UNL     1       3.237   1.460   2.467  1.00  0.00    -0.481 OA
ATOM      5  H   UNL     1       2.423   0.819   2.505  1.00  0.00     0.296 HD
ENDBRANCH   2   4
ENDBRANCH   1   2
BRANCH   1   6
ATOM      6  C   UNL     1       6.513   1.712   0.818  1.00  0.00     0.047 C 
BRANCH   6   7
ATOM      7  C   UNL     1       7.102   0.945  -0.294  1.00  0.00    -0.047 A 
ATOM      8  C   UNL     1       8.409   1.235  -0.668  1.00  0.00     0.004 A 
ATOM      9  C   UNL     1       6.455  -0.036  -1.000  1.00  0.00     0.004 A 
ATOM     10  C   UNL     1       8.998   0.535  -1.719  1.00  0.00     0.000 A 
ATOM     11  C   UNL     1       7.012  -0.747  -2.045  1.00  0.00     0.000 A 
ATOM     12  C   UNL     1       8.312  -0.437  -2.394  1.00  0.00     0.000 A 
ENDBRANCH   6   7
ENDBRANCH   1   6
TORSDOF 4
ENDMDL
MODEL 4
REMARK VINA RESULT:      -6.6      1.904      2.583
REMARK SMILES O=C(O)CCc1ccccc1
REMARK SMILES IDX 4 1 2 2 1 3 3 4 5 6 6 7 7 8 11 9 8 10 10 11 9 12
REMARK H PARENT 3 5
REMARK Flexibility Score: inf
ROOT
ATOM      1  C   UNL     1       8.238   0.228  -2.230  1.00  0.00     0.127 C 
ENDROOT
BRANCH   1   2
ATOM      2  C   UNL     1       9.359   0.359  -1.284  1.00  0.00     0.303 C 
ATOM      3  O   UNL     1       9.422  -0.426  -0.308  1.00  0.00    -0.252 OA
BRANCH   2   4
ATOM      4  O   UNL     1      10.336   1.322  -1.453  1.00  0.00    -0.481 OA
ATOM      5  H   UNL     1      10.647   1.666  -2.380  1.00  0.00     0.296 HD
ENDBRANCH   2   4
ENDBRANCH   1   2
BRANCH   1   6
ATOM      6  C   UNL     1       7.141  -0.558  -1.521  1.00  0.00     0.047 C 
BRANCH   6   7
ATOM      7  C   UNL     1       6.350   0.290  -0.611  1.00  0.00    -0.047 A 
ATOM      8  C   UNL     1       6.126  -0.169   0.681  1.00  0.00     0.004 A 
ATOM      9  C   UNL     1       5.807   1.504  -0.943  1.00  0.00     0.004 A 
ATOM     10  C   UNL     1       5.377   0.601   1.569  1.00  0.00     0.000 A 
ATOM     11  C   UNL     1       5.062   2.290  -0.087  1.00  0.00     0.000 A 
ATOM     12  C   UNL     1       4.855   1.808   1.191  1.00  0.00     0.000 A 
ENDBRANCH   6   7
ENDBRANCH   1   6
TORSDOF 4
ENDMDL
MODEL 5
REMARK VINA RESULT:      -6.6      2.054      2.798
REMARK SMILES O=C(O)CCc1ccccc1
REMARK SMILES IDX 4 1 2 2 1 3 3 4 5 6 6 7 7 8 11 9 8 10 10 11 9 12
REMARK H PARENT 3 5
REMARK Flexibility Score: inf
ROOT
ATOM      1  C   UNL     1       8.007  -2.112   0.828  1.00  0.00     0.127 C 
ENDROOT
BRANCH   1   2
ATOM      2  C   UNL     1       8.743  -3.284   0.321  1.00  0.00     0.303 C 
ATOM      3  O   UNL     1       9.567  -3.853   1.075  1.00  0.00    -0.252 OA
BRANCH   2   4
ATOM      4  O   UNL     1       8.540  -3.763  -0.959  1.00  0.00    -0.481 OA
ATOM      5  H   UNL     1       9.183  -4.426  -1.431  1.00  0.00     0.296 HD
ENDBRANCH   2   4
ENDBRANCH   1   2
BRANCH   1   6
ATOM      6  C   UNL     1       7.423  -1.392  -0.383  1.00  0.00     0.047 C 
BRANCH   6   7
ATOM      7  C   UNL     1       6.567  -0.257   0.006  1.00  0.00    -0.047 A 
ATOM      8  C   UNL     1       6.045  -0.242   1.293  1.00  0.00     0.004 A 
ATOM      9  C   UNL     1       6.237   0.793  -0.812  1.00  0.00     0.004 A 
ATOM     10  C   UNL     1       5.226   0.811   1.695  1.00  0.00     0.000 A 
ATOM     11  C   UNL     1       5.430   1.851  -0.443  1.00  0.00     0.000 A 
ATOM     12  C   UNL     1       4.924   1.837   0.842  1.00  0.00     0.000 A 
ENDBRANCH   6   7
ENDBRANCH   1   6
TORSDOF 4
ENDMDL
