@<TRIPOS>MOLECULE
/home/cewinharhar/GITHUB/reincatalyze/data/processed/docking_pred/2023-Apr-25-1829_maxeplen10_maxtrainstep200_exh32_gamma099_lrac3e-4_lrcr1e-3/4a3a178b6a4326eb13634b12f3ce9c4ec26f8538_ligand_2.pdbqt
 12 12 0 0 0
SMALL
GASTEIGER

@<TRIPOS>ATOM
      1  C          8.4210   -0.6640   -2.0920 C.3     1  UNL1        0.1270
      2  C          8.3990   -1.9110   -2.8760 C.2     1  UNL1        0.3030
      3  O          7.2920   -2.3950   -3.2130 O.2     1  UNL1       -0.2520
      4  O          9.5670   -2.5510   -3.2440 O.3     1  UNL1       -0.4810
      5  H          9.6000   -3.3420   -3.9140 H       1  UNL1        0.2960
      6  C          7.0130   -0.0820   -2.1360 C.3     1  UNL1        0.0470
      7  C          6.4530    0.1210   -0.7880 C.2     1  UNL1       -0.0470
      8  C          6.5750   -0.9130    0.1320 C.2     1  UNL1        0.0040
      9  C          5.8110    1.2570   -0.3670 C.2     1  UNL1        0.0040
     10  C          6.0530   -0.7610    1.4160 C.2     1  UNL1        0.0000
     11  C          5.2830    1.4370    0.8960 C.2     1  UNL1        0.0000
     12  C          5.4190    0.3920    1.7890 C.2     1  UNL1        0.0000
@<TRIPOS>BOND
     1     5     4    1
     2     4     2    1
     3     3     2    2
     4     2     1    1
     5     6     1    1
     6     6     7    1
     7     7     9    2
     8     7     8    1
     9     9    11    1
    10     8    10    2
    11    11    12    2
    12    10    12    1
