@<TRIPOS>MOLECULE
/home/cewinharhar/GITHUB/reincatalyze/data/processed/docking_pred/2023-Apr-25-1829_maxeplen10_maxtrainstep200_exh32_gamma099_lrac3e-4_lrcr1e-3/4a3a178b6a4326eb13634b12f3ce9c4ec26f8538_ligand_2.pdbqt
 12 12 0 0 0
SMALL
GASTEIGER

@<TRIPOS>ATOM
      1  C          8.2380    0.2280   -2.2300 C.3     1  UNL1        0.1270
      2  C          9.3590    0.3590   -1.2840 C.2     1  UNL1        0.3030
      3  O          9.4220   -0.4260   -0.3080 O.2     1  UNL1       -0.2520
      4  O         10.3360    1.3220   -1.4530 O.3     1  UNL1       -0.4810
      5  H         10.6470    1.6660   -2.3800 H       1  UNL1        0.2960
      6  C          7.1410   -0.5580   -1.5210 C.3     1  UNL1        0.0470
      7  C          6.3500    0.2900   -0.6110 C.2     1  UNL1       -0.0470
      8  C          6.1260   -0.1690    0.6810 C.2     1  UNL1        0.0040
      9  C          5.8070    1.5040   -0.9430 C.2     1  UNL1        0.0040
     10  C          5.3770    0.6010    1.5690 C.2     1  UNL1        0.0000
     11  C          5.0620    2.2900   -0.0870 C.2     1  UNL1        0.0000
     12  C          4.8550    1.8080    1.1910 C.2     1  UNL1        0.0000
@<TRIPOS>BOND
     1     5     4    1
     2     1     6    1
     3     1     2    1
     4     6     7    1
     5     4     2    1
     6     2     3    2
     7     9     7    2
     8     9    11    1
     9     7     8    1
    10    11    12    2
    11     8    10    2
    12    12    10    1
