@<TRIPOS>MOLECULE
/home/cewinharhar/GITHUB/reincatalyze/data/processed/docking_pred/2023-Apr-25-1829_maxeplen10_maxtrainstep200_exh32_gamma099_lrac3e-4_lrcr1e-3/4a3a178b6a4326eb13634b12f3ce9c4ec26f8538_ligand_2.pdbqt
 12 12 0 0 0
SMALL
GASTEIGER

@<TRIPOS>ATOM
      1  C          8.4620   -0.6830   -2.0650 C.3     1  UNL1        0.1270
      2  C          8.4120   -1.9150   -2.8710 C.2     1  UNL1        0.3030
      3  O          7.2950   -2.3800   -3.1990 O.2     1  UNL1       -0.2520
      4  O          9.5670   -2.5610   -3.2700 O.3     1  UNL1       -0.4810
      5  H          9.7330   -2.8900   -4.2400 H       1  UNL1        0.2960
      6  C          7.0650   -0.0730   -2.0930 C.3     1  UNL1        0.0470
      7  C          6.4880    0.0570   -0.7440 C.2     1  UNL1       -0.0470
      8  C          5.8150    1.2320   -0.4310 C.2     1  UNL1        0.0040
      9  C          6.5680   -0.8950    0.2390 C.2     1  UNL1        0.0040
     10  C          5.2600    1.3950    0.8370 C.2     1  UNL1        0.0000
     11  C          6.0290   -0.7640    1.5040 C.2     1  UNL1        0.0000
     12  C          5.3670    0.4150    1.7860 C.2     1  UNL1        0.0000
@<TRIPOS>BOND
     1     5     4    1
     2     4     2    1
     3     3     2    2
     4     2     1    1
     5     6     1    1
     6     6     7    1
     7     7     8    2
     8     7     9    1
     9     8    10    1
    10     9    11    2
    11    10    12    2
    12    11    12    1
