@<TRIPOS>MOLECULE
/home/cewinharhar/GITHUB/reincatalyze/data/processed/docking_pred/2023-Apr-25-1829_maxeplen10_maxtrainstep200_exh32_gamma099_lrac3e-4_lrcr1e-3/4a3a178b6a4326eb13634b12f3ce9c4ec26f8538_ligand_2.pdbqt
 12 12 0 0 0
SMALL
GASTEIGER

@<TRIPOS>ATOM
      1  C          8.0070   -2.1120    0.8280 C.3     1  UNL1        0.1270
      2  C          8.7430   -3.2840    0.3210 C.2     1  UNL1        0.3030
      3  O          9.5670   -3.8530    1.0750 O.2     1  UNL1       -0.2520
      4  O          8.5400   -3.7630   -0.9590 O.3     1  UNL1       -0.4810
      5  H          9.1830   -4.4260   -1.4310 H       1  UNL1        0.2960
      6  C          7.4230   -1.3920   -0.3830 C.3     1  UNL1        0.0470
      7  C          6.5670   -0.2570    0.0060 C.2     1  UNL1       -0.0470
      8  C          6.0450   -0.2420    1.2930 C.2     1  UNL1        0.0040
      9  C          6.2370    0.7930   -0.8120 C.2     1  UNL1        0.0040
     10  C          5.2260    0.8110    1.6950 C.2     1  UNL1        0.0000
     11  C          5.4300    1.8510   -0.4430 C.2     1  UNL1        0.0000
     12  C          4.9240    1.8370    0.8420 C.2     1  UNL1        0.0000
@<TRIPOS>BOND
     1     5     4    1
     2     4     2    1
     3     9    11    1
     4     9     7    2
     5    11    12    2
     6     6     7    1
     7     6     1    1
     8     7     8    1
     9     2     1    1
    10     2     3    2
    11    12    10    1
    12     8    10    2
