MODEL 1
REMARK VINA RESULT:      -7.3      0.000      0.000
REMARK SMILES O=C(O)CCc1ccccc1
REMARK SMILES IDX 4 1 2 2 1 3 3 4 5 6 6 7 7 8 11 9 8 10 10 11 9 12
REMARK H PARENT 3 5
REMARK Flexibility Score: inf
ROOT
ATOM      1  C   UNL     1       8.442  -0.606  -2.175  1.00  0.00     0.127 C 
ENDROOT
BRANCH   1   2
ATOM      2  C   UNL     1       8.462  -1.872  -2.928  1.00  0.00     0.303 C 
ATOM      3  O   UNL     1       9.557  -2.458  -3.097  1.00  0.00    -0.252 OA
BRANCH   2   4
ATOM      4  O   UNL     1       7.304  -2.422  -3.444  1.00  0.00    -0.481 OA
ATOM      5  H   UNL     1       7.286  -3.057  -4.263  1.00  0.00     0.296 HD
ENDBRANCH   2   4
ENDBRANCH   1   2
BRANCH   1   6
ATOM      6  C   UNL     1       7.002  -0.104  -2.180  1.00  0.00     0.047 C 
BRANCH   6   7
ATOM      7  C   UNL     1       6.472   0.078  -0.817  1.00  0.00    -0.047 A 
ATOM      8  C   UNL     1       6.607  -0.972   0.083  1.00  0.00     0.004 A 
ATOM      9  C   UNL     1       5.847   1.211  -0.364  1.00  0.00     0.004 A 
ATOM     10  C   UNL     1       6.113  -0.839   1.379  1.00  0.00     0.000 A 
ATOM     11  C   UNL     1       5.347   1.373   0.914  1.00  0.00     0.000 A 
ATOM     12  C   UNL     1       5.495   0.312   1.785  1.00  0.00     0.000 A 
ENDBRANCH   6   7
ENDBRANCH   1   6
TORSDOF 4
ENDMDL
MODEL 2
REMARK VINA RESULT:      -7.3      0.144      1.728
REMARK SMILES O=C(O)CCc1ccccc1
REMARK SMILES IDX 4 1 2 2 1 3 3 4 5 6 6 7 7 8 11 9 8 10 10 11 9 12
REMARK H PARENT 3 5
REMARK Flexibility Score: inf
ROOT
ATOM      1  C   UNL     1       8.450  -0.681  -2.071  1.00  0.00     0.127 C 
ENDROOT
BRANCH   1   2
ATOM      2  C   UNL     1       8.407  -1.919  -2.870  1.00  0.00     0.303 C 
ATOM      3  O   UNL     1       7.293  -2.383  -3.208  1.00  0.00    -0.252 OA
BRANCH   2   4
ATOM      4  O   UNL     1       9.565  -2.570  -3.251  1.00  0.00    -0.481 OA
ATOM      5  H   UNL     1       9.706  -2.984  -4.191  1.00  0.00     0.296 HD
ENDBRANCH   2   4
ENDBRANCH   1   2
BRANCH   1   6
ATOM      6  C   UNL     1       7.047  -0.086  -2.092  1.00  0.00     0.047 C 
BRANCH   6   7
ATOM      7  C   UNL     1       6.479   0.046  -0.738  1.00  0.00    -0.047 A 
ATOM      8  C   UNL     1       5.836   1.234  -0.412  1.00  0.00     0.004 A 
ATOM      9  C   UNL     1       6.541  -0.916   0.236  1.00  0.00     0.004 A 
ATOM     10  C   UNL     1       5.292   1.399   0.860  1.00  0.00     0.000 A 
ATOM     11  C   UNL     1       6.012  -0.783   1.505  1.00  0.00     0.000 A 
ATOM     12  C   UNL     1       5.380   0.409   1.800  1.00  0.00     0.000 A 
ENDBRANCH   6   7
ENDBRANCH   1   6
TORSDOF 4
ENDMDL
MODEL 3
REMARK VINA RESULT:      -6.8      3.388      5.077
REMARK SMILES O=C(O)CCc1ccccc1
REMARK SMILES IDX 4 1 2 2 1 3 3 4 5 6 6 7 7 8 11 9 8 10 10 11 9 12
REMARK H PARENT 3 5
REMARK Flexibility Score: inf
ROOT
ATOM      1  C   UNL     1       5.000   1.782   0.745  1.00  0.00     0.127 C 
ENDROOT
BRANCH   1   2
ATOM      2  C   UNL     1       4.463   1.108   1.941  1.00  0.00     0.303 C 
ATOM      3  O   UNL     1       5.141   0.203   2.481  1.00  0.00    -0.252 OA
BRANCH   2   4
ATOM      4  O   UNL     1       3.236   1.456   2.473  1.00  0.00    -0.481 OA
ATOM      5  H   UNL     1       2.732   2.328   2.228  1.00  0.00     0.296 HD
ENDBRANCH   2   4
ENDBRANCH   1   2
BRANCH   1   6
ATOM      6  C   UNL     1       6.519   1.765   0.865  1.00  0.00     0.047 C 
BRANCH   6   7
ATOM      7  C   UNL     1       7.158   1.074  -0.269  1.00  0.00    -0.047 A 
ATOM      8  C   UNL     1       6.380   0.212  -1.032  1.00  0.00     0.004 A 
ATOM      9  C   UNL     1       8.474   1.211  -0.632  1.00  0.00     0.004 A 
ATOM     10  C   UNL     1       6.951  -0.464  -2.109  1.00  0.00     0.000 A 
ATOM     11  C   UNL     1       9.067   0.556  -1.692  1.00  0.00     0.000 A 
ATOM     12  C   UNL     1       8.269  -0.295  -2.432  1.00  0.00     0.000 A 
ENDBRANCH   6   7
ENDBRANCH   1   6
TORSDOF 4
ENDMDL
MODEL 4
REMARK VINA RESULT:      -6.8      3.373      5.087
REMARK SMILES O=C(O)CCc1ccccc1
REMARK SMILES IDX 4 1 2 2 1 3 3 4 5 6 6 7 7 8 11 9 8 10 10 11 9 12
REMARK H PARENT 3 5
REMARK Flexibility Score: inf
ROOT
ATOM      1  C   UNL     1       5.009   1.774   0.723  1.00  0.00     0.127 C 
ENDROOT
BRANCH   1   2
ATOM      2  C   UNL     1       4.477   1.107   1.925  1.00  0.00     0.303 C 
ATOM      3  O   UNL     1       5.158   0.205   2.468  1.00  0.00    -0.252 OA
BRANCH   2   4
ATOM      4  O   UNL     1       3.253   1.457   2.460  1.00  0.00    -0.481 OA
ATOM      5  H   UNL     1       2.746   0.881   3.157  1.00  0.00     0.296 HD
ENDBRANCH   2   4
ENDBRANCH   1   2
BRANCH   1   6
ATOM      6  C   UNL     1       6.530   1.706   0.809  1.00  0.00     0.047 C 
BRANCH   6   7
ATOM      7  C   UNL     1       7.115   0.933  -0.301  1.00  0.00    -0.047 A 
ATOM      8  C   UNL     1       8.427   1.205  -0.667  1.00  0.00     0.004 A 
ATOM      9  C   UNL     1       6.459  -0.039  -1.012  1.00  0.00     0.004 A 
ATOM     10  C   UNL     1       9.013   0.499  -1.716  1.00  0.00     0.000 A 
ATOM     11  C   UNL     1       7.012  -0.755  -2.055  1.00  0.00     0.000 A 
ATOM     12  C   UNL     1       8.317  -0.462  -2.397  1.00  0.00     0.000 A 
ENDBRANCH   6   7
ENDBRANCH   1   6
TORSDOF 4
ENDMDL
MODEL 5
REMARK VINA RESULT:      -6.6      3.832      4.932
REMARK SMILES O=C(O)CCc1ccccc1
REMARK SMILES IDX 4 1 2 2 1 3 3 4 5 6 6 7 7 8 11 9 8 10 10 11 9 12
REMARK H PARENT 3 5
REMARK Flexibility Score: inf
ROOT
ATOM      1  C   UNL     1       5.471   2.902   0.012  1.00  0.00     0.127 C 
ENDROOT
BRANCH   1   2
ATOM      2  C   UNL     1       6.245   3.862   0.818  1.00  0.00     0.303 C 
ATOM      3  O   UNL     1       6.874   4.775   0.233  1.00  0.00    -0.252 OA
BRANCH   2   4
ATOM      4  O   UNL     1       6.287   3.776   2.196  1.00  0.00    -0.481 OA
ATOM      5  H   UNL     1       6.449   4.590   2.817  1.00  0.00     0.296 HD
ENDBRANCH   2   4
ENDBRANCH   1   2
BRANCH   1   6
ATOM      6  C   UNL     1       4.930   1.846   0.970  1.00  0.00     0.047 C 
BRANCH   6   7
ATOM      7  C   UNL     1       5.749   0.621   0.966  1.00  0.00    -0.047 A 
ATOM      8  C   UNL     1       5.728  -0.182   2.099  1.00  0.00     0.004 A 
ATOM      9  C   UNL     1       6.541   0.210  -0.074  1.00  0.00     0.004 A 
ATOM     10  C   UNL     1       6.494  -1.346   2.136  1.00  0.00     0.000 A 
ATOM     11  C   UNL     1       7.310  -0.937  -0.068  1.00  0.00     0.000 A 
ATOM     12  C   UNL     1       7.270  -1.715   1.072  1.00  0.00     0.000 A 
ENDBRANCH   6   7
ENDBRANCH   1   6
TORSDOF 4
ENDMDL
