@<TRIPOS>MOLECULE
/home/cewinharhar/GITHUB/reincatalyze/data/processed/docking_pred/2023-Apr-25-1829_maxeplen10_maxtrainstep200_exh32_gamma099_lrac3e-4_lrcr1e-3/4c41b041102a8d5d821093d1e21668bd2b50a839_ligand_2.pdbqt
 12 12 0 0 0
SMALL
GASTEIGER

@<TRIPOS>ATOM
      1  C          5.0090    1.7740    0.7230 C.3     1  UNL1        0.1270
      2  C          4.4770    1.1070    1.9250 C.2     1  UNL1        0.3030
      3  O          5.1580    0.2050    2.4680 O.2     1  UNL1       -0.2520
      4  O          3.2530    1.4570    2.4600 O.3     1  UNL1       -0.4810
      5  H          2.7460    0.8810    3.1570 H       1  UNL1        0.2960
      6  C          6.5300    1.7060    0.8090 C.3     1  UNL1        0.0470
      7  C          7.1150    0.9330   -0.3010 C.2     1  UNL1       -0.0470
      8  C          8.4270    1.2050   -0.6670 C.2     1  UNL1        0.0040
      9  C          6.4590   -0.0390   -1.0120 C.2     1  UNL1        0.0040
     10  C          9.0130    0.4990   -1.7160 C.2     1  UNL1        0.0000
     11  C          7.0120   -0.7550   -2.0550 C.2     1  UNL1        0.0000
     12  C          8.3170   -0.4620   -2.3970 C.2     1  UNL1        0.0000
@<TRIPOS>BOND
     1    12    11    2
     2    12    10    1
     3    11     9    1
     4    10     8    2
     5     9     7    2
     6     8     7    1
     7     7     6    1
     8     1     6    1
     9     1     2    1
    10     2     4    1
    11     2     3    2
    12     4     5    1
