@<TRIPOS>MOLECULE
/home/cewinharhar/GITHUB/reincatalyze/data/processed/docking_pred/2023-Apr-25-1829_maxeplen10_maxtrainstep200_exh32_gamma099_lrac3e-4_lrcr1e-3/4c41b041102a8d5d821093d1e21668bd2b50a839_ligand_2.pdbqt
 12 12 0 0 0
SMALL
GASTEIGER

@<TRIPOS>ATOM
      1  C          8.4420   -0.6060   -2.1750 C.3     1  UNL1        0.1270
      2  C          8.4620   -1.8720   -2.9280 C.2     1  UNL1        0.3030
      3  O          9.5570   -2.4580   -3.0970 O.2     1  UNL1       -0.2520
      4  O          7.3040   -2.4220   -3.4440 O.3     1  UNL1       -0.4810
      5  H          7.2860   -3.0570   -4.2630 H       1  UNL1        0.2960
      6  C          7.0020   -0.1040   -2.1800 C.3     1  UNL1        0.0470
      7  C          6.4720    0.0780   -0.8170 C.2     1  UNL1       -0.0470
      8  C          6.6070   -0.9720    0.0830 C.2     1  UNL1        0.0040
      9  C          5.8470    1.2110   -0.3640 C.2     1  UNL1        0.0040
     10  C          6.1130   -0.8390    1.3790 C.2     1  UNL1        0.0000
     11  C          5.3470    1.3730    0.9140 C.2     1  UNL1        0.0000
     12  C          5.4950    0.3120    1.7850 C.2     1  UNL1        0.0000
@<TRIPOS>BOND
     1     5     4    1
     2     4     2    1
     3     3     2    2
     4     2     1    1
     5     6     1    1
     6     6     7    1
     7     7     9    2
     8     7     8    1
     9     9    11    1
    10     8    10    2
    11    11    12    2
    12    10    12    1
