@<TRIPOS>MOLECULE
/home/cewinharhar/GITHUB/reincatalyze/data/processed/docking_pred/2023-Apr-25-1829_maxeplen10_maxtrainstep200_exh32_gamma099_lrac3e-4_lrcr1e-3/4c41b041102a8d5d821093d1e21668bd2b50a839_ligand_2.pdbqt
 12 12 0 0 0
SMALL
GASTEIGER

@<TRIPOS>ATOM
      1  C          5.0000    1.7820    0.7450 C.3     1  UNL1        0.1270
      2  C          4.4630    1.1080    1.9410 C.2     1  UNL1        0.3030
      3  O          5.1410    0.2030    2.4810 O.2     1  UNL1       -0.2520
      4  O          3.2360    1.4560    2.4730 O.3     1  UNL1       -0.4810
      5  H          2.7320    2.3280    2.2280 H       1  UNL1        0.2960
      6  C          6.5190    1.7650    0.8650 C.3     1  UNL1        0.0470
      7  C          7.1580    1.0740   -0.2690 C.2     1  UNL1       -0.0470
      8  C          6.3800    0.2120   -1.0320 C.2     1  UNL1        0.0040
      9  C          8.4740    1.2110   -0.6320 C.2     1  UNL1        0.0040
     10  C          6.9510   -0.4640   -2.1090 C.2     1  UNL1        0.0000
     11  C          9.0670    0.5560   -1.6920 C.2     1  UNL1        0.0000
     12  C          8.2690   -0.2950   -2.4320 C.2     1  UNL1        0.0000
@<TRIPOS>BOND
     1    12    10    2
     2    12    11    1
     3    10     8    1
     4    11     9    2
     5     8     7    2
     6     9     7    1
     7     7     6    1
     8     1     6    1
     9     1     2    1
    10     2     4    1
    11     2     3    2
    12     5     4    1
