@<TRIPOS>MOLECULE
/home/cewinharhar/GITHUB/reincatalyze/data/processed/docking_pred/2023-Apr-25-1829_maxeplen10_maxtrainstep200_exh32_gamma099_lrac3e-4_lrcr1e-3/4c41b041102a8d5d821093d1e21668bd2b50a839_ligand_2.pdbqt
 12 12 0 0 0
SMALL
GASTEIGER

@<TRIPOS>ATOM
      1  C          5.4710    2.9020    0.0120 C.3     1  UNL1        0.1270
      2  C          6.2450    3.8620    0.8180 C.2     1  UNL1        0.3030
      3  O          6.8740    4.7750    0.2330 O.2     1  UNL1       -0.2520
      4  O          6.2870    3.7760    2.1960 O.3     1  UNL1       -0.4810
      5  H          6.4490    4.5900    2.8170 H       1  UNL1        0.2960
      6  C          4.9300    1.8460    0.9700 C.3     1  UNL1        0.0470
      7  C          5.7490    0.6210    0.9660 C.2     1  UNL1       -0.0470
      8  C          5.7280   -0.1820    2.0990 C.2     1  UNL1        0.0040
      9  C          6.5410    0.2100   -0.0740 C.2     1  UNL1        0.0040
     10  C          6.4940   -1.3460    2.1360 C.2     1  UNL1        0.0000
     11  C          7.3100   -0.9370   -0.0680 C.2     1  UNL1        0.0000
     12  C          7.2700   -1.7150    1.0720 C.2     1  UNL1        0.0000
@<TRIPOS>BOND
     1     9    11    1
     2     9     7    2
     3    11    12    2
     4     1     2    1
     5     1     6    1
     6     3     2    2
     7     2     4    1
     8     7     6    1
     9     7     8    1
    10    12    10    1
    11     8    10    2
    12     4     5    1
