@<TRIPOS>MOLECULE
/home/cewinharhar/GITHUB/reincatalyze/data/processed/docking_pred/2023-Apr-25-1829_maxeplen10_maxtrainstep200_exh32_gamma099_lrac3e-4_lrcr1e-3/4c41b041102a8d5d821093d1e21668bd2b50a839_ligand_2.pdbqt
 12 12 0 0 0
SMALL
GASTEIGER

@<TRIPOS>ATOM
      1  C          8.4500   -0.6810   -2.0710 C.3     1  UNL1        0.1270
      2  C          8.4070   -1.9190   -2.8700 C.2     1  UNL1        0.3030
      3  O          7.2930   -2.3830   -3.2080 O.2     1  UNL1       -0.2520
      4  O          9.5650   -2.5700   -3.2510 O.3     1  UNL1       -0.4810
      5  H          9.7060   -2.9840   -4.1910 H       1  UNL1        0.2960
      6  C          7.0470   -0.0860   -2.0920 C.3     1  UNL1        0.0470
      7  C          6.4790    0.0460   -0.7380 C.2     1  UNL1       -0.0470
      8  C          5.8360    1.2340   -0.4120 C.2     1  UNL1        0.0040
      9  C          6.5410   -0.9160    0.2360 C.2     1  UNL1        0.0040
     10  C          5.2920    1.3990    0.8600 C.2     1  UNL1        0.0000
     11  C          6.0120   -0.7830    1.5050 C.2     1  UNL1        0.0000
     12  C          5.3800    0.4090    1.8000 C.2     1  UNL1        0.0000
@<TRIPOS>BOND
     1     5     4    1
     2     4     2    1
     3     3     2    2
     4     2     1    1
     5     6     1    1
     6     6     7    1
     7     7     8    2
     8     7     9    1
     9     8    10    1
    10     9    11    2
    11    10    12    2
    12    11    12    1
