MODEL 1
REMARK VINA RESULT:      -7.3      0.000      0.000
REMARK SMILES O=C(O)CCc1ccccc1
REMARK SMILES IDX 4 1 2 2 1 3 3 4 5 6 6 7 7 8 11 9 8 10 10 11 9 12
REMARK H PARENT 3 5
REMARK Flexibility Score: inf
ROOT
ATOM      1  C   UNL     1       8.447  -0.643  -2.152  1.00  0.00     0.127 C 
ENDROOT
BRANCH   1   2
ATOM      2  C   UNL     1       8.466  -1.903  -2.916  1.00  0.00     0.303 C 
ATOM      3  O   UNL     1       9.563  -2.483  -3.099  1.00  0.00    -0.252 OA
BRANCH   2   4
ATOM      4  O   UNL     1       7.307  -2.452  -3.428  1.00  0.00    -0.481 OA
ATOM      5  H   UNL     1       7.038  -3.445  -3.301  1.00  0.00     0.296 HD
ENDBRANCH   2   4
ENDBRANCH   1   2
BRANCH   1   6
ATOM      6  C   UNL     1       7.013  -0.125  -2.177  1.00  0.00     0.047 C 
BRANCH   6   7
ATOM      7  C   UNL     1       6.473   0.080  -0.822  1.00  0.00    -0.047 A 
ATOM      8  C   UNL     1       6.608  -0.951   0.099  1.00  0.00     0.004 A 
ATOM      9  C   UNL     1       5.836   1.217  -0.395  1.00  0.00     0.004 A 
ATOM     10  C   UNL     1       6.104  -0.797   1.389  1.00  0.00     0.000 A 
ATOM     11  C   UNL     1       5.326   1.400   0.875  1.00  0.00     0.000 A 
ATOM     12  C   UNL     1       5.475   0.357   1.769  1.00  0.00     0.000 A 
ENDBRANCH   6   7
ENDBRANCH   1   6
TORSDOF 4
ENDMDL
MODEL 2
REMARK VINA RESULT:      -7.3      0.131      1.728
REMARK SMILES O=C(O)CCc1ccccc1
REMARK SMILES IDX 4 1 2 2 1 3 3 4 5 6 6 7 7 8 11 9 8 10 10 11 9 12
REMARK H PARENT 3 5
REMARK Flexibility Score: inf
ROOT
ATOM      1  C   UNL     1       8.444  -0.693  -2.063  1.00  0.00     0.127 C 
ENDROOT
BRANCH   1   2
ATOM      2  C   UNL     1       8.409  -1.932  -2.860  1.00  0.00     0.303 C 
ATOM      3  O   UNL     1       7.298  -2.398  -3.206  1.00  0.00    -0.252 OA
BRANCH   2   4
ATOM      4  O   UNL     1       9.571  -2.582  -3.231  1.00  0.00    -0.481 OA
ATOM      5  H   UNL     1      10.405  -2.095  -3.606  1.00  0.00     0.296 HD
ENDBRANCH   2   4
ENDBRANCH   1   2
BRANCH   1   6
ATOM      6  C   UNL     1       7.037  -0.106  -2.087  1.00  0.00     0.047 C 
BRANCH   6   7
ATOM      7  C   UNL     1       6.471   0.036  -0.734  1.00  0.00    -0.047 A 
ATOM      8  C   UNL     1       5.822   1.224  -0.418  1.00  0.00     0.004 A 
ATOM      9  C   UNL     1       6.540  -0.916   0.250  1.00  0.00     0.004 A 
ATOM     10  C   UNL     1       5.279   1.398   0.854  1.00  0.00     0.000 A 
ATOM     11  C   UNL     1       6.012  -0.774   1.518  1.00  0.00     0.000 A 
ATOM     12  C   UNL     1       5.374   0.417   1.803  1.00  0.00     0.000 A 
ENDBRANCH   6   7
ENDBRANCH   1   6
TORSDOF 4
ENDMDL
MODEL 3
REMARK VINA RESULT:      -6.8      3.377      5.091
REMARK SMILES O=C(O)CCc1ccccc1
REMARK SMILES IDX 4 1 2 2 1 3 3 4 5 6 6 7 7 8 11 9 8 10 10 11 9 12
REMARK H PARENT 3 5
REMARK Flexibility Score: inf
ROOT
ATOM      1  C   UNL     1       4.979   1.790   0.697  1.00  0.00     0.127 C 
ENDROOT
BRANCH   1   2
ATOM      2  C   UNL     1       4.481   1.127   1.915  1.00  0.00     0.303 C 
ATOM      3  O   UNL     1       5.192   0.251   2.461  1.00  0.00    -0.252 OA
BRANCH   2   4
ATOM      4  O   UNL     1       3.255   1.453   2.462  1.00  0.00    -0.481 OA
ATOM      5  H   UNL     1       2.393   1.582   1.900  1.00  0.00     0.296 HD
ENDBRANCH   2   4
ENDBRANCH   1   2
BRANCH   1   6
ATOM      6  C   UNL     1       6.502   1.779   0.772  1.00  0.00     0.047 C 
BRANCH   6   7
ATOM      7  C   UNL     1       7.107   1.000  -0.323  1.00  0.00    -0.047 A 
ATOM      8  C   UNL     1       8.442   1.234  -0.630  1.00  0.00     0.004 A 
ATOM      9  C   UNL     1       6.451   0.060  -1.073  1.00  0.00     0.004 A 
ATOM     10  C   UNL     1       9.048   0.522  -1.664  1.00  0.00     0.000 A 
ATOM     11  C   UNL     1       7.023  -0.662  -2.102  1.00  0.00     0.000 A 
ATOM     12  C   UNL     1       8.351  -0.408  -2.385  1.00  0.00     0.000 A 
ENDBRANCH   6   7
ENDBRANCH   1   6
TORSDOF 4
ENDMDL
MODEL 4
REMARK VINA RESULT:      -6.5      3.681      5.113
REMARK SMILES O=C(O)CCc1ccccc1
REMARK SMILES IDX 4 1 2 2 1 3 3 4 5 6 6 7 7 8 11 9 8 10 10 11 9 12
REMARK H PARENT 3 5
REMARK Flexibility Score: inf
ROOT
ATOM      1  C   UNL     1       5.316   2.872   0.092  1.00  0.00     0.127 C 
ENDROOT
BRANCH   1   2
ATOM      2  C   UNL     1       6.186   3.780   0.859  1.00  0.00     0.303 C 
ATOM      3  O   UNL     1       6.262   3.639   2.103  1.00  0.00    -0.252 OA
BRANCH   2   4
ATOM      4  O   UNL     1       6.916   4.775   0.237  1.00  0.00    -0.481 OA
ATOM      5  H   UNL     1       7.228   4.724  -0.750  1.00  0.00     0.296 HD
ENDBRANCH   2   4
ENDBRANCH   1   2
BRANCH   1   6
ATOM      6  C   UNL     1       5.276   1.547   0.844  1.00  0.00     0.047 C 
BRANCH   6   7
ATOM      7  C   UNL     1       6.053   0.497   0.161  1.00  0.00    -0.047 A 
ATOM      8  C   UNL     1       6.296   0.644  -1.199  1.00  0.00     0.004 A 
ATOM      9  C   UNL     1       6.554  -0.627   0.765  1.00  0.00     0.004 A 
ATOM     10  C   UNL     1       7.022  -0.331  -1.882  1.00  0.00     0.000 A 
ATOM     11  C   UNL     1       7.276  -1.610   0.117  1.00  0.00     0.000 A 
ATOM     12  C   UNL     1       7.501  -1.437  -1.235  1.00  0.00     0.000 A 
ENDBRANCH   6   7
ENDBRANCH   1   6
TORSDOF 4
ENDMDL
MODEL 5
REMARK VINA RESULT:      -6.5      2.050      2.665
REMARK SMILES O=C(O)CCc1ccccc1
REMARK SMILES IDX 4 1 2 2 1 3 3 4 5 6 6 7 7 8 11 9 8 10 10 11 9 12
REMARK H PARENT 3 5
REMARK Flexibility Score: inf
ROOT
ATOM      1  C   UNL     1       7.959  -2.358   0.833  1.00  0.00     0.127 C 
ENDROOT
BRANCH   1   2
ATOM      2  C   UNL     1       8.811  -3.445   0.318  1.00  0.00     0.303 C 
ATOM      3  O   UNL     1       8.722  -3.761  -0.892  1.00  0.00    -0.252 OA
BRANCH   2   4
ATOM      4  O   UNL     1       9.699  -4.114   1.138  1.00  0.00    -0.481 OA
ATOM      5  H   UNL     1      10.719  -4.164   0.958  1.00  0.00     0.296 HD
ENDBRANCH   2   4
ENDBRANCH   1   2
BRANCH   1   6
ATOM      6  C   UNL     1       7.558  -1.498  -0.360  1.00  0.00     0.047 C 
BRANCH   6   7
ATOM      7  C   UNL     1       6.675  -0.385   0.029  1.00  0.00    -0.047 A 
ATOM      8  C   UNL     1       6.130  -0.399   1.308  1.00  0.00     0.004 A 
ATOM      9  C   UNL     1       6.340   0.671  -0.779  1.00  0.00     0.004 A 
ATOM     10  C   UNL     1       5.285   0.634   1.710  1.00  0.00     0.000 A 
ATOM     11  C   UNL     1       5.507   1.708  -0.409  1.00  0.00     0.000 A 
ATOM     12  C   UNL     1       4.980   1.667   0.867  1.00  0.00     0.000 A 
ENDBRANCH   6   7
ENDBRANCH   1   6
TORSDOF 4
ENDMDL
