@<TRIPOS>MOLECULE
/home/cewinharhar/GITHUB/reincatalyze/data/processed/docking_pred/2023-Apr-25-1829_maxeplen10_maxtrainstep200_exh32_gamma099_lrac3e-4_lrcr1e-3/4d620996829bdf69d2437cdb6940cc233521eaf3_ligand_2.pdbqt
 12 12 0 0 0
SMALL
GASTEIGER

@<TRIPOS>ATOM
      1  C          4.9790    1.7900    0.6970 C.3     1  UNL1        0.1270
      2  C          4.4810    1.1270    1.9150 C.2     1  UNL1        0.3030
      3  O          5.1920    0.2510    2.4610 O.2     1  UNL1       -0.2520
      4  O          3.2550    1.4530    2.4620 O.3     1  UNL1       -0.4810
      5  H          2.3930    1.5820    1.9000 H       1  UNL1        0.2960
      6  C          6.5020    1.7790    0.7720 C.3     1  UNL1        0.0470
      7  C          7.1070    1.0000   -0.3230 C.2     1  UNL1       -0.0470
      8  C          8.4420    1.2340   -0.6300 C.2     1  UNL1        0.0040
      9  C          6.4510    0.0600   -1.0730 C.2     1  UNL1        0.0040
     10  C          9.0480    0.5220   -1.6640 C.2     1  UNL1        0.0000
     11  C          7.0230   -0.6620   -2.1020 C.2     1  UNL1        0.0000
     12  C          8.3510   -0.4080   -2.3850 C.2     1  UNL1        0.0000
@<TRIPOS>BOND
     1    12    11    2
     2    12    10    1
     3    11     9    1
     4    10     8    2
     5     9     7    2
     6     8     7    1
     7     7     6    1
     8     1     6    1
     9     1     2    1
    10     5     4    1
    11     2     3    2
    12     2     4    1
