@<TRIPOS>MOLECULE
/home/cewinharhar/GITHUB/reincatalyze/data/processed/docking_pred/2023-Apr-25-1829_maxeplen10_maxtrainstep200_exh32_gamma099_lrac3e-4_lrcr1e-3/4d620996829bdf69d2437cdb6940cc233521eaf3_ligand_2.pdbqt
 12 12 0 0 0
SMALL
GASTEIGER

@<TRIPOS>ATOM
      1  C          8.4470   -0.6430   -2.1520 C.3     1  UNL1        0.1270
      2  C          8.4660   -1.9030   -2.9160 C.2     1  UNL1        0.3030
      3  O          9.5630   -2.4830   -3.0990 O.2     1  UNL1       -0.2520
      4  O          7.3070   -2.4520   -3.4280 O.3     1  UNL1       -0.4810
      5  H          7.0380   -3.4450   -3.3010 H       1  UNL1        0.2960
      6  C          7.0130   -0.1250   -2.1770 C.3     1  UNL1        0.0470
      7  C          6.4730    0.0800   -0.8220 C.2     1  UNL1       -0.0470
      8  C          6.6080   -0.9510    0.0990 C.2     1  UNL1        0.0040
      9  C          5.8360    1.2170   -0.3950 C.2     1  UNL1        0.0040
     10  C          6.1040   -0.7970    1.3890 C.2     1  UNL1        0.0000
     11  C          5.3260    1.4000    0.8750 C.2     1  UNL1        0.0000
     12  C          5.4750    0.3570    1.7690 C.2     1  UNL1        0.0000
@<TRIPOS>BOND
     1     4     5    1
     2     4     2    1
     3     3     2    2
     4     2     1    1
     5     6     1    1
     6     6     7    1
     7     7     9    2
     8     7     8    1
     9     9    11    1
    10     8    10    2
    11    11    12    2
    12    10    12    1
