@<TRIPOS>MOLECULE
/home/cewinharhar/GITHUB/reincatalyze/data/processed/docking_pred/2023-Apr-25-1829_maxeplen10_maxtrainstep200_exh32_gamma099_lrac3e-4_lrcr1e-3/4d620996829bdf69d2437cdb6940cc233521eaf3_ligand_2.pdbqt
 12 12 0 0 0
SMALL
GASTEIGER

@<TRIPOS>ATOM
      1  C          5.3160    2.8720    0.0920 C.3     1  UNL1        0.1270
      2  C          6.1860    3.7800    0.8590 C.2     1  UNL1        0.3030
      3  O          6.2620    3.6390    2.1030 O.2     1  UNL1       -0.2520
      4  O          6.9160    4.7750    0.2370 O.3     1  UNL1       -0.4810
      5  H          7.2280    4.7240   -0.7500 H       1  UNL1        0.2960
      6  C          5.2760    1.5470    0.8440 C.3     1  UNL1        0.0470
      7  C          6.0530    0.4970    0.1610 C.2     1  UNL1       -0.0470
      8  C          6.2960    0.6440   -1.1990 C.2     1  UNL1        0.0040
      9  C          6.5540   -0.6270    0.7650 C.2     1  UNL1        0.0040
     10  C          7.0220   -0.3310   -1.8820 C.2     1  UNL1        0.0000
     11  C          7.2760   -1.6100    0.1170 C.2     1  UNL1        0.0000
     12  C          7.5010   -1.4370   -1.2350 C.2     1  UNL1        0.0000
@<TRIPOS>BOND
     1    10    12    2
     2    10     8    1
     3    12    11    1
     4     8     7    2
     5     5     4    1
     6     1     6    1
     7     1     2    1
     8    11     9    2
     9     7     9    1
    10     7     6    1
    11     4     2    1
    12     2     3    2
