@<TRIPOS>MOLECULE
/home/cewinharhar/GITHUB/reincatalyze/data/processed/docking_pred/2023-Apr-25-1829_maxeplen10_maxtrainstep200_exh32_gamma099_lrac3e-4_lrcr1e-3/4d620996829bdf69d2437cdb6940cc233521eaf3_ligand_2.pdbqt
 12 12 0 0 0
SMALL
GASTEIGER

@<TRIPOS>ATOM
      1  C          7.9590   -2.3580    0.8330 C.3     1  UNL1        0.1270
      2  C          8.8110   -3.4450    0.3180 C.2     1  UNL1        0.3030
      3  O          8.7220   -3.7610   -0.8920 O.2     1  UNL1       -0.2520
      4  O          9.6990   -4.1140    1.1380 O.3     1  UNL1       -0.4810
      5  H         10.7190   -4.1640    0.9580 H       1  UNL1        0.2960
      6  C          7.5580   -1.4980   -0.3600 C.3     1  UNL1        0.0470
      7  C          6.6750   -0.3850    0.0290 C.2     1  UNL1       -0.0470
      8  C          6.1300   -0.3990    1.3080 C.2     1  UNL1        0.0040
      9  C          6.3400    0.6710   -0.7790 C.2     1  UNL1        0.0040
     10  C          5.2850    0.6340    1.7100 C.2     1  UNL1        0.0000
     11  C          5.5070    1.7080   -0.4090 C.2     1  UNL1        0.0000
     12  C          4.9800    1.6670    0.8670 C.2     1  UNL1        0.0000
@<TRIPOS>BOND
     1     3     2    2
     2     9    11    1
     3     9     7    2
     4    11    12    2
     5     6     7    1
     6     6     1    1
     7     7     8    1
     8     2     1    1
     9     2     4    1
    10    12    10    1
    11     5     4    1
    12     8    10    2
