MODEL 1
REMARK VINA RESULT:      -6.6      0.000      0.000
REMARK SMILES O=C(O)CCc1ccccc1
REMARK SMILES IDX 4 1 2 2 1 3 3 4 5 6 6 7 7 8 11 9 8 10 10 11 9 12
REMARK H PARENT 3 5
REMARK Flexibility Score: inf
ROOT
ATOM      1  C   UNL     1       8.525  -0.429  -2.116  1.00  0.00     0.127 C 
ENDROOT
BRANCH   1   2
ATOM      2  C   UNL     1       8.643  -1.749  -2.760  1.00  0.00     0.303 C 
ATOM      3  O   UNL     1       9.761  -2.316  -2.777  1.00  0.00    -0.252 OA
BRANCH   2   4
ATOM      4  O   UNL     1       7.551  -2.368  -3.338  1.00  0.00    -0.481 OA
ATOM      5  H   UNL     1       7.006  -1.956  -4.118  1.00  0.00     0.296 HD
ENDBRANCH   2   4
ENDBRANCH   1   2
BRANCH   1   6
ATOM      6  C   UNL     1       7.050  -0.046  -2.144  1.00  0.00     0.047 C 
BRANCH   6   7
ATOM      7  C   UNL     1       6.481   0.076  -0.790  1.00  0.00    -0.047 A 
ATOM      8  C   UNL     1       5.823   1.255  -0.461  1.00  0.00     0.004 A 
ATOM      9  C   UNL     1       6.556  -0.887   0.183  1.00  0.00     0.004 A 
ATOM     10  C   UNL     1       5.278   1.411   0.812  1.00  0.00     0.000 A 
ATOM     11  C   UNL     1       6.026  -0.763   1.452  1.00  0.00     0.000 A 
ATOM     12  C   UNL     1       5.378   0.420   1.750  1.00  0.00     0.000 A 
ENDBRANCH   6   7
ENDBRANCH   1   6
TORSDOF 4
ENDMDL
MODEL 2
REMARK VINA RESULT:      -6.6      0.116      1.434
REMARK SMILES O=C(O)CCc1ccccc1
REMARK SMILES IDX 4 1 2 2 1 3 3 4 5 6 6 7 7 8 11 9 8 10 10 11 9 12
REMARK H PARENT 3 5
REMARK Flexibility Score: inf
ROOT
ATOM      1  C   UNL     1       8.494  -0.412  -2.095  1.00  0.00     0.127 C 
ENDROOT
BRANCH   1   2
ATOM      2  C   UNL     1       8.661  -1.725  -2.741  1.00  0.00     0.303 C 
ATOM      3  O   UNL     1       9.795  -2.262  -2.737  1.00  0.00    -0.252 OA
BRANCH   2   4
ATOM      4  O   UNL     1       7.599  -2.372  -3.344  1.00  0.00    -0.481 OA
ATOM      5  H   UNL     1       6.887  -2.914  -2.821  1.00  0.00     0.296 HD
ENDBRANCH   2   4
ENDBRANCH   1   2
BRANCH   1   6
ATOM      6  C   UNL     1       7.013  -0.059  -2.174  1.00  0.00     0.047 C 
BRANCH   6   7
ATOM      7  C   UNL     1       6.431   0.197  -0.844  1.00  0.00    -0.047 A 
ATOM      8  C   UNL     1       6.549  -0.794   0.123  1.00  0.00     0.004 A 
ATOM      9  C   UNL     1       5.772   1.344  -0.484  1.00  0.00     0.004 A 
ATOM     10  C   UNL     1       6.006  -0.591   1.390  1.00  0.00     0.000 A 
ATOM     11  C   UNL     1       5.224   1.575   0.762  1.00  0.00     0.000 A 
ATOM     12  C   UNL     1       5.356   0.572   1.703  1.00  0.00     0.000 A 
ENDBRANCH   6   7
ENDBRANCH   1   6
TORSDOF 4
ENDMDL
MODEL 3
REMARK VINA RESULT:      -6.6      0.713      1.630
REMARK SMILES O=C(O)CCc1ccccc1
REMARK SMILES IDX 4 1 2 2 1 3 3 4 5 6 6 7 7 8 11 9 8 10 10 11 9 12
REMARK H PARENT 3 5
REMARK Flexibility Score: inf
ROOT
ATOM      1  C   UNL     1       8.354  -0.977  -1.781  1.00  0.00     0.127 C 
ENDROOT
BRANCH   1   2
ATOM      2  C   UNL     1       8.474  -2.030  -2.805  1.00  0.00     0.303 C 
ATOM      3  O   UNL     1       9.608  -2.501  -3.059  1.00  0.00    -0.252 OA
BRANCH   2   4
ATOM      4  O   UNL     1       7.367  -2.504  -3.482  1.00  0.00    -0.481 OA
ATOM      5  H   UNL     1       7.332  -3.431  -3.945  1.00  0.00     0.296 HD
ENDBRANCH   2   4
ENDBRANCH   1   2
BRANCH   1   6
ATOM      6  C   UNL     1       7.278  -1.426  -0.799  1.00  0.00     0.047 C 
BRANCH   6   7
ATOM      7  C   UNL     1       6.524  -0.289  -0.242  1.00  0.00    -0.047 A 
ATOM      8  C   UNL     1       6.161  -0.340   1.098  1.00  0.00     0.004 A 
ATOM      9  C   UNL     1       6.144   0.822  -0.949  1.00  0.00     0.004 A 
ATOM     10  C   UNL     1       5.441   0.714   1.660  1.00  0.00     0.000 A 
ATOM     11  C   UNL     1       5.432   1.882  -0.421  1.00  0.00     0.000 A 
ATOM     12  C   UNL     1       5.084   1.803   0.913  1.00  0.00     0.000 A 
ENDBRANCH   6   7
ENDBRANCH   1   6
TORSDOF 4
ENDMDL
MODEL 4
REMARK VINA RESULT:      -6.4      3.379      5.071
REMARK SMILES O=C(O)CCc1ccccc1
REMARK SMILES IDX 4 1 2 2 1 3 3 4 5 6 6 7 7 8 11 9 8 10 10 11 9 12
REMARK H PARENT 3 5
REMARK Flexibility Score: inf
ROOT
ATOM      1  C   UNL     1       4.968   1.794   0.736  1.00  0.00     0.127 C 
ENDROOT
BRANCH   1   2
ATOM      2  C   UNL     1       4.452   1.116   1.938  1.00  0.00     0.303 C 
ATOM      3  O   UNL     1       5.145   0.217   2.470  1.00  0.00    -0.252 OA
BRANCH   2   4
ATOM      4  O   UNL     1       3.228   1.452   2.484  1.00  0.00    -0.481 OA
ATOM      5  H   UNL     1       2.328   1.044   2.170  1.00  0.00     0.296 HD
ENDBRANCH   2   4
ENDBRANCH   1   2
BRANCH   1   6
ATOM      6  C   UNL     1       6.488   1.815   0.851  1.00  0.00     0.047 C 
BRANCH   6   7
ATOM      7  C   UNL     1       7.141   1.137  -0.282  1.00  0.00    -0.047 A 
ATOM      8  C   UNL     1       6.359   0.334  -1.102  1.00  0.00     0.004 A 
ATOM      9  C   UNL     1       8.473   1.232  -0.592  1.00  0.00     0.004 A 
ATOM     10  C   UNL     1       6.941  -0.329  -2.181  1.00  0.00     0.000 A 
ATOM     11  C   UNL     1       9.080   0.589  -1.653  1.00  0.00     0.000 A 
ATOM     12  C   UNL     1       8.277  -0.203  -2.450  1.00  0.00     0.000 A 
ENDBRANCH   6   7
ENDBRANCH   1   6
TORSDOF 4
ENDMDL
MODEL 5
REMARK VINA RESULT:      -6.4      3.361      5.038
REMARK SMILES O=C(O)CCc1ccccc1
REMARK SMILES IDX 4 1 2 2 1 3 3 4 5 6 6 7 7 8 11 9 8 10 10 11 9 12
REMARK H PARENT 3 5
REMARK Flexibility Score: inf
ROOT
ATOM      1  C   UNL     1       4.998   1.807   0.708  1.00  0.00     0.127 C 
ENDROOT
BRANCH   1   2
ATOM      2  C   UNL     1       4.470   1.135   1.908  1.00  0.00     0.303 C 
ATOM      3  O   UNL     1       5.154   0.232   2.446  1.00  0.00    -0.252 OA
BRANCH   2   4
ATOM      4  O   UNL     1       3.246   1.482   2.447  1.00  0.00    -0.481 OA
ATOM      5  H   UNL     1       2.435   0.839   2.486  1.00  0.00     0.296 HD
ENDBRANCH   2   4
ENDBRANCH   1   2
BRANCH   1   6
ATOM      6  C   UNL     1       6.519   1.741   0.790  1.00  0.00     0.047 C 
BRANCH   6   7
ATOM      7  C   UNL     1       7.104   0.981  -0.329  1.00  0.00    -0.047 A 
ATOM      8  C   UNL     1       8.428   1.230  -0.667  1.00  0.00     0.004 A 
ATOM      9  C   UNL     1       6.437   0.043  -1.074  1.00  0.00     0.004 A 
ATOM     10  C   UNL     1       9.015   0.535  -1.724  1.00  0.00     0.000 A 
ATOM     11  C   UNL     1       6.989  -0.662  -2.125  1.00  0.00     0.000 A 
ATOM     12  C   UNL     1       8.307  -0.393  -2.439  1.00  0.00     0.000 A 
ENDBRANCH   6   7
ENDBRANCH   1   6
TORSDOF 4
ENDMDL
