@<TRIPOS>MOLECULE
/home/cewinharhar/GITHUB/reincatalyze/data/processed/docking_pred/2023-Apr-25-1829_maxeplen10_maxtrainstep200_exh32_gamma099_lrac3e-4_lrcr1e-3/4f8485ffa73320ccf1b94cd7b1ea99ef776c762b_ligand_2.pdbqt
 12 12 0 0 0
SMALL
GASTEIGER

@<TRIPOS>ATOM
      1  C          8.5250   -0.4290   -2.1160 C.3     1  UNL1        0.1270
      2  C          8.6430   -1.7490   -2.7600 C.2     1  UNL1        0.3030
      3  O          9.7610   -2.3160   -2.7770 O.2     1  UNL1       -0.2520
      4  O          7.5510   -2.3680   -3.3380 O.3     1  UNL1       -0.4810
      5  H          7.0060   -1.9560   -4.1180 H       1  UNL1        0.2960
      6  C          7.0500   -0.0460   -2.1440 C.3     1  UNL1        0.0470
      7  C          6.4810    0.0760   -0.7900 C.2     1  UNL1       -0.0470
      8  C          5.8230    1.2550   -0.4610 C.2     1  UNL1        0.0040
      9  C          6.5560   -0.8870    0.1830 C.2     1  UNL1        0.0040
     10  C          5.2780    1.4110    0.8120 C.2     1  UNL1        0.0000
     11  C          6.0260   -0.7630    1.4520 C.2     1  UNL1        0.0000
     12  C          5.3780    0.4200    1.7500 C.2     1  UNL1        0.0000
@<TRIPOS>BOND
     1     5     4    1
     2     4     2    1
     3     3     2    2
     4     2     1    1
     5     6     1    1
     6     6     7    1
     7     7     8    2
     8     7     9    1
     9     8    10    1
    10     9    11    2
    11    10    12    2
    12    11    12    1
