@<TRIPOS>MOLECULE
/home/cewinharhar/GITHUB/reincatalyze/data/processed/docking_pred/2023-Apr-25-1829_maxeplen10_maxtrainstep200_exh32_gamma099_lrac3e-4_lrcr1e-3/4f8485ffa73320ccf1b94cd7b1ea99ef776c762b_ligand_2.pdbqt
 12 12 0 0 0
SMALL
GASTEIGER

@<TRIPOS>ATOM
      1  C          8.3540   -0.9770   -1.7810 C.3     1  UNL1        0.1270
      2  C          8.4740   -2.0300   -2.8050 C.2     1  UNL1        0.3030
      3  O          9.6080   -2.5010   -3.0590 O.2     1  UNL1       -0.2520
      4  O          7.3670   -2.5040   -3.4820 O.3     1  UNL1       -0.4810
      5  H          7.3320   -3.4310   -3.9450 H       1  UNL1        0.2960
      6  C          7.2780   -1.4260   -0.7990 C.3     1  UNL1        0.0470
      7  C          6.5240   -0.2890   -0.2420 C.2     1  UNL1       -0.0470
      8  C          6.1610   -0.3400    1.0980 C.2     1  UNL1        0.0040
      9  C          6.1440    0.8220   -0.9490 C.2     1  UNL1        0.0040
     10  C          5.4410    0.7140    1.6600 C.2     1  UNL1        0.0000
     11  C          5.4320    1.8820   -0.4210 C.2     1  UNL1        0.0000
     12  C          5.0840    1.8030    0.9130 C.2     1  UNL1        0.0000
@<TRIPOS>BOND
     1     5     4    1
     2     4     2    1
     3     3     2    2
     4     2     1    1
     5     1     6    1
     6     9    11    1
     7     9     7    2
     8     6     7    1
     9    11    12    2
    10     7     8    1
    11    12    10    1
    12     8    10    2
