@<TRIPOS>MOLECULE
/home/cewinharhar/GITHUB/reincatalyze/data/processed/docking_pred/2023-Apr-25-1829_maxeplen10_maxtrainstep200_exh32_gamma099_lrac3e-4_lrcr1e-3/4f8485ffa73320ccf1b94cd7b1ea99ef776c762b_ligand_2.pdbqt
 12 12 0 0 0
SMALL
GASTEIGER

@<TRIPOS>ATOM
      1  C          4.9680    1.7940    0.7360 C.3     1  UNL1        0.1270
      2  C          4.4520    1.1160    1.9380 C.2     1  UNL1        0.3030
      3  O          5.1450    0.2170    2.4700 O.2     1  UNL1       -0.2520
      4  O          3.2280    1.4520    2.4840 O.3     1  UNL1       -0.4810
      5  H          2.3280    1.0440    2.1700 H       1  UNL1        0.2960
      6  C          6.4880    1.8150    0.8510 C.3     1  UNL1        0.0470
      7  C          7.1410    1.1370   -0.2820 C.2     1  UNL1       -0.0470
      8  C          6.3590    0.3340   -1.1020 C.2     1  UNL1        0.0040
      9  C          8.4730    1.2320   -0.5920 C.2     1  UNL1        0.0040
     10  C          6.9410   -0.3290   -2.1810 C.2     1  UNL1        0.0000
     11  C          9.0800    0.5890   -1.6530 C.2     1  UNL1        0.0000
     12  C          8.2770   -0.2030   -2.4500 C.2     1  UNL1        0.0000
@<TRIPOS>BOND
     1    12    10    2
     2    12    11    1
     3    10     8    1
     4    11     9    2
     5     8     7    2
     6     9     7    1
     7     7     6    1
     8     1     6    1
     9     1     2    1
    10     2     3    2
    11     2     4    1
    12     5     4    1
