@<TRIPOS>MOLECULE
/home/cewinharhar/GITHUB/reincatalyze/data/processed/docking_pred/2023-Apr-25-1829_maxeplen10_maxtrainstep200_exh32_gamma099_lrac3e-4_lrcr1e-3/4f8485ffa73320ccf1b94cd7b1ea99ef776c762b_ligand_2.pdbqt
 12 12 0 0 0
SMALL
GASTEIGER

@<TRIPOS>ATOM
      1  C          8.4940   -0.4120   -2.0950 C.3     1  UNL1        0.1270
      2  C          8.6610   -1.7250   -2.7410 C.2     1  UNL1        0.3030
      3  O          9.7950   -2.2620   -2.7370 O.2     1  UNL1       -0.2520
      4  O          7.5990   -2.3720   -3.3440 O.3     1  UNL1       -0.4810
      5  H          6.8870   -2.9140   -2.8210 H       1  UNL1        0.2960
      6  C          7.0130   -0.0590   -2.1740 C.3     1  UNL1        0.0470
      7  C          6.4310    0.1970   -0.8440 C.2     1  UNL1       -0.0470
      8  C          6.5490   -0.7940    0.1230 C.2     1  UNL1        0.0040
      9  C          5.7720    1.3440   -0.4840 C.2     1  UNL1        0.0040
     10  C          6.0060   -0.5910    1.3900 C.2     1  UNL1        0.0000
     11  C          5.2240    1.5750    0.7620 C.2     1  UNL1        0.0000
     12  C          5.3560    0.5720    1.7030 C.2     1  UNL1        0.0000
@<TRIPOS>BOND
     1     4     5    1
     2     4     2    1
     3     2     3    2
     4     2     1    1
     5     6     1    1
     6     6     7    1
     7     7     9    2
     8     7     8    1
     9     9    11    1
    10     8    10    2
    11    11    12    2
    12    10    12    1
