@<TRIPOS>MOLECULE
/home/cewinharhar/GITHUB/reincatalyze/data/processed/docking_pred/2023-Apr-25-1829_maxeplen10_maxtrainstep200_exh32_gamma099_lrac3e-4_lrcr1e-3/4fd116288ae20ad94bf91d23a53b6bc9c92e4cae_ligand_2.pdbqt
 12 12 0 0 0
SMALL
GASTEIGER

@<TRIPOS>ATOM
      1  C          5.4820    2.9140   -0.0110 C.3     1  UNL1        0.1270
      2  C          6.2440    3.8810    0.7990 C.2     1  UNL1        0.3030
      3  O          6.9000    4.7750    0.2150 O.2     1  UNL1       -0.2520
      4  O          6.2470    3.8200    2.1790 O.3     1  UNL1       -0.4810
      5  H          5.7010    3.1260    2.7230 H       1  UNL1        0.2960
      6  C          4.9390    1.8580    0.9460 C.3     1  UNL1        0.0470
      7  C          5.7290    0.6140    0.9070 C.2     1  UNL1       -0.0470
      8  C          5.7780   -0.1660    2.0560 C.2     1  UNL1        0.0040
      9  C          6.4310    0.1640   -0.1810 C.2     1  UNL1        0.0040
     10  C          6.5200   -1.3450    2.0600 C.2     1  UNL1        0.0000
     11  C          7.1740   -1.0000   -0.2090 C.2     1  UNL1        0.0000
     12  C          7.2050   -1.7530    0.9480 C.2     1  UNL1        0.0000
@<TRIPOS>BOND
     1    11     9    1
     2    11    12    2
     3     9     7    2
     4     1     2    1
     5     1     6    1
     6     3     2    2
     7     2     4    1
     8     7     6    1
     9     7     8    1
    10    12    10    1
    11     8    10    2
    12     4     5    1
