@<TRIPOS>MOLECULE
/home/cewinharhar/GITHUB/reincatalyze/data/processed/docking_pred/2023-Apr-25-1829_maxeplen10_maxtrainstep200_exh32_gamma099_lrac3e-4_lrcr1e-3/4fd116288ae20ad94bf91d23a53b6bc9c92e4cae_ligand_2.pdbqt
 12 12 0 0 0
SMALL
GASTEIGER

@<TRIPOS>ATOM
      1  C          8.4390   -0.7070   -2.0690 C.3     1  UNL1        0.1270
      2  C          8.4100   -1.9380   -2.8780 C.2     1  UNL1        0.3030
      3  O          7.3010   -2.4090   -3.2240 O.2     1  UNL1       -0.2520
      4  O          9.5750   -2.5770   -3.2590 O.3     1  UNL1       -0.4810
      5  H          9.9230   -3.4460   -2.8150 H       1  UNL1        0.2960
      6  C          7.0550   -0.0750   -2.1640 C.3     1  UNL1        0.0470
      7  C          6.4660    0.1750   -0.8370 C.2     1  UNL1       -0.0470
      8  C          6.6300   -0.7940    0.1450 C.2     1  UNL1        0.0040
      9  C          5.7570    1.2970   -0.4920 C.2     1  UNL1        0.0040
     10  C          6.0810   -0.5960    1.4100 C.2     1  UNL1        0.0000
     11  C          5.2030    1.5230    0.7520 C.2     1  UNL1        0.0000
     12  C          5.3810    0.5410    1.7070 C.2     1  UNL1        0.0000
@<TRIPOS>BOND
     1     4     2    1
     2     4     5    1
     3     3     2    2
     4     2     1    1
     5     6     1    1
     6     6     7    1
     7     7     9    2
     8     7     8    1
     9     9    11    1
    10     8    10    2
    11    11    12    2
    12    10    12    1
