MODEL 1
REMARK VINA RESULT:      -7.3      0.000      0.000
REMARK SMILES O=C(O)CCc1ccccc1
REMARK SMILES IDX 4 1 2 2 1 3 3 4 5 6 6 7 7 8 11 9 8 10 10 11 9 12
REMARK H PARENT 3 5
REMARK Flexibility Score: inf
ROOT
ATOM      1  C   UNL     1       8.458  -0.582  -2.236  1.00  0.00     0.127 C 
ENDROOT
BRANCH   1   2
ATOM      2  C   UNL     1       8.474  -1.891  -2.912  1.00  0.00     0.303 C 
ATOM      3  O   UNL     1       9.565  -2.495  -3.037  1.00  0.00    -0.252 OA
BRANCH   2   4
ATOM      4  O   UNL     1       7.315  -2.461  -3.405  1.00  0.00    -0.481 OA
ATOM      5  H   UNL     1       6.977  -3.402  -3.129  1.00  0.00     0.296 HD
ENDBRANCH   2   4
ENDBRANCH   1   2
BRANCH   1   6
ATOM      6  C   UNL     1       7.006  -0.118  -2.193  1.00  0.00     0.047 C 
BRANCH   6   7
ATOM      7  C   UNL     1       6.499  -0.010  -0.814  1.00  0.00    -0.047 A 
ATOM      8  C   UNL     1       5.883   1.177  -0.435  1.00  0.00     0.004 A 
ATOM      9  C   UNL     1       6.592  -0.994   0.137  1.00  0.00     0.004 A 
ATOM     10  C   UNL     1       5.396   1.320   0.863  1.00  0.00     0.000 A 
ATOM     11  C   UNL     1       6.119  -0.883   1.429  1.00  0.00     0.000 A 
ATOM     12  C   UNL     1       5.512   0.308   1.777  1.00  0.00     0.000 A 
ENDBRANCH   6   7
ENDBRANCH   1   6
TORSDOF 4
ENDMDL
MODEL 2
REMARK VINA RESULT:      -7.3      0.215      1.735
REMARK SMILES O=C(O)CCc1ccccc1
REMARK SMILES IDX 4 1 2 2 1 3 3 4 5 6 6 7 7 8 11 9 8 10 10 11 9 12
REMARK H PARENT 3 5
REMARK Flexibility Score: inf
ROOT
ATOM      1  C   UNL     1       8.439  -0.707  -2.069  1.00  0.00     0.127 C 
ENDROOT
BRANCH   1   2
ATOM      2  C   UNL     1       8.410  -1.938  -2.878  1.00  0.00     0.303 C 
ATOM      3  O   UNL     1       7.301  -2.409  -3.224  1.00  0.00    -0.252 OA
BRANCH   2   4
ATOM      4  O   UNL     1       9.575  -2.577  -3.259  1.00  0.00    -0.481 OA
ATOM      5  H   UNL     1       9.923  -3.446  -2.815  1.00  0.00     0.296 HD
ENDBRANCH   2   4
ENDBRANCH   1   2
BRANCH   1   6
ATOM      6  C   UNL     1       7.055  -0.075  -2.164  1.00  0.00     0.047 C 
BRANCH   6   7
ATOM      7  C   UNL     1       6.466   0.175  -0.837  1.00  0.00    -0.047 A 
ATOM      8  C   UNL     1       6.630  -0.794   0.145  1.00  0.00     0.004 A 
ATOM      9  C   UNL     1       5.757   1.297  -0.492  1.00  0.00     0.004 A 
ATOM     10  C   UNL     1       6.081  -0.596   1.410  1.00  0.00     0.000 A 
ATOM     11  C   UNL     1       5.203   1.523   0.752  1.00  0.00     0.000 A 
ATOM     12  C   UNL     1       5.381   0.541   1.707  1.00  0.00     0.000 A 
ENDBRANCH   6   7
ENDBRANCH   1   6
TORSDOF 4
ENDMDL
MODEL 3
REMARK VINA RESULT:      -6.8      3.383      5.084
REMARK SMILES O=C(O)CCc1ccccc1
REMARK SMILES IDX 4 1 2 2 1 3 3 4 5 6 6 7 7 8 11 9 8 10 10 11 9 12
REMARK H PARENT 3 5
REMARK Flexibility Score: inf
ROOT
ATOM      1  C   UNL     1       4.970   1.794   0.696  1.00  0.00     0.127 C 
ENDROOT
BRANCH   1   2
ATOM      2  C   UNL     1       4.465   1.131   1.912  1.00  0.00     0.303 C 
ATOM      3  O   UNL     1       5.167   0.244   2.453  1.00  0.00    -0.252 OA
BRANCH   2   4
ATOM      4  O   UNL     1       3.243   1.469   2.461  1.00  0.00    -0.481 OA
ATOM      5  H   UNL     1       2.672   2.272   2.139  1.00  0.00     0.296 HD
ENDBRANCH   2   4
ENDBRANCH   1   2
BRANCH   1   6
ATOM      6  C   UNL     1       6.490   1.833   0.806  1.00  0.00     0.047 C 
BRANCH   6   7
ATOM      7  C   UNL     1       7.146   1.123  -0.307  1.00  0.00    -0.047 A 
ATOM      8  C   UNL     1       6.364   0.303  -1.110  1.00  0.00     0.004 A 
ATOM      9  C   UNL     1       8.481   1.204  -0.611  1.00  0.00     0.004 A 
ATOM     10  C   UNL     1       6.949  -0.390  -2.168  1.00  0.00     0.000 A 
ATOM     11  C   UNL     1       9.090   0.531  -1.651  1.00  0.00     0.000 A 
ATOM     12  C   UNL     1       8.287  -0.278  -2.432  1.00  0.00     0.000 A 
ENDBRANCH   6   7
ENDBRANCH   1   6
TORSDOF 4
ENDMDL
MODEL 4
REMARK VINA RESULT:      -6.7      3.817      4.984
REMARK SMILES O=C(O)CCc1ccccc1
REMARK SMILES IDX 4 1 2 2 1 3 3 4 5 6 6 7 7 8 11 9 8 10 10 11 9 12
REMARK H PARENT 3 5
REMARK Flexibility Score: inf
ROOT
ATOM      1  C   UNL     1       5.482   2.914  -0.011  1.00  0.00     0.127 C 
ENDROOT
BRANCH   1   2
ATOM      2  C   UNL     1       6.244   3.881   0.799  1.00  0.00     0.303 C 
ATOM      3  O   UNL     1       6.900   4.775   0.215  1.00  0.00    -0.252 OA
BRANCH   2   4
ATOM      4  O   UNL     1       6.247   3.820   2.179  1.00  0.00    -0.481 OA
ATOM      5  H   UNL     1       5.701   3.126   2.723  1.00  0.00     0.296 HD
ENDBRANCH   2   4
ENDBRANCH   1   2
BRANCH   1   6
ATOM      6  C   UNL     1       4.939   1.858   0.946  1.00  0.00     0.047 C 
BRANCH   6   7
ATOM      7  C   UNL     1       5.729   0.614   0.907  1.00  0.00    -0.047 A 
ATOM      8  C   UNL     1       5.778  -0.166   2.056  1.00  0.00     0.004 A 
ATOM      9  C   UNL     1       6.431   0.164  -0.181  1.00  0.00     0.004 A 
ATOM     10  C   UNL     1       6.520  -1.345   2.060  1.00  0.00     0.000 A 
ATOM     11  C   UNL     1       7.174  -1.000  -0.209  1.00  0.00     0.000 A 
ATOM     12  C   UNL     1       7.205  -1.753   0.948  1.00  0.00     0.000 A 
ENDBRANCH   6   7
ENDBRANCH   1   6
TORSDOF 4
ENDMDL
MODEL 5
REMARK VINA RESULT:      -6.6      1.891      2.652
REMARK SMILES O=C(O)CCc1ccccc1
REMARK SMILES IDX 4 1 2 2 1 3 3 4 5 6 6 7 7 8 11 9 8 10 10 11 9 12
REMARK H PARENT 3 5
REMARK Flexibility Score: inf
ROOT
ATOM      1  C   UNL     1       8.212   0.265  -2.257  1.00  0.00     0.127 C 
ENDROOT
BRANCH   1   2
ATOM      2  C   UNL     1       9.335   0.362  -1.309  1.00  0.00     0.303 C 
ATOM      3  O   UNL     1       9.389  -0.444  -0.350  1.00  0.00    -0.252 OA
BRANCH   2   4
ATOM      4  O   UNL     1      10.322   1.317  -1.458  1.00  0.00    -0.481 OA
ATOM      5  H   UNL     1      10.140   2.337  -1.441  1.00  0.00     0.296 HD
ENDBRANCH   2   4
ENDBRANCH   1   2
BRANCH   1   6
ATOM      6  C   UNL     1       7.105  -0.521  -1.563  1.00  0.00     0.047 C 
BRANCH   6   7
ATOM      7  C   UNL     1       6.327   0.318  -0.635  1.00  0.00    -0.047 A 
ATOM      8  C   UNL     1       6.119  -0.154   0.656  1.00  0.00     0.004 A 
ATOM      9  C   UNL     1       5.780   1.536  -0.948  1.00  0.00     0.004 A 
ATOM     10  C   UNL     1       5.383   0.608   1.561  1.00  0.00     0.000 A 
ATOM     11  C   UNL     1       5.046   2.314  -0.074  1.00  0.00     0.000 A 
ATOM     12  C   UNL     1       4.856   1.818   1.201  1.00  0.00     0.000 A 
ENDBRANCH   6   7
ENDBRANCH   1   6
TORSDOF 4
ENDMDL
