@<TRIPOS>MOLECULE
/home/cewinharhar/GITHUB/reincatalyze/data/processed/docking_pred/2023-Apr-25-1829_maxeplen10_maxtrainstep200_exh32_gamma099_lrac3e-4_lrcr1e-3/4fd116288ae20ad94bf91d23a53b6bc9c92e4cae_ligand_2.pdbqt
 12 12 0 0 0
SMALL
GASTEIGER

@<TRIPOS>ATOM
      1  C          4.9700    1.7940    0.6960 C.3     1  UNL1        0.1270
      2  C          4.4650    1.1310    1.9120 C.2     1  UNL1        0.3030
      3  O          5.1670    0.2440    2.4530 O.2     1  UNL1       -0.2520
      4  O          3.2430    1.4690    2.4610 O.3     1  UNL1       -0.4810
      5  H          2.6720    2.2720    2.1390 H       1  UNL1        0.2960
      6  C          6.4900    1.8330    0.8060 C.3     1  UNL1        0.0470
      7  C          7.1460    1.1230   -0.3070 C.2     1  UNL1       -0.0470
      8  C          6.3640    0.3030   -1.1100 C.2     1  UNL1        0.0040
      9  C          8.4810    1.2040   -0.6110 C.2     1  UNL1        0.0040
     10  C          6.9490   -0.3900   -2.1680 C.2     1  UNL1        0.0000
     11  C          9.0900    0.5310   -1.6510 C.2     1  UNL1        0.0000
     12  C          8.2870   -0.2780   -2.4320 C.2     1  UNL1        0.0000
@<TRIPOS>BOND
     1    12    10    2
     2    12    11    1
     3    10     8    1
     4    11     9    2
     5     8     7    2
     6     9     7    1
     7     7     6    1
     8     1     6    1
     9     1     2    1
    10     2     3    2
    11     2     4    1
    12     5     4    1
