@<TRIPOS>MOLECULE
/home/cewinharhar/GITHUB/reincatalyze/data/processed/docking_pred/2023-Apr-25-1829_maxeplen10_maxtrainstep200_exh32_gamma099_lrac3e-4_lrcr1e-3/4fd116288ae20ad94bf91d23a53b6bc9c92e4cae_ligand_2.pdbqt
 12 12 0 0 0
SMALL
GASTEIGER

@<TRIPOS>ATOM
      1  C          8.2120    0.2650   -2.2570 C.3     1  UNL1        0.1270
      2  C          9.3350    0.3620   -1.3090 C.2     1  UNL1        0.3030
      3  O          9.3890   -0.4440   -0.3500 O.2     1  UNL1       -0.2520
      4  O         10.3220    1.3170   -1.4580 O.3     1  UNL1       -0.4810
      5  H         10.1400    2.3370   -1.4410 H       1  UNL1        0.2960
      6  C          7.1050   -0.5210   -1.5630 C.3     1  UNL1        0.0470
      7  C          6.3270    0.3180   -0.6350 C.2     1  UNL1       -0.0470
      8  C          6.1190   -0.1540    0.6560 C.2     1  UNL1        0.0040
      9  C          5.7800    1.5360   -0.9480 C.2     1  UNL1        0.0040
     10  C          5.3830    0.6080    1.5610 C.2     1  UNL1        0.0000
     11  C          5.0460    2.3140   -0.0740 C.2     1  UNL1        0.0000
     12  C          4.8560    1.8180    1.2010 C.2     1  UNL1        0.0000
@<TRIPOS>BOND
     1     1     6    1
     2     1     2    1
     3     6     7    1
     4     4     5    1
     5     4     2    1
     6     2     3    2
     7     9     7    2
     8     9    11    1
     9     7     8    1
    10    11    12    2
    11     8    10    2
    12    12    10    1
