@<TRIPOS>MOLECULE
/home/cewinharhar/GITHUB/reincatalyze/data/processed/docking_pred/2023-Apr-25-1829_maxeplen10_maxtrainstep200_exh32_gamma099_lrac3e-4_lrcr1e-3/5131ba4422f83928eab452067adeb3f7f7723c60_ligand_2.pdbqt
 12 12 0 0 0
SMALL
GASTEIGER

@<TRIPOS>ATOM
      1  C          8.5220   -0.3950   -2.1270 C.3     1  UNL1        0.1270
      2  C          8.7200   -1.7420   -2.6910 C.2     1  UNL1        0.3030
      3  O          7.7160   -2.3940   -3.0650 O.2     1  UNL1       -0.2520
      4  O          9.9800   -2.2930   -2.8140 O.3     1  UNL1       -0.4810
      5  H         10.2640   -3.1820   -2.3610 H       1  UNL1        0.2960
      6  C          7.0230   -0.1210   -2.1340 C.3     1  UNL1        0.0470
      7  C          6.4790    0.0310   -0.7720 C.2     1  UNL1       -0.0470
      8  C          5.8280    1.2180   -0.4570 C.2     1  UNL1        0.0040
      9  C          6.5700   -0.9110    0.2190 C.2     1  UNL1        0.0040
     10  C          5.3070    1.4020    0.8220 C.2     1  UNL1        0.0000
     11  C          6.0640   -0.7590    1.4950 C.2     1  UNL1        0.0000
     12  C          5.4230    0.4310    1.7790 C.2     1  UNL1        0.0000
@<TRIPOS>BOND
     1     3     2    2
     2     4     2    1
     3     4     5    1
     4     2     1    1
     5     6     1    1
     6     6     7    1
     7     7     8    2
     8     7     9    1
     9     8    10    1
    10     9    11    2
    11    10    12    2
    12    11    12    1
