@<TRIPOS>MOLECULE
/home/cewinharhar/GITHUB/reincatalyze/data/processed/docking_pred/2023-Apr-25-1829_maxeplen10_maxtrainstep200_exh32_gamma099_lrac3e-4_lrcr1e-3/5131ba4422f83928eab452067adeb3f7f7723c60_ligand_2.pdbqt
 12 12 0 0 0
SMALL
GASTEIGER

@<TRIPOS>ATOM
      1  C          5.0120    1.7470    0.7460 C.3     1  UNL1        0.1270
      2  C          4.4590    1.0900    1.9440 C.2     1  UNL1        0.3030
      3  O          5.1200    0.1780    2.4930 O.2     1  UNL1       -0.2520
      4  O          3.2360    1.4610    2.4680 O.3     1  UNL1       -0.4810
      5  H          2.8010    2.3880    2.3070 H       1  UNL1        0.2960
      6  C          6.5310    1.6470    0.8410 C.3     1  UNL1        0.0470
      7  C          7.1100    0.9000   -0.2890 C.2     1  UNL1       -0.0470
      8  C          8.3980    1.2260   -0.6970 C.2     1  UNL1        0.0040
      9  C          6.4720   -0.0970   -0.9810 C.2     1  UNL1        0.0040
     10  C          8.9780    0.5460   -1.7660 C.2     1  UNL1        0.0000
     11  C          7.0190   -0.7890   -2.0430 C.2     1  UNL1        0.0000
     12  C          8.3000   -0.4420   -2.4260 C.2     1  UNL1        0.0000
@<TRIPOS>BOND
     1    12    11    2
     2    12    10    1
     3    11     9    1
     4    10     8    2
     5     9     7    2
     6     8     7    1
     7     7     6    1
     8     1     6    1
     9     1     2    1
    10     2     4    1
    11     2     3    2
    12     5     4    1
