@<TRIPOS>MOLECULE
/home/cewinharhar/GITHUB/reincatalyze/data/processed/docking_pred/2023-Apr-25-1829_maxeplen10_maxtrainstep200_exh32_gamma099_lrac3e-4_lrcr1e-3/5131ba4422f83928eab452067adeb3f7f7723c60_ligand_2.pdbqt
 12 12 0 0 0
SMALL
GASTEIGER

@<TRIPOS>ATOM
      1  C          8.6220   -0.7870   -2.0130 C.3     1  UNL1        0.1270
      2  C          8.5800   -2.0010   -2.8460 C.2     1  UNL1        0.3030
      3  O          9.6470   -2.6200   -3.0690 O.2     1  UNL1       -0.2520
      4  O          7.3930   -2.4660   -3.3800 O.3     1  UNL1       -0.4810
      5  H          7.2990   -3.3830   -3.8550 H       1  UNL1        0.2960
      6  C          7.2460   -0.1360   -2.0980 C.3     1  UNL1        0.0470
      7  C          6.6160    0.0090   -0.7740 C.2     1  UNL1       -0.0470
      8  C          5.9200    1.1810   -0.5060 C.2     1  UNL1        0.0040
      9  C          6.6680   -0.9280    0.2260 C.2     1  UNL1        0.0040
     10  C          5.3160    1.3570    0.7370 C.2     1  UNL1        0.0000
     11  C          6.0800   -0.7830    1.4670 C.2     1  UNL1        0.0000
     12  C          5.3950    0.3930    1.7050 C.2     1  UNL1        0.0000
@<TRIPOS>BOND
     1     5     4    1
     2     4     2    1
     3     3     2    2
     4     2     1    1
     5     6     1    1
     6     6     7    1
     7     7     8    2
     8     7     9    1
     9     8    10    1
    10     9    11    2
    11    10    12    2
    12    11    12    1
