@<TRIPOS>MOLECULE
/home/cewinharhar/GITHUB/reincatalyze/data/processed/docking_pred/2023-Apr-25-1829_maxeplen10_maxtrainstep200_exh32_gamma099_lrac3e-4_lrcr1e-3/5131ba4422f83928eab452067adeb3f7f7723c60_ligand_2.pdbqt
 12 12 0 0 0
SMALL
GASTEIGER

@<TRIPOS>ATOM
      1  C          8.5990   -0.8180   -1.9650 C.3     1  UNL1        0.1270
      2  C          8.5780   -2.0180   -2.8200 C.2     1  UNL1        0.3030
      3  O          9.6560   -2.6140   -3.0510 O.2     1  UNL1       -0.2520
      4  O          7.4010   -2.4930   -3.3650 O.3     1  UNL1       -0.4810
      5  H          6.4670   -2.1010   -3.1440 H       1  UNL1        0.2960
      6  C          7.2360   -0.1480   -2.1010 C.3     1  UNL1        0.0470
      7  C          6.5920    0.0740   -0.7940 C.2     1  UNL1       -0.0470
      8  C          6.6900   -0.9310    0.1610 C.2     1  UNL1        0.0040
      9  C          5.8930    1.2000   -0.4440 C.2     1  UNL1        0.0040
     10  C          6.0890   -0.7610    1.4070 C.2     1  UNL1        0.0000
     11  C          5.2870    1.3980    0.7810 C.2     1  UNL1        0.0000
     12  C          5.4000    0.3820    1.7100 C.2     1  UNL1        0.0000
@<TRIPOS>BOND
     1     4     5    1
     2     4     2    1
     3     3     2    2
     4     2     1    1
     5     6     1    1
     6     6     7    1
     7     7     9    2
     8     7     8    1
     9     9    11    1
    10     8    10    2
    11    11    12    2
    12    10    12    1
