MODEL 1
REMARK VINA RESULT:      -7.0      0.000      0.000
REMARK SMILES O=C(O)CCc1ccccc1
REMARK SMILES IDX 4 1 2 2 1 3 3 4 5 6 6 7 7 8 11 9 8 10 10 11 9 12
REMARK H PARENT 3 5
REMARK Flexibility Score: inf
ROOT
ATOM      1  C   UNL     1       8.622  -0.787  -2.013  1.00  0.00     0.127 C 
ENDROOT
BRANCH   1   2
ATOM      2  C   UNL     1       8.580  -2.001  -2.846  1.00  0.00     0.303 C 
ATOM      3  O   UNL     1       9.647  -2.620  -3.069  1.00  0.00    -0.252 OA
BRANCH   2   4
ATOM      4  O   UNL     1       7.393  -2.466  -3.380  1.00  0.00    -0.481 OA
ATOM      5  H   UNL     1       7.299  -3.383  -3.855  1.00  0.00     0.296 HD
ENDBRANCH   2   4
ENDBRANCH   1   2
BRANCH   1   6
ATOM      6  C   UNL     1       7.246  -0.136  -2.098  1.00  0.00     0.047 C 
BRANCH   6   7
ATOM      7  C   UNL     1       6.616   0.009  -0.774  1.00  0.00    -0.047 A 
ATOM      8  C   UNL     1       5.920   1.181  -0.506  1.00  0.00     0.004 A 
ATOM      9  C   UNL     1       6.668  -0.928   0.226  1.00  0.00     0.004 A 
ATOM     10  C   UNL     1       5.316   1.357   0.737  1.00  0.00     0.000 A 
ATOM     11  C   UNL     1       6.080  -0.783   1.467  1.00  0.00     0.000 A 
ATOM     12  C   UNL     1       5.395   0.393   1.705  1.00  0.00     0.000 A 
ENDBRANCH   6   7
ENDBRANCH   1   6
TORSDOF 4
ENDMDL
MODEL 2
REMARK VINA RESULT:      -7.0      0.052      1.429
REMARK SMILES O=C(O)CCc1ccccc1
REMARK SMILES IDX 4 1 2 2 1 3 3 4 5 6 6 7 7 8 11 9 8 10 10 11 9 12
REMARK H PARENT 3 5
REMARK Flexibility Score: inf
ROOT
ATOM      1  C   UNL     1       8.599  -0.818  -1.965  1.00  0.00     0.127 C 
ENDROOT
BRANCH   1   2
ATOM      2  C   UNL     1       8.578  -2.018  -2.820  1.00  0.00     0.303 C 
ATOM      3  O   UNL     1       9.656  -2.614  -3.051  1.00  0.00    -0.252 OA
BRANCH   2   4
ATOM      4  O   UNL     1       7.401  -2.493  -3.365  1.00  0.00    -0.481 OA
ATOM      5  H   UNL     1       6.467  -2.101  -3.144  1.00  0.00     0.296 HD
ENDBRANCH   2   4
ENDBRANCH   1   2
BRANCH   1   6
ATOM      6  C   UNL     1       7.236  -0.148  -2.101  1.00  0.00     0.047 C 
BRANCH   6   7
ATOM      7  C   UNL     1       6.592   0.074  -0.794  1.00  0.00    -0.047 A 
ATOM      8  C   UNL     1       6.690  -0.931   0.161  1.00  0.00     0.004 A 
ATOM      9  C   UNL     1       5.893   1.200  -0.444  1.00  0.00     0.004 A 
ATOM     10  C   UNL     1       6.089  -0.761   1.407  1.00  0.00     0.000 A 
ATOM     11  C   UNL     1       5.287   1.398   0.781  1.00  0.00     0.000 A 
ATOM     12  C   UNL     1       5.400   0.382   1.710  1.00  0.00     0.000 A 
ENDBRANCH   6   7
ENDBRANCH   1   6
TORSDOF 4
ENDMDL
MODEL 3
REMARK VINA RESULT:      -6.8      0.618      1.110
REMARK SMILES O=C(O)CCc1ccccc1
REMARK SMILES IDX 4 1 2 2 1 3 3 4 5 6 6 7 7 8 11 9 8 10 10 11 9 12
REMARK H PARENT 3 5
REMARK Flexibility Score: inf
ROOT
ATOM      1  C   UNL     1       8.518  -1.103  -1.628  1.00  0.00     0.127 C 
ENDROOT
BRANCH   1   2
ATOM      2  C   UNL     1       8.576  -2.069  -2.739  1.00  0.00     0.303 C 
ATOM      3  O   UNL     1       9.686  -2.556  -3.061  1.00  0.00    -0.252 OA
BRANCH   2   4
ATOM      4  O   UNL     1       7.438  -2.446  -3.426  1.00  0.00    -0.481 OA
ATOM      5  H   UNL     1       7.030  -1.896  -4.204  1.00  0.00     0.296 HD
ENDBRANCH   2   4
ENDBRANCH   1   2
BRANCH   1   6
ATOM      6  C   UNL     1       7.475  -1.615  -0.642  1.00  0.00     0.047 C 
BRANCH   6   7
ATOM      7  C   UNL     1       6.649  -0.527  -0.091  1.00  0.00    -0.047 A 
ATOM      8  C   UNL     1       6.366   0.559  -0.911  1.00  0.00     0.004 A 
ATOM      9  C   UNL     1       6.137  -0.496   1.181  1.00  0.00     0.004 A 
ATOM     10  C   UNL     1       5.594   1.611  -0.423  1.00  0.00     0.000 A 
ATOM     11  C   UNL     1       5.369   0.530   1.692  1.00  0.00     0.000 A 
ATOM     12  C   UNL     1       5.105   1.596   0.855  1.00  0.00     0.000 A 
ENDBRANCH   6   7
ENDBRANCH   1   6
TORSDOF 4
ENDMDL
MODEL 4
REMARK VINA RESULT:      -6.7      0.284      1.010
REMARK SMILES O=C(O)CCc1ccccc1
REMARK SMILES IDX 4 1 2 2 1 3 3 4 5 6 6 7 7 8 11 9 8 10 10 11 9 12
REMARK H PARENT 3 5
REMARK Flexibility Score: inf
ROOT
ATOM      1  C   UNL     1       8.522  -0.395  -2.127  1.00  0.00     0.127 C 
ENDROOT
BRANCH   1   2
ATOM      2  C   UNL     1       8.720  -1.742  -2.691  1.00  0.00     0.303 C 
ATOM      3  O   UNL     1       7.716  -2.394  -3.065  1.00  0.00    -0.252 OA
BRANCH   2   4
ATOM      4  O   UNL     1       9.980  -2.293  -2.814  1.00  0.00    -0.481 OA
ATOM      5  H   UNL     1      10.264  -3.182  -2.361  1.00  0.00     0.296 HD
ENDBRANCH   2   4
ENDBRANCH   1   2
BRANCH   1   6
ATOM      6  C   UNL     1       7.023  -0.121  -2.134  1.00  0.00     0.047 C 
BRANCH   6   7
ATOM      7  C   UNL     1       6.479   0.031  -0.772  1.00  0.00    -0.047 A 
ATOM      8  C   UNL     1       5.828   1.218  -0.457  1.00  0.00     0.004 A 
ATOM      9  C   UNL     1       6.570  -0.911   0.219  1.00  0.00     0.004 A 
ATOM     10  C   UNL     1       5.307   1.402   0.822  1.00  0.00     0.000 A 
ATOM     11  C   UNL     1       6.064  -0.759   1.495  1.00  0.00     0.000 A 
ATOM     12  C   UNL     1       5.423   0.431   1.779  1.00  0.00     0.000 A 
ENDBRANCH   6   7
ENDBRANCH   1   6
TORSDOF 4
ENDMDL
MODEL 5
REMARK VINA RESULT:      -6.6      3.380      5.085
REMARK SMILES O=C(O)CCc1ccccc1
REMARK SMILES IDX 4 1 2 2 1 3 3 4 5 6 6 7 7 8 11 9 8 10 10 11 9 12
REMARK H PARENT 3 5
REMARK Flexibility Score: inf
ROOT
ATOM      1  C   UNL     1       5.012   1.747   0.746  1.00  0.00     0.127 C 
ENDROOT
BRANCH   1   2
ATOM      2  C   UNL     1       4.459   1.090   1.944  1.00  0.00     0.303 C 
ATOM      3  O   UNL     1       5.120   0.178   2.493  1.00  0.00    -0.252 OA
BRANCH   2   4
ATOM      4  O   UNL     1       3.236   1.461   2.468  1.00  0.00    -0.481 OA
ATOM      5  H   UNL     1       2.801   2.388   2.307  1.00  0.00     0.296 HD
ENDBRANCH   2   4
ENDBRANCH   1   2
BRANCH   1   6
ATOM      6  C   UNL     1       6.531   1.647   0.841  1.00  0.00     0.047 C 
BRANCH   6   7
ATOM      7  C   UNL     1       7.110   0.900  -0.289  1.00  0.00    -0.047 A 
ATOM      8  C   UNL     1       8.398   1.226  -0.697  1.00  0.00     0.004 A 
ATOM      9  C   UNL     1       6.472  -0.097  -0.981  1.00  0.00     0.004 A 
ATOM     10  C   UNL     1       8.978   0.546  -1.766  1.00  0.00     0.000 A 
ATOM     11  C   UNL     1       7.019  -0.789  -2.043  1.00  0.00     0.000 A 
ATOM     12  C   UNL     1       8.300  -0.442  -2.426  1.00  0.00     0.000 A 
ENDBRANCH   6   7
ENDBRANCH   1   6
TORSDOF 4
ENDMDL
