@<TRIPOS>MOLECULE
/home/cewinharhar/GITHUB/reincatalyze/data/processed/docking_pred/2023-Apr-25-1829_maxeplen10_maxtrainstep200_exh32_gamma099_lrac3e-4_lrcr1e-3/5131ba4422f83928eab452067adeb3f7f7723c60_ligand_2.pdbqt
 12 12 0 0 0
SMALL
GASTEIGER

@<TRIPOS>ATOM
      1  C          8.5180   -1.1030   -1.6280 C.3     1  UNL1        0.1270
      2  C          8.5760   -2.0690   -2.7390 C.2     1  UNL1        0.3030
      3  O          9.6860   -2.5560   -3.0610 O.2     1  UNL1       -0.2520
      4  O          7.4380   -2.4460   -3.4260 O.3     1  UNL1       -0.4810
      5  H          7.0300   -1.8960   -4.2040 H       1  UNL1        0.2960
      6  C          7.4750   -1.6150   -0.6420 C.3     1  UNL1        0.0470
      7  C          6.6490   -0.5270   -0.0910 C.2     1  UNL1       -0.0470
      8  C          6.3660    0.5590   -0.9110 C.2     1  UNL1        0.0040
      9  C          6.1370   -0.4960    1.1810 C.2     1  UNL1        0.0040
     10  C          5.5940    1.6110   -0.4230 C.2     1  UNL1        0.0000
     11  C          5.3690    0.5300    1.6920 C.2     1  UNL1        0.0000
     12  C          5.1050    1.5960    0.8550 C.2     1  UNL1        0.0000
@<TRIPOS>BOND
     1     5     4    1
     2     4     2    1
     3     3     2    2
     4     2     1    1
     5     1     6    1
     6     8    10    1
     7     8     7    2
     8     6     7    1
     9    10    12    2
    10     7     9    1
    11    12    11    1
    12     9    11    2
