@<TRIPOS>MOLECULE
/home/cewinharhar/GITHUB/reincatalyze/data/processed/docking_pred/2023-Apr-25-1829_maxeplen10_maxtrainstep200_exh32_gamma099_lrac3e-4_lrcr1e-3/51cadb519a72bd0ce332fe372f57097c9ba117cb_ligand_2.pdbqt
 12 12 0 0 0
SMALL
GASTEIGER

@<TRIPOS>ATOM
      1  C          8.4760   -0.5960   -2.2210 C.3     1  UNL1        0.1270
      2  C          8.4820   -1.8940   -2.9170 C.2     1  UNL1        0.3030
      3  O          9.5700   -2.5020   -3.0540 O.2     1  UNL1       -0.2520
      4  O          7.3190   -2.4490   -3.4150 O.3     1  UNL1       -0.4810
      5  H          7.2920   -3.3370   -3.9510 H       1  UNL1        0.2960
      6  C          7.0310   -0.1100   -2.1910 C.3     1  UNL1        0.0470
      7  C          6.5100    0.0020   -0.8170 C.2     1  UNL1       -0.0470
      8  C          5.8810    1.1850   -0.4510 C.2     1  UNL1        0.0040
      9  C          6.6040   -0.9760    0.1400 C.2     1  UNL1        0.0040
     10  C          5.3810    1.3320    0.8420 C.2     1  UNL1        0.0000
     11  C          6.1190   -0.8610    1.4280 C.2     1  UNL1        0.0000
     12  C          5.4990    0.3270    1.7630 C.2     1  UNL1        0.0000
@<TRIPOS>BOND
     1     5     4    1
     2     4     2    1
     3     3     2    2
     4     2     1    1
     5     1     6    1
     6     6     7    1
     7     7     8    2
     8     7     9    1
     9     8    10    1
    10     9    11    2
    11    10    12    2
    12    11    12    1
