@<TRIPOS>MOLECULE
/home/cewinharhar/GITHUB/reincatalyze/data/processed/docking_pred/2023-Apr-25-1829_maxeplen10_maxtrainstep200_exh32_gamma099_lrac3e-4_lrcr1e-3/51cadb519a72bd0ce332fe372f57097c9ba117cb_ligand_2.pdbqt
 12 12 0 0 0
SMALL
GASTEIGER

@<TRIPOS>ATOM
      1  C          8.2050    0.2460   -2.1660 C.3     1  UNL1        0.1270
      2  C          9.3580    0.3590   -1.2560 C.2     1  UNL1        0.3030
      3  O          9.4310   -0.4160   -0.2730 O.2     1  UNL1       -0.2520
      4  O         10.3520    1.2950   -1.4660 O.3     1  UNL1       -0.4810
      5  H         10.2330    2.3080   -1.2820 H       1  UNL1        0.2960
      6  C          7.1520   -0.5940   -1.4540 C.3     1  UNL1        0.0470
      7  C          6.3540    0.2020   -0.5040 C.2     1  UNL1       -0.0470
      8  C          6.1380   -0.3200    0.7660 C.2     1  UNL1        0.0040
      9  C          5.7980    1.4250   -0.7770 C.2     1  UNL1        0.0040
     10  C          5.3840    0.4000    1.6900 C.2     1  UNL1        0.0000
     11  C          5.0470    2.1620    0.1160 C.2     1  UNL1        0.0000
     12  C          4.8490    1.6180    1.3700 C.2     1  UNL1        0.0000
@<TRIPOS>BOND
     1     1     6    1
     2     1     2    1
     3     4     5    1
     4     4     2    1
     5     6     7    1
     6     2     3    2
     7     9     7    2
     8     9    11    1
     9     7     8    1
    10    11    12    2
    11     8    10    2
    12    12    10    1
