MODEL 1
REMARK VINA RESULT:      -7.3      0.000      0.000
REMARK SMILES O=C(O)CCc1ccccc1
REMARK SMILES IDX 4 1 2 2 1 3 3 4 5 6 6 7 7 8 11 9 8 10 10 11 9 12
REMARK H PARENT 3 5
REMARK Flexibility Score: inf
ROOT
ATOM      1  C   UNL     1       8.492  -0.755  -2.015  1.00  0.00     0.127 C 
ENDROOT
BRANCH   1   2
ATOM      2  C   UNL     1       8.479  -1.954  -2.871  1.00  0.00     0.303 C 
ATOM      3  O   UNL     1       9.559  -2.547  -3.100  1.00  0.00    -0.252 OA
BRANCH   2   4
ATOM      4  O   UNL     1       7.305  -2.434  -3.420  1.00  0.00    -0.481 OA
ATOM      5  H   UNL     1       7.186  -3.407  -3.759  1.00  0.00     0.296 HD
ENDBRANCH   2   4
ENDBRANCH   1   2
BRANCH   1   6
ATOM      6  C   UNL     1       7.115  -0.111  -2.125  1.00  0.00     0.047 C 
BRANCH   6   7
ATOM      7  C   UNL     1       6.503   0.120  -0.804  1.00  0.00    -0.047 A 
ATOM      8  C   UNL     1       6.617  -0.881   0.153  1.00  0.00     0.004 A 
ATOM      9  C   UNL     1       5.818   1.252  -0.444  1.00  0.00     0.004 A 
ATOM     10  C   UNL     1       6.046  -0.702   1.412  1.00  0.00     0.000 A 
ATOM     11  C   UNL     1       5.241   1.458   0.794  1.00  0.00     0.000 A 
ATOM     12  C   UNL     1       5.370   0.446   1.725  1.00  0.00     0.000 A 
ENDBRANCH   6   7
ENDBRANCH   1   6
TORSDOF 4
ENDMDL
MODEL 2
REMARK VINA RESULT:      -7.3      0.142      1.436
REMARK SMILES O=C(O)CCc1ccccc1
REMARK SMILES IDX 4 1 2 2 1 3 3 4 5 6 6 7 7 8 11 9 8 10 10 11 9 12
REMARK H PARENT 3 5
REMARK Flexibility Score: inf
ROOT
ATOM      1  C   UNL     1       8.476  -0.596  -2.221  1.00  0.00     0.127 C 
ENDROOT
BRANCH   1   2
ATOM      2  C   UNL     1       8.482  -1.894  -2.917  1.00  0.00     0.303 C 
ATOM      3  O   UNL     1       9.570  -2.502  -3.054  1.00  0.00    -0.252 OA
BRANCH   2   4
ATOM      4  O   UNL     1       7.319  -2.449  -3.415  1.00  0.00    -0.481 OA
ATOM      5  H   UNL     1       7.292  -3.337  -3.951  1.00  0.00     0.296 HD
ENDBRANCH   2   4
ENDBRANCH   1   2
BRANCH   1   6
ATOM      6  C   UNL     1       7.031  -0.110  -2.191  1.00  0.00     0.047 C 
BRANCH   6   7
ATOM      7  C   UNL     1       6.510   0.002  -0.817  1.00  0.00    -0.047 A 
ATOM      8  C   UNL     1       5.881   1.185  -0.451  1.00  0.00     0.004 A 
ATOM      9  C   UNL     1       6.604  -0.976   0.140  1.00  0.00     0.004 A 
ATOM     10  C   UNL     1       5.381   1.332   0.842  1.00  0.00     0.000 A 
ATOM     11  C   UNL     1       6.119  -0.861   1.428  1.00  0.00     0.000 A 
ATOM     12  C   UNL     1       5.499   0.327   1.763  1.00  0.00     0.000 A 
ENDBRANCH   6   7
ENDBRANCH   1   6
TORSDOF 4
ENDMDL
MODEL 3
REMARK VINA RESULT:      -7.2      0.554      1.569
REMARK SMILES O=C(O)CCc1ccccc1
REMARK SMILES IDX 4 1 2 2 1 3 3 4 5 6 6 7 7 8 11 9 8 10 10 11 9 12
REMARK H PARENT 3 5
REMARK Flexibility Score: inf
ROOT
ATOM      1  C   UNL     1       8.244  -0.893  -1.924  1.00  0.00     0.127 C 
ENDROOT
BRANCH   1   2
ATOM      2  C   UNL     1       8.374  -2.008  -2.878  1.00  0.00     0.303 C 
ATOM      3  O   UNL     1       9.512  -2.485  -3.101  1.00  0.00    -0.252 OA
BRANCH   2   4
ATOM      4  O   UNL     1       7.272  -2.534  -3.525  1.00  0.00    -0.481 OA
ATOM      5  H   UNL     1       6.321  -2.553  -3.113  1.00  0.00     0.296 HD
ENDBRANCH   2   4
ENDBRANCH   1   2
BRANCH   1   6
ATOM      6  C   UNL     1       7.476  -1.422  -0.718  1.00  0.00     0.047 C 
BRANCH   6   7
ATOM      7  C   UNL     1       6.620  -0.390  -0.108  1.00  0.00    -0.047 A 
ATOM      8  C   UNL     1       6.294   0.725  -0.871  1.00  0.00     0.004 A 
ATOM      9  C   UNL     1       6.119  -0.439   1.168  1.00  0.00     0.004 A 
ATOM     10  C   UNL     1       5.492   1.725  -0.327  1.00  0.00     0.000 A 
ATOM     11  C   UNL     1       5.322   0.535   1.735  1.00  0.00     0.000 A 
ATOM     12  C   UNL     1       5.015   1.632   0.953  1.00  0.00     0.000 A 
ENDBRANCH   6   7
ENDBRANCH   1   6
TORSDOF 4
ENDMDL
MODEL 4
REMARK VINA RESULT:      -6.8      3.364      5.092
REMARK SMILES O=C(O)CCc1ccccc1
REMARK SMILES IDX 4 1 2 2 1 3 3 4 5 6 6 7 7 8 11 9 8 10 10 11 9 12
REMARK H PARENT 3 5
REMARK Flexibility Score: inf
ROOT
ATOM      1  C   UNL     1       4.980   1.788   0.690  1.00  0.00     0.127 C 
ENDROOT
BRANCH   1   2
ATOM      2  C   UNL     1       4.476   1.126   1.907  1.00  0.00     0.303 C 
ATOM      3  O   UNL     1       5.180   0.243   2.451  1.00  0.00    -0.252 OA
BRANCH   2   4
ATOM      4  O   UNL     1       3.253   1.462   2.455  1.00  0.00    -0.481 OA
ATOM      5  H   UNL     1       2.635   0.782   2.936  1.00  0.00     0.296 HD
ENDBRANCH   2   4
ENDBRANCH   1   2
BRANCH   1   6
ATOM      6  C   UNL     1       6.502   1.768   0.767  1.00  0.00     0.047 C 
BRANCH   6   7
ATOM      7  C   UNL     1       7.104   0.989  -0.329  1.00  0.00    -0.047 A 
ATOM      8  C   UNL     1       8.436   1.226  -0.645  1.00  0.00     0.004 A 
ATOM      9  C   UNL     1       6.446   0.044  -1.074  1.00  0.00     0.004 A 
ATOM     10  C   UNL     1       9.039   0.514  -1.680  1.00  0.00     0.000 A 
ATOM     11  C   UNL     1       7.015  -0.677  -2.105  1.00  0.00     0.000 A 
ATOM     12  C   UNL     1       8.341  -0.420  -2.396  1.00  0.00     0.000 A 
ENDBRANCH   6   7
ENDBRANCH   1   6
TORSDOF 4
ENDMDL
MODEL 5
REMARK VINA RESULT:      -6.6      1.919      2.252
REMARK SMILES O=C(O)CCc1ccccc1
REMARK SMILES IDX 4 1 2 2 1 3 3 4 5 6 6 7 7 8 11 9 8 10 10 11 9 12
REMARK H PARENT 3 5
REMARK Flexibility Score: inf
ROOT
ATOM      1  C   UNL     1       8.205   0.246  -2.166  1.00  0.00     0.127 C 
ENDROOT
BRANCH   1   2
ATOM      2  C   UNL     1       9.358   0.359  -1.256  1.00  0.00     0.303 C 
ATOM      3  O   UNL     1       9.431  -0.416  -0.273  1.00  0.00    -0.252 OA
BRANCH   2   4
ATOM      4  O   UNL     1      10.352   1.295  -1.466  1.00  0.00    -0.481 OA
ATOM      5  H   UNL     1      10.233   2.308  -1.282  1.00  0.00     0.296 HD
ENDBRANCH   2   4
ENDBRANCH   1   2
BRANCH   1   6
ATOM      6  C   UNL     1       7.152  -0.594  -1.454  1.00  0.00     0.047 C 
BRANCH   6   7
ATOM      7  C   UNL     1       6.354   0.202  -0.504  1.00  0.00    -0.047 A 
ATOM      8  C   UNL     1       6.138  -0.320   0.766  1.00  0.00     0.004 A 
ATOM      9  C   UNL     1       5.798   1.425  -0.777  1.00  0.00     0.004 A 
ATOM     10  C   UNL     1       5.384   0.400   1.690  1.00  0.00     0.000 A 
ATOM     11  C   UNL     1       5.047   2.162   0.116  1.00  0.00     0.000 A 
ATOM     12  C   UNL     1       4.849   1.618   1.370  1.00  0.00     0.000 A 
ENDBRANCH   6   7
ENDBRANCH   1   6
TORSDOF 4
ENDMDL
