@<TRIPOS>MOLECULE
/home/cewinharhar/GITHUB/reincatalyze/data/processed/docking_pred/2023-Apr-25-1829_maxeplen10_maxtrainstep200_exh32_gamma099_lrac3e-4_lrcr1e-3/51cadb519a72bd0ce332fe372f57097c9ba117cb_ligand_2.pdbqt
 12 12 0 0 0
SMALL
GASTEIGER

@<TRIPOS>ATOM
      1  C          4.9800    1.7880    0.6900 C.3     1  UNL1        0.1270
      2  C          4.4760    1.1260    1.9070 C.2     1  UNL1        0.3030
      3  O          5.1800    0.2430    2.4510 O.2     1  UNL1       -0.2520
      4  O          3.2530    1.4620    2.4550 O.3     1  UNL1       -0.4810
      5  H          2.6350    0.7820    2.9360 H       1  UNL1        0.2960
      6  C          6.5020    1.7680    0.7670 C.3     1  UNL1        0.0470
      7  C          7.1040    0.9890   -0.3290 C.2     1  UNL1       -0.0470
      8  C          8.4360    1.2260   -0.6450 C.2     1  UNL1        0.0040
      9  C          6.4460    0.0440   -1.0740 C.2     1  UNL1        0.0040
     10  C          9.0390    0.5140   -1.6800 C.2     1  UNL1        0.0000
     11  C          7.0150   -0.6770   -2.1050 C.2     1  UNL1        0.0000
     12  C          8.3410   -0.4200   -2.3960 C.2     1  UNL1        0.0000
@<TRIPOS>BOND
     1    12    11    2
     2    12    10    1
     3    11     9    1
     4    10     8    2
     5     9     7    2
     6     8     7    1
     7     7     6    1
     8     1     6    1
     9     1     2    1
    10     2     3    2
    11     2     4    1
    12     4     5    1
