@<TRIPOS>MOLECULE
/home/cewinharhar/GITHUB/reincatalyze/data/processed/docking_pred/2023-Apr-25-1829_maxeplen10_maxtrainstep200_exh32_gamma099_lrac3e-4_lrcr1e-3/51cadb519a72bd0ce332fe372f57097c9ba117cb_ligand_2.pdbqt
 12 12 0 0 0
SMALL
GASTEIGER

@<TRIPOS>ATOM
      1  C          8.2440   -0.8930   -1.9240 C.3     1  UNL1        0.1270
      2  C          8.3740   -2.0080   -2.8780 C.2     1  UNL1        0.3030
      3  O          9.5120   -2.4850   -3.1010 O.2     1  UNL1       -0.2520
      4  O          7.2720   -2.5340   -3.5250 O.3     1  UNL1       -0.4810
      5  H          6.3210   -2.5530   -3.1130 H       1  UNL1        0.2960
      6  C          7.4760   -1.4220   -0.7180 C.3     1  UNL1        0.0470
      7  C          6.6200   -0.3900   -0.1080 C.2     1  UNL1       -0.0470
      8  C          6.2940    0.7250   -0.8710 C.2     1  UNL1        0.0040
      9  C          6.1190   -0.4390    1.1680 C.2     1  UNL1        0.0040
     10  C          5.4920    1.7250   -0.3270 C.2     1  UNL1        0.0000
     11  C          5.3220    0.5350    1.7350 C.2     1  UNL1        0.0000
     12  C          5.0150    1.6320    0.9530 C.2     1  UNL1        0.0000
@<TRIPOS>BOND
     1     4     5    1
     2     4     2    1
     3     3     2    2
     4     2     1    1
     5     1     6    1
     6     8    10    1
     7     8     7    2
     8     6     7    1
     9    10    12    2
    10     7     9    1
    11    12    11    1
    12     9    11    2
