@<TRIPOS>MOLECULE
/home/cewinharhar/GITHUB/reincatalyze/data/processed/docking_pred/2023-Apr-25-1829_maxeplen10_maxtrainstep200_exh32_gamma099_lrac3e-4_lrcr1e-3/51cadb519a72bd0ce332fe372f57097c9ba117cb_ligand_2.pdbqt
 12 12 0 0 0
SMALL
GASTEIGER

@<TRIPOS>ATOM
      1  C          8.4920   -0.7550   -2.0150 C.3     1  UNL1        0.1270
      2  C          8.4790   -1.9540   -2.8710 C.2     1  UNL1        0.3030
      3  O          9.5590   -2.5470   -3.1000 O.2     1  UNL1       -0.2520
      4  O          7.3050   -2.4340   -3.4200 O.3     1  UNL1       -0.4810
      5  H          7.1860   -3.4070   -3.7590 H       1  UNL1        0.2960
      6  C          7.1150   -0.1110   -2.1250 C.3     1  UNL1        0.0470
      7  C          6.5030    0.1200   -0.8040 C.2     1  UNL1       -0.0470
      8  C          6.6170   -0.8810    0.1530 C.2     1  UNL1        0.0040
      9  C          5.8180    1.2520   -0.4440 C.2     1  UNL1        0.0040
     10  C          6.0460   -0.7020    1.4120 C.2     1  UNL1        0.0000
     11  C          5.2410    1.4580    0.7940 C.2     1  UNL1        0.0000
     12  C          5.3700    0.4460    1.7250 C.2     1  UNL1        0.0000
@<TRIPOS>BOND
     1     5     4    1
     2     4     2    1
     3     3     2    2
     4     2     1    1
     5     6     1    1
     6     6     7    1
     7     7     9    2
     8     7     8    1
     9     9    11    1
    10     8    10    2
    11    11    12    2
    12    10    12    1
