@<TRIPOS>MOLECULE
/home/cewinharhar/GITHUB/reincatalyze/data/processed/docking_pred/2023-Apr-25-1829_maxeplen10_maxtrainstep200_exh32_gamma099_lrac3e-4_lrcr1e-3/551c5941f3bf749be32b1159c48b101be233bdbe_ligand_2.pdbqt
 12 12 0 0 0
SMALL
GASTEIGER

@<TRIPOS>ATOM
      1  C          8.4350   -0.6470   -2.1170 C.3     1  UNL1        0.1270
      2  C          8.4020   -1.9050   -2.8840 C.2     1  UNL1        0.3030
      3  O          7.2910   -2.3870   -3.2090 O.2     1  UNL1       -0.2520
      4  O          9.5650   -2.5560   -3.2490 O.3     1  UNL1       -0.4810
      5  H          9.8010   -2.8010   -4.2280 H       1  UNL1        0.2960
      6  C          7.0160   -0.0920   -2.1060 C.3     1  UNL1        0.0470
      7  C          6.4730    0.0210   -0.7410 C.2     1  UNL1       -0.0470
      8  C          5.8420    1.2060   -0.3840 C.2     1  UNL1        0.0040
      9  C          6.5470   -0.9580    0.2160 C.2     1  UNL1        0.0040
     10  C          5.3210    1.3530    0.9010 C.2     1  UNL1        0.0000
     11  C          6.0410   -0.8430    1.4960 C.2     1  UNL1        0.0000
     12  C          5.4200    0.3460    1.8220 C.2     1  UNL1        0.0000
@<TRIPOS>BOND
     1     5     4    1
     2     4     2    1
     3     3     2    2
     4     2     1    1
     5     1     6    1
     6     6     7    1
     7     7     8    2
     8     7     9    1
     9     8    10    1
    10     9    11    2
    11    10    12    2
    12    11    12    1
