MODEL 1
REMARK VINA RESULT:      -7.3      0.000      0.000
REMARK SMILES O=C(O)CCc1ccccc1
REMARK SMILES IDX 4 1 2 2 1 3 3 4 5 6 6 7 7 8 11 9 8 10 10 11 9 12
REMARK H PARENT 3 5
REMARK Flexibility Score: inf
ROOT
ATOM      1  C   UNL     1       8.449  -0.631  -2.146  1.00  0.00     0.127 C 
ENDROOT
BRANCH   1   2
ATOM      2  C   UNL     1       8.478  -1.890  -2.912  1.00  0.00     0.303 C 
ATOM      3  O   UNL     1       9.578  -2.463  -3.092  1.00  0.00    -0.252 OA
BRANCH   2   4
ATOM      4  O   UNL     1       7.323  -2.444  -3.429  1.00  0.00    -0.481 OA
ATOM      5  H   UNL     1       7.318  -3.196  -4.142  1.00  0.00     0.296 HD
ENDBRANCH   2   4
ENDBRANCH   1   2
BRANCH   1   6
ATOM      6  C   UNL     1       7.013  -0.121  -2.176  1.00  0.00     0.047 C 
BRANCH   6   7
ATOM      7  C   UNL     1       6.470   0.091  -0.822  1.00  0.00    -0.047 A 
ATOM      8  C   UNL     1       6.607  -0.935   0.105  1.00  0.00     0.004 A 
ATOM      9  C   UNL     1       5.829   1.228  -0.402  1.00  0.00     0.004 A 
ATOM     10  C   UNL     1       6.101  -0.775   1.394  1.00  0.00     0.000 A 
ATOM     11  C   UNL     1       5.318   1.417   0.866  1.00  0.00     0.000 A 
ATOM     12  C   UNL     1       5.468   0.380   1.766  1.00  0.00     0.000 A 
ENDBRANCH   6   7
ENDBRANCH   1   6
TORSDOF 4
ENDMDL
MODEL 2
REMARK VINA RESULT:      -7.2      0.120      1.728
REMARK SMILES O=C(O)CCc1ccccc1
REMARK SMILES IDX 4 1 2 2 1 3 3 4 5 6 6 7 7 8 11 9 8 10 10 11 9 12
REMARK H PARENT 3 5
REMARK Flexibility Score: inf
ROOT
ATOM      1  C   UNL     1       8.435  -0.647  -2.117  1.00  0.00     0.127 C 
ENDROOT
BRANCH   1   2
ATOM      2  C   UNL     1       8.402  -1.905  -2.884  1.00  0.00     0.303 C 
ATOM      3  O   UNL     1       7.291  -2.387  -3.209  1.00  0.00    -0.252 OA
BRANCH   2   4
ATOM      4  O   UNL     1       9.565  -2.556  -3.249  1.00  0.00    -0.481 OA
ATOM      5  H   UNL     1       9.801  -2.801  -4.228  1.00  0.00     0.296 HD
ENDBRANCH   2   4
ENDBRANCH   1   2
BRANCH   1   6
ATOM      6  C   UNL     1       7.016  -0.092  -2.106  1.00  0.00     0.047 C 
BRANCH   6   7
ATOM      7  C   UNL     1       6.473   0.021  -0.741  1.00  0.00    -0.047 A 
ATOM      8  C   UNL     1       5.842   1.206  -0.384  1.00  0.00     0.004 A 
ATOM      9  C   UNL     1       6.547  -0.958   0.216  1.00  0.00     0.004 A 
ATOM     10  C   UNL     1       5.321   1.353   0.901  1.00  0.00     0.000 A 
ATOM     11  C   UNL     1       6.041  -0.843   1.496  1.00  0.00     0.000 A 
ATOM     12  C   UNL     1       5.420   0.346   1.822  1.00  0.00     0.000 A 
ENDBRANCH   6   7
ENDBRANCH   1   6
TORSDOF 4
ENDMDL
MODEL 3
REMARK VINA RESULT:      -7.1      0.597      1.863
REMARK SMILES O=C(O)CCc1ccccc1
REMARK SMILES IDX 4 1 2 2 1 3 3 4 5 6 6 7 7 8 11 9 8 10 10 11 9 12
REMARK H PARENT 3 5
REMARK Flexibility Score: inf
ROOT
ATOM      1  C   UNL     1       8.243  -0.881  -1.922  1.00  0.00     0.127 C 
ENDROOT
BRANCH   1   2
ATOM      2  C   UNL     1       8.311  -2.002  -2.876  1.00  0.00     0.303 C 
ATOM      3  O   UNL     1       7.246  -2.438  -3.374  1.00  0.00    -0.252 OA
BRANCH   2   4
ATOM      4  O   UNL     1       9.518  -2.575  -3.228  1.00  0.00    -0.481 OA
ATOM      5  H   UNL     1       9.665  -3.599  -3.306  1.00  0.00     0.296 HD
ENDBRANCH   2   4
ENDBRANCH   1   2
BRANCH   1   6
ATOM      6  C   UNL     1       7.528  -1.394  -0.677  1.00  0.00     0.047 C 
BRANCH   6   7
ATOM      7  C   UNL     1       6.649  -0.373  -0.081  1.00  0.00    -0.047 A 
ATOM      8  C   UNL     1       6.300   0.724  -0.858  1.00  0.00     0.004 A 
ATOM      9  C   UNL     1       6.147  -0.418   1.195  1.00  0.00     0.004 A 
ATOM     10  C   UNL     1       5.475   1.714  -0.327  1.00  0.00     0.000 A 
ATOM     11  C   UNL     1       5.329   0.546   1.749  1.00  0.00     0.000 A 
ATOM     12  C   UNL     1       5.000   1.626   0.953  1.00  0.00     0.000 A 
ENDBRANCH   6   7
ENDBRANCH   1   6
TORSDOF 4
ENDMDL
MODEL 4
REMARK VINA RESULT:      -6.8      3.385      5.080
REMARK SMILES O=C(O)CCc1ccccc1
REMARK SMILES IDX 4 1 2 2 1 3 3 4 5 6 6 7 7 8 11 9 8 10 10 11 9 12
REMARK H PARENT 3 5
REMARK Flexibility Score: inf
ROOT
ATOM      1  C   UNL     1       4.973   1.770   0.711  1.00  0.00     0.127 C 
ENDROOT
BRANCH   1   2
ATOM      2  C   UNL     1       4.465   1.110   1.926  1.00  0.00     0.303 C 
ATOM      3  O   UNL     1       5.165   0.223   2.470  1.00  0.00    -0.252 OA
BRANCH   2   4
ATOM      4  O   UNL     1       3.243   1.450   2.473  1.00  0.00    -0.481 OA
ATOM      5  H   UNL     1       3.057   1.471   3.493  1.00  0.00     0.296 HD
ENDBRANCH   2   4
ENDBRANCH   1   2
BRANCH   1   6
ATOM      6  C   UNL     1       6.493   1.806   0.821  1.00  0.00     0.047 C 
BRANCH   6   7
ATOM      7  C   UNL     1       7.148   1.097  -0.292  1.00  0.00    -0.047 A 
ATOM      8  C   UNL     1       6.375   0.242  -1.068  1.00  0.00     0.004 A 
ATOM      9  C   UNL     1       8.474   1.210  -0.623  1.00  0.00     0.004 A 
ATOM     10  C   UNL     1       6.960  -0.451  -2.126  1.00  0.00     0.000 A 
ATOM     11  C   UNL     1       9.082   0.537  -1.664  1.00  0.00     0.000 A 
ATOM     12  C   UNL     1       8.288  -0.306  -2.417  1.00  0.00     0.000 A 
ENDBRANCH   6   7
ENDBRANCH   1   6
TORSDOF 4
ENDMDL
MODEL 5
REMARK VINA RESULT:      -6.6      3.825      4.957
REMARK SMILES O=C(O)CCc1ccccc1
REMARK SMILES IDX 4 1 2 2 1 3 3 4 5 6 6 7 7 8 11 9 8 10 10 11 9 12
REMARK H PARENT 3 5
REMARK Flexibility Score: inf
ROOT
ATOM      1  C   UNL     1       5.478   2.981  -0.012  1.00  0.00     0.127 C 
ENDROOT
BRANCH   1   2
ATOM      2  C   UNL     1       6.250   3.926   0.812  1.00  0.00     0.303 C 
ATOM      3  O   UNL     1       6.982   4.769   0.241  1.00  0.00    -0.252 OA
BRANCH   2   4
ATOM      4  O   UNL     1       6.182   3.901   2.192  1.00  0.00    -0.481 OA
ATOM      5  H   UNL     1       6.713   3.233   2.780  1.00  0.00     0.296 HD
ENDBRANCH   2   4
ENDBRANCH   1   2
BRANCH   1   6
ATOM      6  C   UNL     1       4.893   1.937   0.933  1.00  0.00     0.047 C 
BRANCH   6   7
ATOM      7  C   UNL     1       5.679   0.691   0.940  1.00  0.00    -0.047 A 
ATOM      8  C   UNL     1       5.732  -0.041   2.119  1.00  0.00     0.004 A 
ATOM      9  C   UNL     1       6.372   0.194  -0.134  1.00  0.00     0.004 A 
ATOM     10  C   UNL     1       6.471  -1.222   2.167  1.00  0.00     0.000 A 
ATOM     11  C   UNL     1       7.112  -0.972  -0.118  1.00  0.00     0.000 A 
ATOM     12  C   UNL     1       7.148  -1.678   1.069  1.00  0.00     0.000 A 
ENDBRANCH   6   7
ENDBRANCH   1   6
TORSDOF 4
ENDMDL
