@<TRIPOS>MOLECULE
/home/cewinharhar/GITHUB/reincatalyze/data/processed/docking_pred/2023-Apr-25-1829_maxeplen10_maxtrainstep200_exh32_gamma099_lrac3e-4_lrcr1e-3/551c5941f3bf749be32b1159c48b101be233bdbe_ligand_2.pdbqt
 12 12 0 0 0
SMALL
GASTEIGER

@<TRIPOS>ATOM
      1  C          8.2430   -0.8810   -1.9220 C.3     1  UNL1        0.1270
      2  C          8.3110   -2.0020   -2.8760 C.2     1  UNL1        0.3030
      3  O          7.2460   -2.4380   -3.3740 O.2     1  UNL1       -0.2520
      4  O          9.5180   -2.5750   -3.2280 O.3     1  UNL1       -0.4810
      5  H          9.6650   -3.5990   -3.3060 H       1  UNL1        0.2960
      6  C          7.5280   -1.3940   -0.6770 C.3     1  UNL1        0.0470
      7  C          6.6490   -0.3730   -0.0810 C.2     1  UNL1       -0.0470
      8  C          6.3000    0.7240   -0.8580 C.2     1  UNL1        0.0040
      9  C          6.1470   -0.4180    1.1950 C.2     1  UNL1        0.0040
     10  C          5.4750    1.7140   -0.3270 C.2     1  UNL1        0.0000
     11  C          5.3290    0.5460    1.7490 C.2     1  UNL1        0.0000
     12  C          5.0000    1.6260    0.9530 C.2     1  UNL1        0.0000
@<TRIPOS>BOND
     1     3     2    2
     2     5     4    1
     3     4     2    1
     4     2     1    1
     5     1     6    1
     6     8    10    1
     7     8     7    2
     8     6     7    1
     9    10    12    2
    10     7     9    1
    11    12    11    1
    12     9    11    2
