@<TRIPOS>MOLECULE
/home/cewinharhar/GITHUB/reincatalyze/data/processed/docking_pred/2023-Apr-25-1829_maxeplen10_maxtrainstep200_exh32_gamma099_lrac3e-4_lrcr1e-3/551c5941f3bf749be32b1159c48b101be233bdbe_ligand_2.pdbqt
 12 12 0 0 0
SMALL
GASTEIGER

@<TRIPOS>ATOM
      1  C          5.4780    2.9810   -0.0120 C.3     1  UNL1        0.1270
      2  C          6.2500    3.9260    0.8120 C.2     1  UNL1        0.3030
      3  O          6.9820    4.7690    0.2410 O.2     1  UNL1       -0.2520
      4  O          6.1820    3.9010    2.1920 O.3     1  UNL1       -0.4810
      5  H          6.7130    3.2330    2.7800 H       1  UNL1        0.2960
      6  C          4.8930    1.9370    0.9330 C.3     1  UNL1        0.0470
      7  C          5.6790    0.6910    0.9400 C.2     1  UNL1       -0.0470
      8  C          5.7320   -0.0410    2.1190 C.2     1  UNL1        0.0040
      9  C          6.3720    0.1940   -0.1340 C.2     1  UNL1        0.0040
     10  C          6.4710   -1.2220    2.1670 C.2     1  UNL1        0.0000
     11  C          7.1120   -0.9720   -0.1180 C.2     1  UNL1        0.0000
     12  C          7.1480   -1.6780    1.0690 C.2     1  UNL1        0.0000
@<TRIPOS>BOND
     1     9    11    1
     2     9     7    2
     3    11    12    2
     4     1     2    1
     5     1     6    1
     6     3     2    2
     7     2     4    1
     8     6     7    1
     9     7     8    1
    10    12    10    1
    11     8    10    2
    12     4     5    1
