@<TRIPOS>MOLECULE
/home/cewinharhar/GITHUB/reincatalyze/data/processed/docking_pred/2023-Apr-25-1829_maxeplen10_maxtrainstep200_exh32_gamma099_lrac3e-4_lrcr1e-3/551c5941f3bf749be32b1159c48b101be233bdbe_ligand_2.pdbqt
 12 12 0 0 0
SMALL
GASTEIGER

@<TRIPOS>ATOM
      1  C          4.9730    1.7700    0.7110 C.3     1  UNL1        0.1270
      2  C          4.4650    1.1100    1.9260 C.2     1  UNL1        0.3030
      3  O          5.1650    0.2230    2.4700 O.2     1  UNL1       -0.2520
      4  O          3.2430    1.4500    2.4730 O.3     1  UNL1       -0.4810
      5  H          3.0570    1.4710    3.4930 H       1  UNL1        0.2960
      6  C          6.4930    1.8060    0.8210 C.3     1  UNL1        0.0470
      7  C          7.1480    1.0970   -0.2920 C.2     1  UNL1       -0.0470
      8  C          6.3750    0.2420   -1.0680 C.2     1  UNL1        0.0040
      9  C          8.4740    1.2100   -0.6230 C.2     1  UNL1        0.0040
     10  C          6.9600   -0.4510   -2.1260 C.2     1  UNL1        0.0000
     11  C          9.0820    0.5370   -1.6640 C.2     1  UNL1        0.0000
     12  C          8.2880   -0.3060   -2.4170 C.2     1  UNL1        0.0000
@<TRIPOS>BOND
     1    12    10    2
     2    12    11    1
     3    10     8    1
     4    11     9    2
     5     8     7    2
     6     9     7    1
     7     7     6    1
     8     1     6    1
     9     1     2    1
    10     2     3    2
    11     2     4    1
    12     4     5    1
