@<TRIPOS>MOLECULE
/home/cewinharhar/GITHUB/reincatalyze/data/processed/docking_pred/2023-Apr-25-1829_maxeplen10_maxtrainstep200_exh32_gamma099_lrac3e-4_lrcr1e-3/551c5941f3bf749be32b1159c48b101be233bdbe_ligand_2.pdbqt
 12 12 0 0 0
SMALL
GASTEIGER

@<TRIPOS>ATOM
      1  C          8.4490   -0.6310   -2.1460 C.3     1  UNL1        0.1270
      2  C          8.4780   -1.8900   -2.9120 C.2     1  UNL1        0.3030
      3  O          9.5780   -2.4630   -3.0920 O.2     1  UNL1       -0.2520
      4  O          7.3230   -2.4440   -3.4290 O.3     1  UNL1       -0.4810
      5  H          7.3180   -3.1960   -4.1420 H       1  UNL1        0.2960
      6  C          7.0130   -0.1210   -2.1760 C.3     1  UNL1        0.0470
      7  C          6.4700    0.0910   -0.8220 C.2     1  UNL1       -0.0470
      8  C          6.6070   -0.9350    0.1050 C.2     1  UNL1        0.0040
      9  C          5.8290    1.2280   -0.4020 C.2     1  UNL1        0.0040
     10  C          6.1010   -0.7750    1.3940 C.2     1  UNL1        0.0000
     11  C          5.3180    1.4170    0.8660 C.2     1  UNL1        0.0000
     12  C          5.4680    0.3800    1.7660 C.2     1  UNL1        0.0000
@<TRIPOS>BOND
     1     5     4    1
     2     4     2    1
     3     3     2    2
     4     2     1    1
     5     6     1    1
     6     6     7    1
     7     7     9    2
     8     7     8    1
     9     9    11    1
    10     8    10    2
    11    11    12    2
    12    10    12    1
