@<TRIPOS>MOLECULE
/home/cewinharhar/GITHUB/reincatalyze/data/processed/docking_pred/2023-Apr-25-1829_maxeplen10_maxtrainstep200_exh32_gamma099_lrac3e-4_lrcr1e-3/5bd4159c0713ad18fb2d2a846002564f6b7df27c_ligand_2.pdbqt
 12 12 0 0 0
SMALL
GASTEIGER

@<TRIPOS>ATOM
      1  C          8.4270   -0.7220   -2.0590 C.3     1  UNL1        0.1270
      2  C          8.3950   -1.9390   -2.8900 C.2     1  UNL1        0.3030
      3  O          7.2850   -2.3950   -3.2520 O.2     1  UNL1       -0.2520
      4  O          9.5580   -2.5790   -3.2740 O.3     1  UNL1       -0.4810
      5  H          9.8970   -3.4580   -2.8430 H       1  UNL1        0.2960
      6  C          7.0500   -0.0750   -2.1580 C.3     1  UNL1        0.0470
      7  C          6.4590    0.1790   -0.8320 C.2     1  UNL1       -0.0470
      8  C          6.6020   -0.7980    0.1450 C.2     1  UNL1        0.0040
      9  C          5.7690    1.3120   -0.4840 C.2     1  UNL1        0.0040
     10  C          6.0510   -0.5970    1.4100 C.2     1  UNL1        0.0000
     11  C          5.2130    1.5410    0.7580 C.2     1  UNL1        0.0000
     12  C          5.3700    0.5510    1.7090 C.2     1  UNL1        0.0000
@<TRIPOS>BOND
     1     4     2    1
     2     4     5    1
     3     3     2    2
     4     2     1    1
     5     6     1    1
     6     6     7    1
     7     7     9    2
     8     7     8    1
     9     9    11    1
    10     8    10    2
    11    11    12    2
    12    10    12    1
