@<TRIPOS>MOLECULE
/home/cewinharhar/GITHUB/reincatalyze/data/processed/docking_pred/2023-Apr-25-1829_maxeplen10_maxtrainstep200_exh32_gamma099_lrac3e-4_lrcr1e-3/5bd4159c0713ad18fb2d2a846002564f6b7df27c_ligand_2.pdbqt
 12 12 0 0 0
SMALL
GASTEIGER

@<TRIPOS>ATOM
      1  C          5.0170    1.7570    0.7480 C.3     1  UNL1        0.1270
      2  C          4.4620    1.0940    1.9420 C.2     1  UNL1        0.3030
      3  O          5.1230    0.1790    2.4870 O.2     1  UNL1       -0.2520
      4  O          3.2380    1.4610    2.4660 O.3     1  UNL1       -0.4810
      5  H          2.8990    2.4400    2.5000 H       1  UNL1        0.2960
      6  C          6.5350    1.6560    0.8440 C.3     1  UNL1        0.0470
      7  C          7.1130    0.9010   -0.2820 C.2     1  UNL1       -0.0470
      8  C          8.4050    1.2170   -0.6860 C.2     1  UNL1        0.0040
      9  C          6.4710   -0.0950   -0.9720 C.2     1  UNL1        0.0040
     10  C          8.9840    0.5290   -1.7510 C.2     1  UNL1        0.0000
     11  C          7.0170   -0.7940   -2.0300 C.2     1  UNL1        0.0000
     12  C          8.3020   -0.4570   -2.4100 C.2     1  UNL1        0.0000
@<TRIPOS>BOND
     1    12    11    2
     2    12    10    1
     3    11     9    1
     4    10     8    2
     5     9     7    2
     6     8     7    1
     7     7     6    1
     8     1     6    1
     9     1     2    1
    10     2     4    1
    11     2     3    2
    12     4     5    1
