@<TRIPOS>MOLECULE
/home/cewinharhar/GITHUB/reincatalyze/data/processed/docking_pred/2023-Apr-25-1829_maxeplen10_maxtrainstep200_exh32_gamma099_lrac3e-4_lrcr1e-3/5bd4159c0713ad18fb2d2a846002564f6b7df27c_ligand_2.pdbqt
 12 12 0 0 0
SMALL
GASTEIGER

@<TRIPOS>ATOM
      1  C          8.3160    0.1960   -2.1420 C.3     1  UNL1        0.1270
      2  C          9.4200    0.3430   -1.1770 C.2     1  UNL1        0.3030
      3  O          9.4600   -0.4190   -0.1820 O.2     1  UNL1       -0.2520
      4  O         10.4030    1.2980   -1.3490 O.3     1  UNL1       -0.4810
      5  H         10.5120    2.1260   -0.7350 H       1  UNL1        0.2960
      6  C          7.2120   -0.5900   -1.4430 C.3     1  UNL1        0.0470
      7  C          6.3880    0.2660   -0.5710 C.2     1  UNL1       -0.0470
      8  C          6.1250   -0.1760    0.7190 C.2     1  UNL1        0.0040
      9  C          5.8500    1.4730   -0.9380 C.2     1  UNL1        0.0040
     10  C          5.3440    0.6020    1.5720 C.2     1  UNL1        0.0000
     11  C          5.0730    2.2670   -0.1170 C.2     1  UNL1        0.0000
     12  C          4.8280    1.8010    1.1600 C.2     1  UNL1        0.0000
@<TRIPOS>BOND
     1     1     6    1
     2     1     2    1
     3     6     7    1
     4     4     2    1
     5     4     5    1
     6     2     3    2
     7     9     7    2
     8     9    11    1
     9     7     8    1
    10    11    12    2
    11     8    10    2
    12    12    10    1
