MODEL 1
REMARK VINA RESULT:      -7.3      0.000      0.000
REMARK SMILES O=C(O)CCc1ccccc1
REMARK SMILES IDX 4 1 2 2 1 3 3 4 5 6 6 7 7 8 11 9 8 10 10 11 9 12
REMARK H PARENT 3 5
REMARK Flexibility Score: inf
ROOT
ATOM      1  C   UNL     1       8.464  -0.601  -2.195  1.00  0.00     0.127 C 
ENDROOT
BRANCH   1   2
ATOM      2  C   UNL     1       8.471  -1.885  -2.918  1.00  0.00     0.303 C 
ATOM      3  O   UNL     1       9.559  -2.491  -3.064  1.00  0.00    -0.252 OA
BRANCH   2   4
ATOM      4  O   UNL     1       7.309  -2.428  -3.431  1.00  0.00    -0.481 OA
ATOM      5  H   UNL     1       6.841  -3.262  -3.031  1.00  0.00     0.296 HD
ENDBRANCH   2   4
ENDBRANCH   1   2
BRANCH   1   6
ATOM      6  C   UNL     1       7.022  -0.107  -2.173  1.00  0.00     0.047 C 
BRANCH   6   7
ATOM      7  C   UNL     1       6.495   0.008  -0.801  1.00  0.00    -0.047 A 
ATOM      8  C   UNL     1       5.876   1.197  -0.437  1.00  0.00     0.004 A 
ATOM      9  C   UNL     1       6.573  -0.972   0.154  1.00  0.00     0.004 A 
ATOM     10  C   UNL     1       5.371   1.347   0.854  1.00  0.00     0.000 A 
ATOM     11  C   UNL     1       6.082  -0.855   1.440  1.00  0.00     0.000 A 
ATOM     12  C   UNL     1       5.473   0.339   1.774  1.00  0.00     0.000 A 
ENDBRANCH   6   7
ENDBRANCH   1   6
TORSDOF 4
ENDMDL
MODEL 2
REMARK VINA RESULT:      -7.2      0.196      1.734
REMARK SMILES O=C(O)CCc1ccccc1
REMARK SMILES IDX 4 1 2 2 1 3 3 4 5 6 6 7 7 8 11 9 8 10 10 11 9 12
REMARK H PARENT 3 5
REMARK Flexibility Score: inf
ROOT
ATOM      1  C   UNL     1       8.427  -0.722  -2.059  1.00  0.00     0.127 C 
ENDROOT
BRANCH   1   2
ATOM      2  C   UNL     1       8.395  -1.939  -2.890  1.00  0.00     0.303 C 
ATOM      3  O   UNL     1       7.285  -2.395  -3.252  1.00  0.00    -0.252 OA
BRANCH   2   4
ATOM      4  O   UNL     1       9.558  -2.579  -3.274  1.00  0.00    -0.481 OA
ATOM      5  H   UNL     1       9.897  -3.458  -2.843  1.00  0.00     0.296 HD
ENDBRANCH   2   4
ENDBRANCH   1   2
BRANCH   1   6
ATOM      6  C   UNL     1       7.050  -0.075  -2.158  1.00  0.00     0.047 C 
BRANCH   6   7
ATOM      7  C   UNL     1       6.459   0.179  -0.832  1.00  0.00    -0.047 A 
ATOM      8  C   UNL     1       6.602  -0.798   0.145  1.00  0.00     0.004 A 
ATOM      9  C   UNL     1       5.769   1.312  -0.484  1.00  0.00     0.004 A 
ATOM     10  C   UNL     1       6.051  -0.597   1.410  1.00  0.00     0.000 A 
ATOM     11  C   UNL     1       5.213   1.541   0.758  1.00  0.00     0.000 A 
ATOM     12  C   UNL     1       5.370   0.551   1.709  1.00  0.00     0.000 A 
ENDBRANCH   6   7
ENDBRANCH   1   6
TORSDOF 4
ENDMDL
MODEL 3
REMARK VINA RESULT:      -6.8      3.383      5.088
REMARK SMILES O=C(O)CCc1ccccc1
REMARK SMILES IDX 4 1 2 2 1 3 3 4 5 6 6 7 7 8 11 9 8 10 10 11 9 12
REMARK H PARENT 3 5
REMARK Flexibility Score: inf
ROOT
ATOM      1  C   UNL     1       4.963   1.796   0.691  1.00  0.00     0.127 C 
ENDROOT
BRANCH   1   2
ATOM      2  C   UNL     1       4.464   1.135   1.909  1.00  0.00     0.303 C 
ATOM      3  O   UNL     1       5.171   0.253   2.452  1.00  0.00    -0.252 OA
BRANCH   2   4
ATOM      4  O   UNL     1       3.241   1.467   2.459  1.00  0.00    -0.481 OA
ATOM      5  H   UNL     1       2.409   0.849   2.423  1.00  0.00     0.296 HD
ENDBRANCH   2   4
ENDBRANCH   1   2
BRANCH   1   6
ATOM      6  C   UNL     1       6.483   1.846   0.799  1.00  0.00     0.047 C 
BRANCH   6   7
ATOM      7  C   UNL     1       7.143   1.133  -0.309  1.00  0.00    -0.047 A 
ATOM      8  C   UNL     1       6.362   0.317  -1.118  1.00  0.00     0.004 A 
ATOM      9  C   UNL     1       8.480   1.207  -0.604  1.00  0.00     0.004 A 
ATOM     10  C   UNL     1       6.951  -0.379  -2.172  1.00  0.00     0.000 A 
ATOM     11  C   UNL     1       9.092   0.531  -1.641  1.00  0.00     0.000 A 
ATOM     12  C   UNL     1       8.291  -0.273  -2.427  1.00  0.00     0.000 A 
ENDBRANCH   6   7
ENDBRANCH   1   6
TORSDOF 4
ENDMDL
MODEL 4
REMARK VINA RESULT:      -6.8      3.376      5.052
REMARK SMILES O=C(O)CCc1ccccc1
REMARK SMILES IDX 4 1 2 2 1 3 3 4 5 6 6 7 7 8 11 9 8 10 10 11 9 12
REMARK H PARENT 3 5
REMARK Flexibility Score: inf
ROOT
ATOM      1  C   UNL     1       5.017   1.757   0.748  1.00  0.00     0.127 C 
ENDROOT
BRANCH   1   2
ATOM      2  C   UNL     1       4.462   1.094   1.942  1.00  0.00     0.303 C 
ATOM      3  O   UNL     1       5.123   0.179   2.487  1.00  0.00    -0.252 OA
BRANCH   2   4
ATOM      4  O   UNL     1       3.238   1.461   2.466  1.00  0.00    -0.481 OA
ATOM      5  H   UNL     1       2.899   2.440   2.500  1.00  0.00     0.296 HD
ENDBRANCH   2   4
ENDBRANCH   1   2
BRANCH   1   6
ATOM      6  C   UNL     1       6.535   1.656   0.844  1.00  0.00     0.047 C 
BRANCH   6   7
ATOM      7  C   UNL     1       7.113   0.901  -0.282  1.00  0.00    -0.047 A 
ATOM      8  C   UNL     1       8.405   1.217  -0.686  1.00  0.00     0.004 A 
ATOM      9  C   UNL     1       6.471  -0.095  -0.972  1.00  0.00     0.004 A 
ATOM     10  C   UNL     1       8.984   0.529  -1.751  1.00  0.00     0.000 A 
ATOM     11  C   UNL     1       7.017  -0.794  -2.030  1.00  0.00     0.000 A 
ATOM     12  C   UNL     1       8.302  -0.457  -2.410  1.00  0.00     0.000 A 
ENDBRANCH   6   7
ENDBRANCH   1   6
TORSDOF 4
ENDMDL
MODEL 5
REMARK VINA RESULT:      -6.6      1.944      2.681
REMARK SMILES O=C(O)CCc1ccccc1
REMARK SMILES IDX 4 1 2 2 1 3 3 4 5 6 6 7 7 8 11 9 8 10 10 11 9 12
REMARK H PARENT 3 5
REMARK Flexibility Score: inf
ROOT
ATOM      1  C   UNL     1       8.316   0.196  -2.142  1.00  0.00     0.127 C 
ENDROOT
BRANCH   1   2
ATOM      2  C   UNL     1       9.420   0.343  -1.177  1.00  0.00     0.303 C 
ATOM      3  O   UNL     1       9.460  -0.419  -0.182  1.00  0.00    -0.252 OA
BRANCH   2   4
ATOM      4  O   UNL     1      10.403   1.298  -1.349  1.00  0.00    -0.481 OA
ATOM      5  H   UNL     1      10.512   2.126  -0.735  1.00  0.00     0.296 HD
ENDBRANCH   2   4
ENDBRANCH   1   2
BRANCH   1   6
ATOM      6  C   UNL     1       7.212  -0.590  -1.443  1.00  0.00     0.047 C 
BRANCH   6   7
ATOM      7  C   UNL     1       6.388   0.266  -0.571  1.00  0.00    -0.047 A 
ATOM      8  C   UNL     1       6.125  -0.176   0.719  1.00  0.00     0.004 A 
ATOM      9  C   UNL     1       5.850   1.473  -0.938  1.00  0.00     0.004 A 
ATOM     10  C   UNL     1       5.344   0.602   1.572  1.00  0.00     0.000 A 
ATOM     11  C   UNL     1       5.073   2.267  -0.117  1.00  0.00     0.000 A 
ATOM     12  C   UNL     1       4.828   1.801   1.160  1.00  0.00     0.000 A 
ENDBRANCH   6   7
ENDBRANCH   1   6
TORSDOF 4
ENDMDL
