@<TRIPOS>MOLECULE
/home/cewinharhar/GITHUB/reincatalyze/data/processed/docking_pred/2023-Apr-25-1829_maxeplen10_maxtrainstep200_exh32_gamma099_lrac3e-4_lrcr1e-3/5bd4159c0713ad18fb2d2a846002564f6b7df27c_ligand_2.pdbqt
 12 12 0 0 0
SMALL
GASTEIGER

@<TRIPOS>ATOM
      1  C          4.9630    1.7960    0.6910 C.3     1  UNL1        0.1270
      2  C          4.4640    1.1350    1.9090 C.2     1  UNL1        0.3030
      3  O          5.1710    0.2530    2.4520 O.2     1  UNL1       -0.2520
      4  O          3.2410    1.4670    2.4590 O.3     1  UNL1       -0.4810
      5  H          2.4090    0.8490    2.4230 H       1  UNL1        0.2960
      6  C          6.4830    1.8460    0.7990 C.3     1  UNL1        0.0470
      7  C          7.1430    1.1330   -0.3090 C.2     1  UNL1       -0.0470
      8  C          6.3620    0.3170   -1.1180 C.2     1  UNL1        0.0040
      9  C          8.4800    1.2070   -0.6040 C.2     1  UNL1        0.0040
     10  C          6.9510   -0.3790   -2.1720 C.2     1  UNL1        0.0000
     11  C          9.0920    0.5310   -1.6410 C.2     1  UNL1        0.0000
     12  C          8.2910   -0.2730   -2.4270 C.2     1  UNL1        0.0000
@<TRIPOS>BOND
     1    12    10    2
     2    12    11    1
     3    10     8    1
     4    11     9    2
     5     8     7    2
     6     9     7    1
     7     7     6    1
     8     1     6    1
     9     1     2    1
    10     2     3    2
    11     2     4    1
    12     5     4    1
