@<TRIPOS>MOLECULE
/home/cewinharhar/GITHUB/reincatalyze/data/processed/docking_pred/2023-Apr-25-1829_maxeplen10_maxtrainstep200_exh32_gamma099_lrac3e-4_lrcr1e-3/5be73a077ea639c014f12358d863af943f9e92ef_ligand_2.pdbqt
 12 12 0 0 0
SMALL
GASTEIGER

@<TRIPOS>ATOM
      1  C          7.2900   -1.3110   -2.2270 C.3     1  UNL1        0.1270
      2  C          8.7300   -1.3810   -2.5340 C.2     1  UNL1        0.3030
      3  O          9.4900   -0.4980   -2.0720 O.2     1  UNL1       -0.2520
      4  O          9.2510   -2.3960   -3.3130 O.3     1  UNL1       -0.4810
      5  H          9.0300   -3.3990   -3.1710 H       1  UNL1        0.2960
      6  C          7.1500   -1.4030   -0.7120 C.3     1  UNL1        0.0470
      7  C          6.4050   -0.2610   -0.1520 C.2     1  UNL1       -0.0470
      8  C          5.9660   -0.3480    1.1630 C.2     1  UNL1        0.0040
      9  C          6.1010    0.8890   -0.8350 C.2     1  UNL1        0.0040
     10  C          5.2520    0.7090    1.7260 C.2     1  UNL1        0.0000
     11  C          5.3970    1.9520   -0.3060 C.2     1  UNL1        0.0000
     12  C          4.9730    1.8360    1.0040 C.2     1  UNL1        0.0000
@<TRIPOS>BOND
     1     4     5    1
     2     4     2    1
     3     2     1    1
     4     2     3    2
     5     1     6    1
     6     9    11    1
     7     9     7    2
     8     6     7    1
     9    11    12    2
    10     7     8    1
    11    12    10    1
    12     8    10    2
