@<TRIPOS>MOLECULE
/home/cewinharhar/GITHUB/reincatalyze/data/processed/docking_pred/2023-Apr-25-1829_maxeplen10_maxtrainstep200_exh32_gamma099_lrac3e-4_lrcr1e-3/5be73a077ea639c014f12358d863af943f9e92ef_ligand_2.pdbqt
 12 12 0 0 0
SMALL
GASTEIGER

@<TRIPOS>ATOM
      1  C          8.4450   -0.6670   -2.0910 C.3     1  UNL1        0.1270
      2  C          8.4110   -1.9120   -2.8780 C.2     1  UNL1        0.3030
      3  O          7.3000   -2.3900   -3.2080 O.2     1  UNL1       -0.2520
      4  O          9.5740   -2.5560   -3.2580 O.3     1  UNL1       -0.4810
      5  H          9.8730   -2.6640   -4.2440 H       1  UNL1        0.2960
      6  C          7.0470   -0.0610   -2.1510 C.3     1  UNL1        0.0470
      7  C          6.4740    0.1460   -0.8090 C.2     1  UNL1       -0.0470
      8  C          6.6110   -0.8740    0.1250 C.2     1  UNL1        0.0040
      9  C          5.8050    1.2730   -0.4060 C.2     1  UNL1        0.0040
     10  C          6.0760   -0.7180    1.4030 C.2     1  UNL1        0.0000
     11  C          5.2650    1.4580    0.8510 C.2     1  UNL1        0.0000
     12  C          5.4160    0.4270    1.7580 C.2     1  UNL1        0.0000
@<TRIPOS>BOND
     1     5     4    1
     2     4     2    1
     3     3     2    2
     4     2     1    1
     5     6     1    1
     6     6     7    1
     7     7     9    2
     8     7     8    1
     9     9    11    1
    10     8    10    2
    11    11    12    2
    12    10    12    1
