@<TRIPOS>MOLECULE
/home/cewinharhar/GITHUB/reincatalyze/data/processed/docking_pred/2023-Apr-25-1829_maxeplen10_maxtrainstep200_exh32_gamma099_lrac3e-4_lrcr1e-3/5be73a077ea639c014f12358d863af943f9e92ef_ligand_2.pdbqt
 12 12 0 0 0
SMALL
GASTEIGER

@<TRIPOS>ATOM
      1  C          8.4640   -0.5980   -2.2000 C.3     1  UNL1        0.1270
      2  C          8.4620   -1.8810   -2.9250 C.2     1  UNL1        0.3030
      3  O          9.5480   -2.4840   -3.0910 O.2     1  UNL1       -0.2520
      4  O          7.2930   -2.4270   -3.4180 O.3     1  UNL1       -0.4810
      5  H          6.5770   -2.8820   -2.8230 H       1  UNL1        0.2960
      6  C          7.0250   -0.0970   -2.1720 C.3     1  UNL1        0.0470
      7  C          6.4990    0.0070   -0.7990 C.2     1  UNL1       -0.0470
      8  C          5.8760    1.1920   -0.4260 C.2     1  UNL1        0.0040
      9  C          6.5820   -0.9790    0.1500 C.2     1  UNL1        0.0040
     10  C          5.3720    1.3300    0.8660 C.2     1  UNL1        0.0000
     11  C          6.0920   -0.8720    1.4370 C.2     1  UNL1        0.0000
     12  C          5.4790    0.3170    1.7790 C.2     1  UNL1        0.0000
@<TRIPOS>BOND
     1     4     2    1
     2     4     5    1
     3     3     2    2
     4     2     1    1
     5     1     6    1
     6     6     7    1
     7     7     8    2
     8     7     9    1
     9     8    10    1
    10     9    11    2
    11    10    12    2
    12    11    12    1
