MODEL 1
REMARK VINA RESULT:      -7.3      0.000      0.000
REMARK SMILES O=C(O)CCc1ccccc1
REMARK SMILES IDX 4 1 2 2 1 3 3 4 5 6 6 7 7 8 11 9 8 10 10 11 9 12
REMARK H PARENT 3 5
REMARK Flexibility Score: inf
ROOT
ATOM      1  C   UNL     1       8.464  -0.598  -2.200  1.00  0.00     0.127 C 
ENDROOT
BRANCH   1   2
ATOM      2  C   UNL     1       8.462  -1.881  -2.925  1.00  0.00     0.303 C 
ATOM      3  O   UNL     1       9.548  -2.484  -3.091  1.00  0.00    -0.252 OA
BRANCH   2   4
ATOM      4  O   UNL     1       7.293  -2.427  -3.418  1.00  0.00    -0.481 OA
ATOM      5  H   UNL     1       6.577  -2.882  -2.823  1.00  0.00     0.296 HD
ENDBRANCH   2   4
ENDBRANCH   1   2
BRANCH   1   6
ATOM      6  C   UNL     1       7.025  -0.097  -2.172  1.00  0.00     0.047 C 
BRANCH   6   7
ATOM      7  C   UNL     1       6.499   0.007  -0.799  1.00  0.00    -0.047 A 
ATOM      8  C   UNL     1       5.876   1.192  -0.426  1.00  0.00     0.004 A 
ATOM      9  C   UNL     1       6.582  -0.979   0.150  1.00  0.00     0.004 A 
ATOM     10  C   UNL     1       5.372   1.330   0.866  1.00  0.00     0.000 A 
ATOM     11  C   UNL     1       6.092  -0.872   1.437  1.00  0.00     0.000 A 
ATOM     12  C   UNL     1       5.479   0.317   1.779  1.00  0.00     0.000 A 
ENDBRANCH   6   7
ENDBRANCH   1   6
TORSDOF 4
ENDMDL
MODEL 2
REMARK VINA RESULT:      -7.2      0.141      1.730
REMARK SMILES O=C(O)CCc1ccccc1
REMARK SMILES IDX 4 1 2 2 1 3 3 4 5 6 6 7 7 8 11 9 8 10 10 11 9 12
REMARK H PARENT 3 5
REMARK Flexibility Score: inf
ROOT
ATOM      1  C   UNL     1       8.445  -0.667  -2.091  1.00  0.00     0.127 C 
ENDROOT
BRANCH   1   2
ATOM      2  C   UNL     1       8.411  -1.912  -2.878  1.00  0.00     0.303 C 
ATOM      3  O   UNL     1       7.300  -2.390  -3.208  1.00  0.00    -0.252 OA
BRANCH   2   4
ATOM      4  O   UNL     1       9.574  -2.556  -3.258  1.00  0.00    -0.481 OA
ATOM      5  H   UNL     1       9.873  -2.664  -4.244  1.00  0.00     0.296 HD
ENDBRANCH   2   4
ENDBRANCH   1   2
BRANCH   1   6
ATOM      6  C   UNL     1       7.047  -0.061  -2.151  1.00  0.00     0.047 C 
BRANCH   6   7
ATOM      7  C   UNL     1       6.474   0.146  -0.809  1.00  0.00    -0.047 A 
ATOM      8  C   UNL     1       6.611  -0.874   0.125  1.00  0.00     0.004 A 
ATOM      9  C   UNL     1       5.805   1.273  -0.406  1.00  0.00     0.004 A 
ATOM     10  C   UNL     1       6.076  -0.718   1.403  1.00  0.00     0.000 A 
ATOM     11  C   UNL     1       5.265   1.458   0.851  1.00  0.00     0.000 A 
ATOM     12  C   UNL     1       5.416   0.427   1.758  1.00  0.00     0.000 A 
ENDBRANCH   6   7
ENDBRANCH   1   6
TORSDOF 4
ENDMDL
MODEL 3
REMARK VINA RESULT:      -7.0      1.002      1.929
REMARK SMILES O=C(O)CCc1ccccc1
REMARK SMILES IDX 4 1 2 2 1 3 3 4 5 6 6 7 7 8 11 9 8 10 10 11 9 12
REMARK H PARENT 3 5
REMARK Flexibility Score: inf
ROOT
ATOM      1  C   UNL     1       7.290  -1.311  -2.227  1.00  0.00     0.127 C 
ENDROOT
BRANCH   1   2
ATOM      2  C   UNL     1       8.730  -1.381  -2.534  1.00  0.00     0.303 C 
ATOM      3  O   UNL     1       9.490  -0.498  -2.072  1.00  0.00    -0.252 OA
BRANCH   2   4
ATOM      4  O   UNL     1       9.251  -2.396  -3.313  1.00  0.00    -0.481 OA
ATOM      5  H   UNL     1       9.030  -3.399  -3.171  1.00  0.00     0.296 HD
ENDBRANCH   2   4
ENDBRANCH   1   2
BRANCH   1   6
ATOM      6  C   UNL     1       7.150  -1.403  -0.712  1.00  0.00     0.047 C 
BRANCH   6   7
ATOM      7  C   UNL     1       6.405  -0.261  -0.152  1.00  0.00    -0.047 A 
ATOM      8  C   UNL     1       5.966  -0.348   1.163  1.00  0.00     0.004 A 
ATOM      9  C   UNL     1       6.101   0.889  -0.835  1.00  0.00     0.004 A 
ATOM     10  C   UNL     1       5.252   0.709   1.726  1.00  0.00     0.000 A 
ATOM     11  C   UNL     1       5.397   1.952  -0.306  1.00  0.00     0.000 A 
ATOM     12  C   UNL     1       4.973   1.836   1.004  1.00  0.00     0.000 A 
ENDBRANCH   6   7
ENDBRANCH   1   6
TORSDOF 4
ENDMDL
MODEL 4
REMARK VINA RESULT:      -6.8      3.372      5.052
REMARK SMILES O=C(O)CCc1ccccc1
REMARK SMILES IDX 4 1 2 2 1 3 3 4 5 6 6 7 7 8 11 9 8 10 10 11 9 12
REMARK H PARENT 3 5
REMARK Flexibility Score: inf
ROOT
ATOM      1  C   UNL     1       4.988   1.728   0.711  1.00  0.00     0.127 C 
ENDROOT
BRANCH   1   2
ATOM      2  C   UNL     1       4.465   1.096   1.935  1.00  0.00     0.303 C 
ATOM      3  O   UNL     1       5.152   0.212   2.500  1.00  0.00    -0.252 OA
BRANCH   2   4
ATOM      4  O   UNL     1       3.243   1.458   2.467  1.00  0.00    -0.481 OA
ATOM      5  H   UNL     1       3.138   2.083   3.288  1.00  0.00     0.296 HD
ENDBRANCH   2   4
ENDBRANCH   1   2
BRANCH   1   6
ATOM      6  C   UNL     1       6.509   1.685   0.798  1.00  0.00     0.047 C 
BRANCH   6   7
ATOM      7  C   UNL     1       7.108   0.917  -0.308  1.00  0.00    -0.047 A 
ATOM      8  C   UNL     1       8.416   1.209  -0.673  1.00  0.00     0.004 A 
ATOM      9  C   UNL     1       6.469  -0.068  -1.016  1.00  0.00     0.004 A 
ATOM     10  C   UNL     1       9.015   0.509  -1.719  1.00  0.00     0.000 A 
ATOM     11  C   UNL     1       7.034  -0.779  -2.056  1.00  0.00     0.000 A 
ATOM     12  C   UNL     1       8.336  -0.466  -2.397  1.00  0.00     0.000 A 
ENDBRANCH   6   7
ENDBRANCH   1   6
TORSDOF 4
ENDMDL
MODEL 5
REMARK VINA RESULT:      -6.6      1.970      2.673
REMARK SMILES O=C(O)CCc1ccccc1
REMARK SMILES IDX 4 1 2 2 1 3 3 4 5 6 6 7 7 8 11 9 8 10 10 11 9 12
REMARK H PARENT 3 5
REMARK Flexibility Score: inf
ROOT
ATOM      1  C   UNL     1       8.280   0.318  -2.049  1.00  0.00     0.127 C 
ENDROOT
BRANCH   1   2
ATOM      2  C   UNL     1       9.448   0.394  -1.154  1.00  0.00     0.303 C 
ATOM      3  O   UNL     1       9.505  -0.378  -0.168  1.00  0.00    -0.252 OA
BRANCH   2   4
ATOM      4  O   UNL     1      10.473   1.291  -1.382  1.00  0.00    -0.481 OA
ATOM      5  H   UNL     1      10.587   1.819  -2.268  1.00  0.00     0.296 HD
ENDBRANCH   2   4
ENDBRANCH   1   2
BRANCH   1   6
ATOM      6  C   UNL     1       7.249  -0.573  -1.366  1.00  0.00     0.047 C 
BRANCH   6   7
ATOM      7  C   UNL     1       6.405   0.178  -0.420  1.00  0.00    -0.047 A 
ATOM      8  C   UNL     1       6.178  -0.375   0.834  1.00  0.00     0.004 A 
ATOM      9  C   UNL     1       5.816   1.388  -0.683  1.00  0.00     0.004 A 
ATOM     10  C   UNL     1       5.380   0.303   1.755  1.00  0.00     0.000 A 
ATOM     11  C   UNL     1       5.022   2.084   0.207  1.00  0.00     0.000 A 
ATOM     12  C   UNL     1       4.813   1.509   1.445  1.00  0.00     0.000 A 
ENDBRANCH   6   7
ENDBRANCH   1   6
TORSDOF 4
ENDMDL
