@<TRIPOS>MOLECULE
/home/cewinharhar/GITHUB/reincatalyze/data/processed/docking_pred/2023-Apr-25-1829_maxeplen10_maxtrainstep200_exh32_gamma099_lrac3e-4_lrcr1e-3/5be73a077ea639c014f12358d863af943f9e92ef_ligand_2.pdbqt
 12 12 0 0 0
SMALL
GASTEIGER

@<TRIPOS>ATOM
      1  C          8.2800    0.3180   -2.0490 C.3     1  UNL1        0.1270
      2  C          9.4480    0.3940   -1.1540 C.2     1  UNL1        0.3030
      3  O          9.5050   -0.3780   -0.1680 O.2     1  UNL1       -0.2520
      4  O         10.4730    1.2910   -1.3820 O.3     1  UNL1       -0.4810
      5  H         10.5870    1.8190   -2.2680 H       1  UNL1        0.2960
      6  C          7.2490   -0.5730   -1.3660 C.3     1  UNL1        0.0470
      7  C          6.4050    0.1780   -0.4200 C.2     1  UNL1       -0.0470
      8  C          6.1780   -0.3750    0.8340 C.2     1  UNL1        0.0040
      9  C          5.8160    1.3880   -0.6830 C.2     1  UNL1        0.0040
     10  C          5.3800    0.3030    1.7550 C.2     1  UNL1        0.0000
     11  C          5.0220    2.0840    0.2070 C.2     1  UNL1        0.0000
     12  C          4.8130    1.5090    1.4450 C.2     1  UNL1        0.0000
@<TRIPOS>BOND
     1     5     4    1
     2     1     6    1
     3     1     2    1
     4     4     2    1
     5     6     7    1
     6     2     3    2
     7     9     7    2
     8     9    11    1
     9     7     8    1
    10    11    12    2
    11     8    10    2
    12    12    10    1
