@<TRIPOS>MOLECULE
/home/cewinharhar/GITHUB/reincatalyze/data/processed/docking_pred/2023-Apr-25-1829_maxeplen10_maxtrainstep200_exh32_gamma099_lrac3e-4_lrcr1e-3/5be73a077ea639c014f12358d863af943f9e92ef_ligand_2.pdbqt
 12 12 0 0 0
SMALL
GASTEIGER

@<TRIPOS>ATOM
      1  C          4.9880    1.7280    0.7110 C.3     1  UNL1        0.1270
      2  C          4.4650    1.0960    1.9350 C.2     1  UNL1        0.3030
      3  O          5.1520    0.2120    2.5000 O.2     1  UNL1       -0.2520
      4  O          3.2430    1.4580    2.4670 O.3     1  UNL1       -0.4810
      5  H          3.1380    2.0830    3.2880 H       1  UNL1        0.2960
      6  C          6.5090    1.6850    0.7980 C.3     1  UNL1        0.0470
      7  C          7.1080    0.9170   -0.3080 C.2     1  UNL1       -0.0470
      8  C          8.4160    1.2090   -0.6730 C.2     1  UNL1        0.0040
      9  C          6.4690   -0.0680   -1.0160 C.2     1  UNL1        0.0040
     10  C          9.0150    0.5090   -1.7190 C.2     1  UNL1        0.0000
     11  C          7.0340   -0.7790   -2.0560 C.2     1  UNL1        0.0000
     12  C          8.3360   -0.4660   -2.3970 C.2     1  UNL1        0.0000
@<TRIPOS>BOND
     1    12    11    2
     2    12    10    1
     3    11     9    1
     4    10     8    2
     5     9     7    2
     6     8     7    1
     7     7     6    1
     8     1     6    1
     9     1     2    1
    10     2     4    1
    11     2     3    2
    12     4     5    1
