@<TRIPOS>MOLECULE
/home/cewinharhar/GITHUB/reincatalyze/data/processed/docking_pred/2023-Apr-25-1829_maxeplen10_maxtrainstep200_exh32_gamma099_lrac3e-4_lrcr1e-3/5e677739909452415bd62a3bb65a8cc9d063ea2f_ligand_2.pdbqt
 12 12 0 0 0
SMALL
GASTEIGER

@<TRIPOS>ATOM
      1  C          4.9770    1.7760    0.6880 C.3     1  UNL1        0.1270
      2  C          4.4790    1.1290    1.9150 C.2     1  UNL1        0.3030
      3  O          5.1910    0.2620    2.4740 O.2     1  UNL1       -0.2520
      4  O          3.2520    1.4610    2.4560 O.3     1  UNL1       -0.4810
      5  H          2.5100    0.7670    2.6640 H       1  UNL1        0.2960
      6  C          6.5000    1.7660    0.7630 C.3     1  UNL1        0.0470
      7  C          7.1050    0.9840   -0.3290 C.2     1  UNL1       -0.0470
      8  C          8.4360    1.2270   -0.6480 C.2     1  UNL1        0.0040
      9  C          6.4530    0.0300   -1.0670 C.2     1  UNL1        0.0040
     10  C          9.0420    0.5120   -1.6790 C.2     1  UNL1        0.0000
     11  C          7.0250   -0.6950   -2.0930 C.2     1  UNL1        0.0000
     12  C          8.3480   -0.4310   -2.3880 C.2     1  UNL1        0.0000
@<TRIPOS>BOND
     1    12    11    2
     2    12    10    1
     3    11     9    1
     4    10     8    2
     5     9     7    2
     6     8     7    1
     7     7     6    1
     8     1     6    1
     9     1     2    1
    10     2     4    1
    11     2     3    2
    12     4     5    1
