MODEL 1
REMARK VINA RESULT:      -7.3      0.000      0.000
REMARK SMILES O=C(O)CCc1ccccc1
REMARK SMILES IDX 4 1 2 2 1 3 3 4 5 6 6 7 7 8 11 9 8 10 10 11 9 12
REMARK H PARENT 3 5
REMARK Flexibility Score: inf
ROOT
ATOM      1  C   UNL     1       8.472  -0.607  -2.206  1.00  0.00     0.127 C 
ENDROOT
BRANCH   1   2
ATOM      2  C   UNL     1       8.486  -1.895  -2.921  1.00  0.00     0.303 C 
ATOM      3  O   UNL     1       9.578  -2.495  -3.066  1.00  0.00    -0.252 OA
BRANCH   2   4
ATOM      4  O   UNL     1       7.327  -2.450  -3.429  1.00  0.00    -0.481 OA
ATOM      5  H   UNL     1       6.901  -2.163  -4.329  1.00  0.00     0.296 HD
ENDBRANCH   2   4
ENDBRANCH   1   2
BRANCH   1   6
ATOM      6  C   UNL     1       7.026  -0.123  -2.184  1.00  0.00     0.047 C 
BRANCH   6   7
ATOM      7  C   UNL     1       6.502  -0.003  -0.812  1.00  0.00    -0.047 A 
ATOM      8  C   UNL     1       5.864   1.180  -0.458  1.00  0.00     0.004 A 
ATOM      9  C   UNL     1       6.598  -0.972   0.153  1.00  0.00     0.004 A 
ATOM     10  C   UNL     1       5.360   1.334   0.832  1.00  0.00     0.000 A 
ATOM     11  C   UNL     1       6.109  -0.849   1.439  1.00  0.00     0.000 A 
ATOM     12  C   UNL     1       5.481   0.338   1.762  1.00  0.00     0.000 A 
ENDBRANCH   6   7
ENDBRANCH   1   6
TORSDOF 4
ENDMDL
MODEL 2
REMARK VINA RESULT:      -7.2      0.146      1.730
REMARK SMILES O=C(O)CCc1ccccc1
REMARK SMILES IDX 4 1 2 2 1 3 3 4 5 6 6 7 7 8 11 9 8 10 10 11 9 12
REMARK H PARENT 3 5
REMARK Flexibility Score: inf
ROOT
ATOM      1  C   UNL     1       8.435  -0.690  -2.097  1.00  0.00     0.127 C 
ENDROOT
BRANCH   1   2
ATOM      2  C   UNL     1       8.408  -1.935  -2.886  1.00  0.00     0.303 C 
ATOM      3  O   UNL     1       7.300  -2.404  -3.238  1.00  0.00    -0.252 OA
BRANCH   2   4
ATOM      4  O   UNL     1       9.573  -2.586  -3.242  1.00  0.00    -0.481 OA
ATOM      5  H   UNL     1      10.163  -2.306  -4.047  1.00  0.00     0.296 HD
ENDBRANCH   2   4
ENDBRANCH   1   2
BRANCH   1   6
ATOM      6  C   UNL     1       7.036  -0.089  -2.162  1.00  0.00     0.047 C 
BRANCH   6   7
ATOM      7  C   UNL     1       6.466   0.139  -0.822  1.00  0.00    -0.047 A 
ATOM      8  C   UNL     1       6.616  -0.862   0.131  1.00  0.00     0.004 A 
ATOM      9  C   UNL     1       5.789   1.268  -0.438  1.00  0.00     0.004 A 
ATOM     10  C   UNL     1       6.085  -0.686   1.407  1.00  0.00     0.000 A 
ATOM     11  C   UNL     1       5.253   1.471   0.818  1.00  0.00     0.000 A 
ATOM     12  C   UNL     1       5.416   0.459   1.743  1.00  0.00     0.000 A 
ENDBRANCH   6   7
ENDBRANCH   1   6
TORSDOF 4
ENDMDL
MODEL 3
REMARK VINA RESULT:      -7.2      0.656      1.139
REMARK SMILES O=C(O)CCc1ccccc1
REMARK SMILES IDX 4 1 2 2 1 3 3 4 5 6 6 7 7 8 11 9 8 10 10 11 9 12
REMARK H PARENT 3 5
REMARK Flexibility Score: inf
ROOT
ATOM      1  C   UNL     1       8.231  -0.928  -1.881  1.00  0.00     0.127 C 
ENDROOT
BRANCH   1   2
ATOM      2  C   UNL     1       8.370  -2.013  -2.868  1.00  0.00     0.303 C 
ATOM      3  O   UNL     1       9.514  -2.461  -3.117  1.00  0.00    -0.252 OA
BRANCH   2   4
ATOM      4  O   UNL     1       7.271  -2.540  -3.518  1.00  0.00    -0.481 OA
ATOM      5  H   UNL     1       6.300  -2.210  -3.363  1.00  0.00     0.296 HD
ENDBRANCH   2   4
ENDBRANCH   1   2
BRANCH   1   6
ATOM      6  C   UNL     1       7.331  -1.450  -0.766  1.00  0.00     0.047 C 
BRANCH   6   7
ATOM      7  C   UNL     1       6.530  -0.378  -0.150  1.00  0.00    -0.047 A 
ATOM      8  C   UNL     1       6.231   0.739  -0.921  1.00  0.00     0.004 A 
ATOM      9  C   UNL     1       6.056  -0.392   1.136  1.00  0.00     0.004 A 
ATOM     10  C   UNL     1       5.481   1.777  -0.372  1.00  0.00     0.000 A 
ATOM     11  C   UNL     1       5.311   0.620   1.709  1.00  0.00     0.000 A 
ATOM     12  C   UNL     1       5.030   1.718   0.919  1.00  0.00     0.000 A 
ENDBRANCH   6   7
ENDBRANCH   1   6
TORSDOF 4
ENDMDL
MODEL 4
REMARK VINA RESULT:      -6.8      3.384      5.064
REMARK SMILES O=C(O)CCc1ccccc1
REMARK SMILES IDX 4 1 2 2 1 3 3 4 5 6 6 7 7 8 11 9 8 10 10 11 9 12
REMARK H PARENT 3 5
REMARK Flexibility Score: inf
ROOT
ATOM      1  C   UNL     1       4.977   1.776   0.688  1.00  0.00     0.127 C 
ENDROOT
BRANCH   1   2
ATOM      2  C   UNL     1       4.479   1.129   1.915  1.00  0.00     0.303 C 
ATOM      3  O   UNL     1       5.191   0.262   2.474  1.00  0.00    -0.252 OA
BRANCH   2   4
ATOM      4  O   UNL     1       3.252   1.461   2.456  1.00  0.00    -0.481 OA
ATOM      5  H   UNL     1       2.510   0.767   2.664  1.00  0.00     0.296 HD
ENDBRANCH   2   4
ENDBRANCH   1   2
BRANCH   1   6
ATOM      6  C   UNL     1       6.500   1.766   0.763  1.00  0.00     0.047 C 
BRANCH   6   7
ATOM      7  C   UNL     1       7.105   0.984  -0.329  1.00  0.00    -0.047 A 
ATOM      8  C   UNL     1       8.436   1.227  -0.648  1.00  0.00     0.004 A 
ATOM      9  C   UNL     1       6.453   0.030  -1.067  1.00  0.00     0.004 A 
ATOM     10  C   UNL     1       9.042   0.512  -1.679  1.00  0.00     0.000 A 
ATOM     11  C   UNL     1       7.025  -0.695  -2.093  1.00  0.00     0.000 A 
ATOM     12  C   UNL     1       8.348  -0.431  -2.388  1.00  0.00     0.000 A 
ENDBRANCH   6   7
ENDBRANCH   1   6
TORSDOF 4
ENDMDL
MODEL 5
REMARK VINA RESULT:      -6.6      1.893      2.296
REMARK SMILES O=C(O)CCc1ccccc1
REMARK SMILES IDX 4 1 2 2 1 3 3 4 5 6 6 7 7 8 11 9 8 10 10 11 9 12
REMARK H PARENT 3 5
REMARK Flexibility Score: inf
ROOT
ATOM      1  C   UNL     1       8.243   0.258  -2.254  1.00  0.00     0.127 C 
ENDROOT
BRANCH   1   2
ATOM      2  C   UNL     1       9.343   0.355  -1.279  1.00  0.00     0.303 C 
ATOM      3  O   UNL     1       9.382  -0.460  -0.327  1.00  0.00    -0.252 OA
BRANCH   2   4
ATOM      4  O   UNL     1      10.326   1.320  -1.396  1.00  0.00    -0.481 OA
ATOM      5  H   UNL     1      10.179   2.233  -1.864  1.00  0.00     0.296 HD
ENDBRANCH   2   4
ENDBRANCH   1   2
BRANCH   1   6
ATOM      6  C   UNL     1       7.135  -0.559  -1.599  1.00  0.00     0.047 C 
BRANCH   6   7
ATOM      7  C   UNL     1       6.362   0.232  -0.626  1.00  0.00    -0.047 A 
ATOM      8  C   UNL     1       5.851   1.457  -1.038  1.00  0.00     0.004 A 
ATOM      9  C   UNL     1       6.110  -0.144   0.668  1.00  0.00     0.004 A 
ATOM     10  C   UNL     1       5.121   2.238  -0.144  1.00  0.00     0.000 A 
ATOM     11  C   UNL     1       5.390   0.606   1.577  1.00  0.00     0.000 A 
ATOM     12  C   UNL     1       4.895   1.819   1.139  1.00  0.00     0.000 A 
ENDBRANCH   6   7
ENDBRANCH   1   6
TORSDOF 4
ENDMDL
