@<TRIPOS>MOLECULE
/home/cewinharhar/GITHUB/reincatalyze/data/processed/docking_pred/2023-Apr-25-1829_maxeplen10_maxtrainstep200_exh32_gamma099_lrac3e-4_lrcr1e-3/5e677739909452415bd62a3bb65a8cc9d063ea2f_ligand_2.pdbqt
 12 12 0 0 0
SMALL
GASTEIGER

@<TRIPOS>ATOM
      1  C          8.2430    0.2580   -2.2540 C.3     1  UNL1        0.1270
      2  C          9.3430    0.3550   -1.2790 C.2     1  UNL1        0.3030
      3  O          9.3820   -0.4600   -0.3270 O.2     1  UNL1       -0.2520
      4  O         10.3260    1.3200   -1.3960 O.3     1  UNL1       -0.4810
      5  H         10.1790    2.2330   -1.8640 H       1  UNL1        0.2960
      6  C          7.1350   -0.5590   -1.5990 C.3     1  UNL1        0.0470
      7  C          6.3620    0.2320   -0.6260 C.2     1  UNL1       -0.0470
      8  C          5.8510    1.4570   -1.0380 C.2     1  UNL1        0.0040
      9  C          6.1100   -0.1440    0.6680 C.2     1  UNL1        0.0040
     10  C          5.1210    2.2380   -0.1440 C.2     1  UNL1        0.0000
     11  C          5.3900    0.6060    1.5770 C.2     1  UNL1        0.0000
     12  C          4.8950    1.8190    1.1390 C.2     1  UNL1        0.0000
@<TRIPOS>BOND
     1     1     6    1
     2     1     2    1
     3     5     4    1
     4     6     7    1
     5     4     2    1
     6     2     3    2
     7     8     7    2
     8     8    10    1
     9     7     9    1
    10    10    12    2
    11     9    11    2
    12    12    11    1
