@<TRIPOS>MOLECULE
/home/cewinharhar/GITHUB/reincatalyze/data/processed/docking_pred/2023-Apr-25-1829_maxeplen10_maxtrainstep200_exh32_gamma099_lrac3e-4_lrcr1e-3/5e677739909452415bd62a3bb65a8cc9d063ea2f_ligand_2.pdbqt
 12 12 0 0 0
SMALL
GASTEIGER

@<TRIPOS>ATOM
      1  C          8.2310   -0.9280   -1.8810 C.3     1  UNL1        0.1270
      2  C          8.3700   -2.0130   -2.8680 C.2     1  UNL1        0.3030
      3  O          9.5140   -2.4610   -3.1170 O.2     1  UNL1       -0.2520
      4  O          7.2710   -2.5400   -3.5180 O.3     1  UNL1       -0.4810
      5  H          6.3000   -2.2100   -3.3630 H       1  UNL1        0.2960
      6  C          7.3310   -1.4500   -0.7660 C.3     1  UNL1        0.0470
      7  C          6.5300   -0.3780   -0.1500 C.2     1  UNL1       -0.0470
      8  C          6.2310    0.7390   -0.9210 C.2     1  UNL1        0.0040
      9  C          6.0560   -0.3920    1.1360 C.2     1  UNL1        0.0040
     10  C          5.4810    1.7770   -0.3720 C.2     1  UNL1        0.0000
     11  C          5.3110    0.6200    1.7090 C.2     1  UNL1        0.0000
     12  C          5.0300    1.7180    0.9190 C.2     1  UNL1        0.0000
@<TRIPOS>BOND
     1     4     5    1
     2     4     2    1
     3     3     2    2
     4     2     1    1
     5     1     6    1
     6     8    10    1
     7     8     7    2
     8     6     7    1
     9    10    12    2
    10     7     9    1
    11    12    11    1
    12     9    11    2
