@<TRIPOS>MOLECULE
/home/cewinharhar/GITHUB/reincatalyze/data/processed/docking_pred/2023-Apr-25-1829_maxeplen10_maxtrainstep200_exh32_gamma099_lrac3e-4_lrcr1e-3/5e677739909452415bd62a3bb65a8cc9d063ea2f_ligand_2.pdbqt
 12 12 0 0 0
SMALL
GASTEIGER

@<TRIPOS>ATOM
      1  C          8.4350   -0.6900   -2.0970 C.3     1  UNL1        0.1270
      2  C          8.4080   -1.9350   -2.8860 C.2     1  UNL1        0.3030
      3  O          7.3000   -2.4040   -3.2380 O.2     1  UNL1       -0.2520
      4  O          9.5730   -2.5860   -3.2420 O.3     1  UNL1       -0.4810
      5  H         10.1630   -2.3060   -4.0470 H       1  UNL1        0.2960
      6  C          7.0360   -0.0890   -2.1620 C.3     1  UNL1        0.0470
      7  C          6.4660    0.1390   -0.8220 C.2     1  UNL1       -0.0470
      8  C          6.6160   -0.8620    0.1310 C.2     1  UNL1        0.0040
      9  C          5.7890    1.2680   -0.4380 C.2     1  UNL1        0.0040
     10  C          6.0850   -0.6860    1.4070 C.2     1  UNL1        0.0000
     11  C          5.2530    1.4710    0.8180 C.2     1  UNL1        0.0000
     12  C          5.4160    0.4590    1.7430 C.2     1  UNL1        0.0000
@<TRIPOS>BOND
     1     5     4    1
     2     4     2    1
     3     3     2    2
     4     2     1    1
     5     6     1    1
     6     6     7    1
     7     7     9    2
     8     7     8    1
     9     9    11    1
    10     8    10    2
    11    11    12    2
    12    10    12    1
