@<TRIPOS>MOLECULE
/home/cewinharhar/GITHUB/reincatalyze/data/processed/docking_pred/2023-Apr-25-1829_maxeplen10_maxtrainstep200_exh32_gamma099_lrac3e-4_lrcr1e-3/5e677739909452415bd62a3bb65a8cc9d063ea2f_ligand_2.pdbqt
 12 12 0 0 0
SMALL
GASTEIGER

@<TRIPOS>ATOM
      1  C          8.4720   -0.6070   -2.2060 C.3     1  UNL1        0.1270
      2  C          8.4860   -1.8950   -2.9210 C.2     1  UNL1        0.3030
      3  O          9.5780   -2.4950   -3.0660 O.2     1  UNL1       -0.2520
      4  O          7.3270   -2.4500   -3.4290 O.3     1  UNL1       -0.4810
      5  H          6.9010   -2.1630   -4.3290 H       1  UNL1        0.2960
      6  C          7.0260   -0.1230   -2.1840 C.3     1  UNL1        0.0470
      7  C          6.5020   -0.0030   -0.8120 C.2     1  UNL1       -0.0470
      8  C          5.8640    1.1800   -0.4580 C.2     1  UNL1        0.0040
      9  C          6.5980   -0.9720    0.1530 C.2     1  UNL1        0.0040
     10  C          5.3600    1.3340    0.8320 C.2     1  UNL1        0.0000
     11  C          6.1090   -0.8490    1.4390 C.2     1  UNL1        0.0000
     12  C          5.4810    0.3380    1.7620 C.2     1  UNL1        0.0000
@<TRIPOS>BOND
     1     5     4    1
     2     4     2    1
     3     3     2    2
     4     2     1    1
     5     1     6    1
     6     6     7    1
     7     7     8    2
     8     7     9    1
     9     8    10    1
    10     9    11    2
    11    10    12    2
    12    11    12    1
