MODEL 1
REMARK VINA RESULT:      -7.3      0.000      0.000
REMARK SMILES O=C(O)CCc1ccccc1
REMARK SMILES IDX 4 1 2 2 1 3 3 4 5 6 6 7 7 8 11 9 8 10 10 11 9 12
REMARK H PARENT 3 5
REMARK Flexibility Score: inf
ROOT
ATOM      1  C   UNL     1       8.443  -0.671  -2.086  1.00  0.00     0.127 C 
ENDROOT
BRANCH   1   2
ATOM      2  C   UNL     1       8.405  -1.914  -2.876  1.00  0.00     0.303 C 
ATOM      3  O   UNL     1       7.292  -2.389  -3.204  1.00  0.00    -0.252 OA
BRANCH   2   4
ATOM      4  O   UNL     1       9.566  -2.559  -3.259  1.00  0.00    -0.481 OA
ATOM      5  H   UNL     1       9.840  -3.498  -2.915  1.00  0.00     0.296 HD
ENDBRANCH   2   4
ENDBRANCH   1   2
BRANCH   1   6
ATOM      6  C   UNL     1       7.033  -0.091  -2.095  1.00  0.00     0.047 C 
BRANCH   6   7
ATOM      7  C   UNL     1       6.476   0.036  -0.737  1.00  0.00    -0.047 A 
ATOM      8  C   UNL     1       5.829   1.220  -0.404  1.00  0.00     0.004 A 
ATOM      9  C   UNL     1       6.551  -0.927   0.236  1.00  0.00     0.004 A 
ATOM     10  C   UNL     1       5.294   1.381   0.872  1.00  0.00     0.000 A 
ATOM     11  C   UNL     1       6.031  -0.797   1.509  1.00  0.00     0.000 A 
ATOM     12  C   UNL     1       5.395   0.391   1.811  1.00  0.00     0.000 A 
ENDBRANCH   6   7
ENDBRANCH   1   6
TORSDOF 4
ENDMDL
MODEL 2
REMARK VINA RESULT:      -7.2      0.075      1.429
REMARK SMILES O=C(O)CCc1ccccc1
REMARK SMILES IDX 4 1 2 2 1 3 3 4 5 6 6 7 7 8 11 9 8 10 10 11 9 12
REMARK H PARENT 3 5
REMARK Flexibility Score: inf
ROOT
ATOM      1  C   UNL     1       8.424  -0.675  -2.122  1.00  0.00     0.127 C 
ENDROOT
BRANCH   1   2
ATOM      2  C   UNL     1       8.394  -1.927  -2.898  1.00  0.00     0.303 C 
ATOM      3  O   UNL     1       7.286  -2.388  -3.261  1.00  0.00    -0.252 OA
BRANCH   2   4
ATOM      4  O   UNL     1       9.557  -2.595  -3.231  1.00  0.00    -0.481 OA
ATOM      5  H   UNL     1      10.281  -2.205  -3.862  1.00  0.00     0.296 HD
ENDBRANCH   2   4
ENDBRANCH   1   2
BRANCH   1   6
ATOM      6  C   UNL     1       7.013  -0.099  -2.146  1.00  0.00     0.047 C 
BRANCH   6   7
ATOM      7  C   UNL     1       6.467   0.091  -0.790  1.00  0.00    -0.047 A 
ATOM      8  C   UNL     1       6.630  -0.936   0.131  1.00  0.00     0.004 A 
ATOM      9  C   UNL     1       5.800   1.210  -0.363  1.00  0.00     0.004 A 
ATOM     10  C   UNL     1       6.123  -0.796   1.421  1.00  0.00     0.000 A 
ATOM     11  C   UNL     1       5.286   1.379   0.908  1.00  0.00     0.000 A 
ATOM     12  C   UNL     1       5.463   0.341   1.801  1.00  0.00     0.000 A 
ENDBRANCH   6   7
ENDBRANCH   1   6
TORSDOF 4
ENDMDL
MODEL 3
REMARK VINA RESULT:      -7.0      0.651      1.599
REMARK SMILES O=C(O)CCc1ccccc1
REMARK SMILES IDX 4 1 2 2 1 3 3 4 5 6 6 7 7 8 11 9 8 10 10 11 9 12
REMARK H PARENT 3 5
REMARK Flexibility Score: inf
ROOT
ATOM      1  C   UNL     1       8.136  -0.681  -2.169  1.00  0.00     0.127 C 
ENDROOT
BRANCH   1   2
ATOM      2  C   UNL     1       8.244  -1.907  -2.980  1.00  0.00     0.303 C 
ATOM      3  O   UNL     1       7.197  -2.427  -3.432  1.00  0.00    -0.252 OA
BRANCH   2   4
ATOM      4  O   UNL     1       9.469  -2.486  -3.248  1.00  0.00    -0.481 OA
ATOM      5  H   UNL     1       9.823  -3.331  -2.761  1.00  0.00     0.296 HD
ENDBRANCH   2   4
ENDBRANCH   1   2
BRANCH   1   6
ATOM      6  C   UNL     1       7.682  -1.103  -0.776  1.00  0.00     0.047 C 
BRANCH   6   7
ATOM      7  C   UNL     1       6.731  -0.145  -0.187  1.00  0.00    -0.047 A 
ATOM      8  C   UNL     1       6.278  -0.384   1.105  1.00  0.00     0.004 A 
ATOM      9  C   UNL     1       6.248   0.972  -0.820  1.00  0.00     0.004 A 
ATOM     10  C   UNL     1       5.372   0.497   1.694  1.00  0.00     0.000 A 
ATOM     11  C   UNL     1       5.352   1.863  -0.263  1.00  0.00     0.000 A 
ATOM     12  C   UNL     1       4.919   1.599   1.021  1.00  0.00     0.000 A 
ENDBRANCH   6   7
ENDBRANCH   1   6
TORSDOF 4
ENDMDL
MODEL 4
REMARK VINA RESULT:      -6.8      3.307      5.174
REMARK SMILES O=C(O)CCc1ccccc1
REMARK SMILES IDX 4 1 2 2 1 3 3 4 5 6 6 7 7 8 11 9 8 10 10 11 9 12
REMARK H PARENT 3 5
REMARK Flexibility Score: inf
ROOT
ATOM      1  C   UNL     1       4.981   1.768   0.722  1.00  0.00     0.127 C 
ENDROOT
BRANCH   1   2
ATOM      2  C   UNL     1       4.459   1.110   1.933  1.00  0.00     0.303 C 
ATOM      3  O   UNL     1       5.147   0.216   2.481  1.00  0.00    -0.252 OA
BRANCH   2   4
ATOM      4  O   UNL     1       3.236   1.460   2.471  1.00  0.00    -0.481 OA
ATOM      5  H   UNL     1       2.577   2.118   2.016  1.00  0.00     0.296 HD
ENDBRANCH   2   4
ENDBRANCH   1   2
BRANCH   1   6
ATOM      6  C   UNL     1       6.501   1.784   0.842  1.00  0.00     0.047 C 
BRANCH   6   7
ATOM      7  C   UNL     1       7.154   1.088  -0.281  1.00  0.00    -0.047 A 
ATOM      8  C   UNL     1       6.383   0.232  -1.058  1.00  0.00     0.004 A 
ATOM      9  C   UNL     1       8.477   1.213  -0.620  1.00  0.00     0.004 A 
ATOM     10  C   UNL     1       6.966  -0.449  -2.124  1.00  0.00     0.000 A 
ATOM     11  C   UNL     1       9.084   0.553  -1.669  1.00  0.00     0.000 A 
ATOM     12  C   UNL     1       8.292  -0.291  -2.423  1.00  0.00     0.000 A 
ENDBRANCH   6   7
ENDBRANCH   1   6
TORSDOF 4
ENDMDL
MODEL 5
REMARK VINA RESULT:      -6.7      3.818      4.981
REMARK SMILES O=C(O)CCc1ccccc1
REMARK SMILES IDX 4 1 2 2 1 3 3 4 5 6 6 7 7 8 11 9 8 10 10 11 9 12
REMARK H PARENT 3 5
REMARK Flexibility Score: inf
ROOT
ATOM      1  C   UNL     1       5.496   2.867  -0.029  1.00  0.00     0.127 C 
ENDROOT
BRANCH   1   2
ATOM      2  C   UNL     1       6.242   3.830   0.799  1.00  0.00     0.303 C 
ATOM      3  O   UNL     1       6.846   4.773   0.235  1.00  0.00    -0.252 OA
BRANCH   2   4
ATOM      4  O   UNL     1       6.287   3.713   2.175  1.00  0.00    -0.481 OA
ATOM      5  H   UNL     1       6.659   2.880   2.668  1.00  0.00     0.296 HD
ENDBRANCH   2   4
ENDBRANCH   1   2
BRANCH   1   6
ATOM      6  C   UNL     1       4.922   1.815   0.913  1.00  0.00     0.047 C 
BRANCH   6   7
ATOM      7  C   UNL     1       5.721   0.578   0.918  1.00  0.00    -0.047 A 
ATOM      8  C   UNL     1       5.748  -0.179   2.083  1.00  0.00     0.004 A 
ATOM      9  C   UNL     1       6.452   0.111  -0.145  1.00  0.00     0.004 A 
ATOM     10  C   UNL     1       6.498  -1.353   2.128  1.00  0.00     0.000 A 
ATOM     11  C   UNL     1       7.204  -1.047  -0.131  1.00  0.00     0.000 A 
ATOM     12  C   UNL     1       7.213  -1.777   1.041  1.00  0.00     0.000 A 
ENDBRANCH   6   7
ENDBRANCH   1   6
TORSDOF 4
ENDMDL
