@<TRIPOS>MOLECULE
/home/cewinharhar/GITHUB/reincatalyze/data/processed/docking_pred/2023-Apr-25-1829_maxeplen10_maxtrainstep200_exh32_gamma099_lrac3e-4_lrcr1e-3/5f00cdda1ab61f28c1ea6d7129614616e9231d70_ligand_2.pdbqt
 12 12 0 0 0
SMALL
GASTEIGER

@<TRIPOS>ATOM
      1  C          8.4240   -0.6750   -2.1220 C.3     1  UNL1        0.1270
      2  C          8.3940   -1.9270   -2.8980 C.2     1  UNL1        0.3030
      3  O          7.2860   -2.3880   -3.2610 O.2     1  UNL1       -0.2520
      4  O          9.5570   -2.5950   -3.2310 O.3     1  UNL1       -0.4810
      5  H         10.2810   -2.2050   -3.8620 H       1  UNL1        0.2960
      6  C          7.0130   -0.0990   -2.1460 C.3     1  UNL1        0.0470
      7  C          6.4670    0.0910   -0.7900 C.2     1  UNL1       -0.0470
      8  C          6.6300   -0.9360    0.1310 C.2     1  UNL1        0.0040
      9  C          5.8000    1.2100   -0.3630 C.2     1  UNL1        0.0040
     10  C          6.1230   -0.7960    1.4210 C.2     1  UNL1        0.0000
     11  C          5.2860    1.3790    0.9080 C.2     1  UNL1        0.0000
     12  C          5.4630    0.3410    1.8010 C.2     1  UNL1        0.0000
@<TRIPOS>BOND
     1     5     4    1
     2     3     2    2
     3     4     2    1
     4     2     1    1
     5     6     1    1
     6     6     7    1
     7     7     9    2
     8     7     8    1
     9     9    11    1
    10     8    10    2
    11    11    12    2
    12    10    12    1
