@<TRIPOS>MOLECULE
/home/cewinharhar/GITHUB/reincatalyze/data/processed/docking_pred/2023-Apr-25-1829_maxeplen10_maxtrainstep200_exh32_gamma099_lrac3e-4_lrcr1e-3/5f00cdda1ab61f28c1ea6d7129614616e9231d70_ligand_2.pdbqt
 12 12 0 0 0
SMALL
GASTEIGER

@<TRIPOS>ATOM
      1  C          5.4960    2.8670   -0.0290 C.3     1  UNL1        0.1270
      2  C          6.2420    3.8300    0.7990 C.2     1  UNL1        0.3030
      3  O          6.8460    4.7730    0.2350 O.2     1  UNL1       -0.2520
      4  O          6.2870    3.7130    2.1750 O.3     1  UNL1       -0.4810
      5  H          6.6590    2.8800    2.6680 H       1  UNL1        0.2960
      6  C          4.9220    1.8150    0.9130 C.3     1  UNL1        0.0470
      7  C          5.7210    0.5780    0.9180 C.2     1  UNL1       -0.0470
      8  C          5.7480   -0.1790    2.0830 C.2     1  UNL1        0.0040
      9  C          6.4520    0.1110   -0.1450 C.2     1  UNL1        0.0040
     10  C          6.4980   -1.3530    2.1280 C.2     1  UNL1        0.0000
     11  C          7.2040   -1.0470   -0.1310 C.2     1  UNL1        0.0000
     12  C          7.2130   -1.7770    1.0410 C.2     1  UNL1        0.0000
@<TRIPOS>BOND
     1     9    11    1
     2     9     7    2
     3    11    12    2
     4     1     2    1
     5     1     6    1
     6     3     2    2
     7     2     4    1
     8     6     7    1
     9     7     8    1
    10    12    10    1
    11     8    10    2
    12     4     5    1
