@<TRIPOS>MOLECULE
/home/cewinharhar/GITHUB/reincatalyze/data/processed/docking_pred/2023-Apr-25-1829_maxeplen10_maxtrainstep200_exh32_gamma099_lrac3e-4_lrcr1e-3/5f00cdda1ab61f28c1ea6d7129614616e9231d70_ligand_2.pdbqt
 12 12 0 0 0
SMALL
GASTEIGER

@<TRIPOS>ATOM
      1  C          8.4430   -0.6710   -2.0860 C.3     1  UNL1        0.1270
      2  C          8.4050   -1.9140   -2.8760 C.2     1  UNL1        0.3030
      3  O          7.2920   -2.3890   -3.2040 O.2     1  UNL1       -0.2520
      4  O          9.5660   -2.5590   -3.2590 O.3     1  UNL1       -0.4810
      5  H          9.8400   -3.4980   -2.9150 H       1  UNL1        0.2960
      6  C          7.0330   -0.0910   -2.0950 C.3     1  UNL1        0.0470
      7  C          6.4760    0.0360   -0.7370 C.2     1  UNL1       -0.0470
      8  C          5.8290    1.2200   -0.4040 C.2     1  UNL1        0.0040
      9  C          6.5510   -0.9270    0.2360 C.2     1  UNL1        0.0040
     10  C          5.2940    1.3810    0.8720 C.2     1  UNL1        0.0000
     11  C          6.0310   -0.7970    1.5090 C.2     1  UNL1        0.0000
     12  C          5.3950    0.3910    1.8110 C.2     1  UNL1        0.0000
@<TRIPOS>BOND
     1     4     5    1
     2     4     2    1
     3     3     2    2
     4     2     1    1
     5     6     1    1
     6     6     7    1
     7     7     8    2
     8     7     9    1
     9     8    10    1
    10     9    11    2
    11    10    12    2
    12    11    12    1
