@<TRIPOS>MOLECULE
/home/cewinharhar/GITHUB/reincatalyze/data/processed/docking_pred/2023-Apr-25-1829_maxeplen10_maxtrainstep200_exh32_gamma099_lrac3e-4_lrcr1e-3/5f00cdda1ab61f28c1ea6d7129614616e9231d70_ligand_2.pdbqt
 12 12 0 0 0
SMALL
GASTEIGER

@<TRIPOS>ATOM
      1  C          4.9810    1.7680    0.7220 C.3     1  UNL1        0.1270
      2  C          4.4590    1.1100    1.9330 C.2     1  UNL1        0.3030
      3  O          5.1470    0.2160    2.4810 O.2     1  UNL1       -0.2520
      4  O          3.2360    1.4600    2.4710 O.3     1  UNL1       -0.4810
      5  H          2.5770    2.1180    2.0160 H       1  UNL1        0.2960
      6  C          6.5010    1.7840    0.8420 C.3     1  UNL1        0.0470
      7  C          7.1540    1.0880   -0.2810 C.2     1  UNL1       -0.0470
      8  C          6.3830    0.2320   -1.0580 C.2     1  UNL1        0.0040
      9  C          8.4770    1.2130   -0.6200 C.2     1  UNL1        0.0040
     10  C          6.9660   -0.4490   -2.1240 C.2     1  UNL1        0.0000
     11  C          9.0840    0.5530   -1.6690 C.2     1  UNL1        0.0000
     12  C          8.2920   -0.2910   -2.4230 C.2     1  UNL1        0.0000
@<TRIPOS>BOND
     1    12    10    2
     2    12    11    1
     3    10     8    1
     4    11     9    2
     5     8     7    2
     6     9     7    1
     7     7     6    1
     8     1     6    1
     9     1     2    1
    10     2     4    1
    11     2     3    2
    12     5     4    1
