@<TRIPOS>MOLECULE
/home/cewinharhar/GITHUB/reincatalyze/data/processed/docking_pred/2023-Apr-25-1829_maxeplen10_maxtrainstep200_exh32_gamma099_lrac3e-4_lrcr1e-3/64ade7361adfbcba1ebdf367c3e16aacabd62181_ligand_2.pdbqt
 12 12 0 0 0
SMALL
GASTEIGER

@<TRIPOS>ATOM
      1  C          4.9980    1.7720    0.7220 C.3     1  UNL1        0.1270
      2  C          4.4730    1.1100    1.9290 C.2     1  UNL1        0.3030
      3  O          5.1610    0.2160    2.4760 O.2     1  UNL1       -0.2520
      4  O          3.2470    1.4550    2.4650 O.3     1  UNL1       -0.4810
      5  H          3.1070    1.7030    3.4620 H       1  UNL1        0.2960
      6  C          6.5190    1.7180    0.8060 C.3     1  UNL1        0.0470
      7  C          7.1100    0.9510   -0.3040 C.2     1  UNL1       -0.0470
      8  C          8.4250    1.2240   -0.6600 C.2     1  UNL1        0.0040
      9  C          6.4580   -0.0170   -1.0240 C.2     1  UNL1        0.0040
     10  C          9.0170    0.5230   -1.7090 C.2     1  UNL1        0.0000
     11  C          7.0170   -0.7280   -2.0670 C.2     1  UNL1        0.0000
     12  C          8.3250   -0.4340   -2.3990 C.2     1  UNL1        0.0000
@<TRIPOS>BOND
     1    12    11    2
     2    12    10    1
     3    11     9    1
     4    10     8    2
     5     9     7    2
     6     8     7    1
     7     7     6    1
     8     1     6    1
     9     1     2    1
    10     2     4    1
    11     2     3    2
    12     4     5    1
