@<TRIPOS>MOLECULE
/home/cewinharhar/GITHUB/reincatalyze/data/processed/docking_pred/2023-Apr-25-1829_maxeplen10_maxtrainstep200_exh32_gamma099_lrac3e-4_lrcr1e-3/64ade7361adfbcba1ebdf367c3e16aacabd62181_ligand_2.pdbqt
 12 12 0 0 0
SMALL
GASTEIGER

@<TRIPOS>ATOM
      1  C          8.1930   -0.8340   -2.0100 C.3     1  UNL1        0.1270
      2  C          8.3510   -1.9930   -2.9060 C.2     1  UNL1        0.3030
      3  O          9.4960   -2.4740   -3.0780 O.2     1  UNL1       -0.2520
      4  O          7.2670   -2.5560   -3.5520 O.3     1  UNL1       -0.4810
      5  H          7.0610   -3.5720   -3.5470 H       1  UNL1        0.2960
      6  C          7.4530   -1.3230   -0.7700 C.3     1  UNL1        0.0470
      7  C          6.6000   -0.2750   -0.1830 C.2     1  UNL1       -0.0470
      8  C          6.1590   -0.4470    1.1240 C.2     1  UNL1        0.0040
      9  C          6.1980    0.8650   -0.8300 C.2     1  UNL1        0.0040
     10  C          5.3450    0.5190    1.7120 C.2     1  UNL1        0.0000
     11  C          5.3930    1.8400   -0.2750 C.2     1  UNL1        0.0000
     12  C          4.9700    1.6410    1.0240 C.2     1  UNL1        0.0000
@<TRIPOS>BOND
     1     4     5    1
     2     4     2    1
     3     3     2    2
     4     2     1    1
     5     1     6    1
     6     9    11    1
     7     9     7    2
     8     6     7    1
     9    11    12    2
    10     7     8    1
    11    12    10    1
    12     8    10    2
