@<TRIPOS>MOLECULE
/home/cewinharhar/GITHUB/reincatalyze/data/processed/docking_pred/2023-Apr-25-1829_maxeplen10_maxtrainstep200_exh32_gamma099_lrac3e-4_lrcr1e-3/64ade7361adfbcba1ebdf367c3e16aacabd62181_ligand_2.pdbqt
 12 12 0 0 0
SMALL
GASTEIGER

@<TRIPOS>ATOM
      1  C          8.4580   -0.6030   -2.1840 C.3     1  UNL1        0.1270
      2  C          8.4860   -1.8730   -2.9310 C.2     1  UNL1        0.3030
      3  O          9.5840   -2.4550   -3.0940 O.2     1  UNL1       -0.2520
      4  O          7.3320   -2.4300   -3.4470 O.3     1  UNL1       -0.4810
      5  H          7.3170   -3.0510   -4.2770 H       1  UNL1        0.2960
      6  C          7.0220   -0.0930   -2.2200 C.3     1  UNL1        0.0470
      7  C          6.4770    0.1280   -0.8690 C.2     1  UNL1       -0.0470
      8  C          6.5940   -0.8990    0.0600 C.2     1  UNL1        0.0040
      9  C          5.8530    1.2760   -0.4520 C.2     1  UNL1        0.0040
     10  C          6.0860   -0.7290    1.3460 C.2     1  UNL1        0.0000
     11  C          5.3400    1.4750    0.8140 C.2     1  UNL1        0.0000
     12  C          5.4700    0.4360    1.7150 C.2     1  UNL1        0.0000
@<TRIPOS>BOND
     1     5     4    1
     2     4     2    1
     3     3     2    2
     4     2     1    1
     5     6     1    1
     6     6     7    1
     7     7     9    2
     8     7     8    1
     9     9    11    1
    10     8    10    2
    11    11    12    2
    12    10    12    1
