@<TRIPOS>MOLECULE
/home/cewinharhar/GITHUB/reincatalyze/data/processed/docking_pred/2023-Apr-25-1829_maxeplen10_maxtrainstep200_exh32_gamma099_lrac3e-4_lrcr1e-3/64ade7361adfbcba1ebdf367c3e16aacabd62181_ligand_2.pdbqt
 12 12 0 0 0
SMALL
GASTEIGER

@<TRIPOS>ATOM
      1  C          8.4560   -0.6150   -2.1840 C.3     1  UNL1        0.1270
      2  C          8.4630   -1.8940   -2.9170 C.2     1  UNL1        0.3030
      3  O          9.5520   -2.4950   -3.0740 O.2     1  UNL1       -0.2520
      4  O          7.3000   -2.4370   -3.4280 O.3     1  UNL1       -0.4810
      5  H          6.6590   -1.9260   -4.0630 H       1  UNL1        0.2960
      6  C          7.0110   -0.1300   -2.1440 C.3     1  UNL1        0.0470
      7  C          6.4960   -0.0330   -0.7670 C.2     1  UNL1       -0.0470
      8  C          5.8830    1.1530   -0.3800 C.2     1  UNL1        0.0040
      9  C          6.5780   -1.0270    0.1740 C.2     1  UNL1        0.0040
     10  C          5.3880    1.2850    0.9160 C.2     1  UNL1        0.0000
     11  C          6.0980   -0.9260    1.4650 C.2     1  UNL1        0.0000
     12  C          5.4950    0.2640    1.8200 C.2     1  UNL1        0.0000
@<TRIPOS>BOND
     1     5     4    1
     2     4     2    1
     3     3     2    2
     4     2     1    1
     5     1     6    1
     6     6     7    1
     7     7     8    2
     8     7     9    1
     9     8    10    1
    10     9    11    2
    11    10    12    2
    12    11    12    1
