@<TRIPOS>MOLECULE
/home/cewinharhar/GITHUB/reincatalyze/data/processed/docking_pred/2023-Apr-25-1829_maxeplen10_maxtrainstep200_exh32_gamma099_lrac3e-4_lrcr1e-3/64ade7361adfbcba1ebdf367c3e16aacabd62181_ligand_2.pdbqt
 12 12 0 0 0
SMALL
GASTEIGER

@<TRIPOS>ATOM
      1  C          8.3120   -0.9250   -1.8560 C.3     1  UNL1        0.1270
      2  C          8.4160   -1.9960   -2.8620 C.2     1  UNL1        0.3030
      3  O          9.5440   -2.4780   -3.1190 O.2     1  UNL1       -0.2520
      4  O          7.3000   -2.4760   -3.5200 O.3     1  UNL1       -0.4810
      5  H          6.3530   -2.5000   -3.0990 H       1  UNL1        0.2960
      6  C          7.4280   -1.4500   -0.7310 C.3     1  UNL1        0.0470
      7  C          6.5960   -0.3890   -0.1360 C.2     1  UNL1       -0.0470
      8  C          6.2680    0.7050   -0.9260 C.2     1  UNL1        0.0040
      9  C          6.1210   -0.3930    1.1500 C.2     1  UNL1        0.0040
     10  C          5.4890    1.7320   -0.3970 C.2     1  UNL1        0.0000
     11  C          5.3470    0.6080    1.7030 C.2     1  UNL1        0.0000
     12  C          5.0380    1.6830    0.8940 C.2     1  UNL1        0.0000
@<TRIPOS>BOND
     1     4     5    1
     2     4     2    1
     3     3     2    2
     4     2     1    1
     5     1     6    1
     6     8    10    1
     7     8     7    2
     8     6     7    1
     9    10    12    2
    10     7     9    1
    11    12    11    1
    12     9    11    2
