MODEL 1
REMARK VINA RESULT:      -7.3      0.000      0.000
REMARK SMILES O=C(O)CCc1ccccc1
REMARK SMILES IDX 4 1 2 2 1 3 3 4 5 6 6 7 7 8 11 9 8 10 10 11 9 12
REMARK H PARENT 3 5
REMARK Flexibility Score: inf
ROOT
ATOM      1  C   UNL     1       8.456  -0.615  -2.184  1.00  0.00     0.127 C 
ENDROOT
BRANCH   1   2
ATOM      2  C   UNL     1       8.463  -1.894  -2.917  1.00  0.00     0.303 C 
ATOM      3  O   UNL     1       9.552  -2.495  -3.074  1.00  0.00    -0.252 OA
BRANCH   2   4
ATOM      4  O   UNL     1       7.300  -2.437  -3.428  1.00  0.00    -0.481 OA
ATOM      5  H   UNL     1       6.659  -1.926  -4.063  1.00  0.00     0.296 HD
ENDBRANCH   2   4
ENDBRANCH   1   2
BRANCH   1   6
ATOM      6  C   UNL     1       7.011  -0.130  -2.144  1.00  0.00     0.047 C 
BRANCH   6   7
ATOM      7  C   UNL     1       6.496  -0.033  -0.767  1.00  0.00    -0.047 A 
ATOM      8  C   UNL     1       5.883   1.153  -0.380  1.00  0.00     0.004 A 
ATOM      9  C   UNL     1       6.578  -1.027   0.174  1.00  0.00     0.004 A 
ATOM     10  C   UNL     1       5.388   1.285   0.916  1.00  0.00     0.000 A 
ATOM     11  C   UNL     1       6.098  -0.926   1.465  1.00  0.00     0.000 A 
ATOM     12  C   UNL     1       5.495   0.264   1.820  1.00  0.00     0.000 A 
ENDBRANCH   6   7
ENDBRANCH   1   6
TORSDOF 4
ENDMDL
MODEL 2
REMARK VINA RESULT:      -7.3      0.149      1.437
REMARK SMILES O=C(O)CCc1ccccc1
REMARK SMILES IDX 4 1 2 2 1 3 3 4 5 6 6 7 7 8 11 9 8 10 10 11 9 12
REMARK H PARENT 3 5
REMARK Flexibility Score: inf
ROOT
ATOM      1  C   UNL     1       8.458  -0.603  -2.184  1.00  0.00     0.127 C 
ENDROOT
BRANCH   1   2
ATOM      2  C   UNL     1       8.486  -1.873  -2.931  1.00  0.00     0.303 C 
ATOM      3  O   UNL     1       9.584  -2.455  -3.094  1.00  0.00    -0.252 OA
BRANCH   2   4
ATOM      4  O   UNL     1       7.332  -2.430  -3.447  1.00  0.00    -0.481 OA
ATOM      5  H   UNL     1       7.317  -3.051  -4.277  1.00  0.00     0.296 HD
ENDBRANCH   2   4
ENDBRANCH   1   2
BRANCH   1   6
ATOM      6  C   UNL     1       7.022  -0.093  -2.220  1.00  0.00     0.047 C 
BRANCH   6   7
ATOM      7  C   UNL     1       6.477   0.128  -0.869  1.00  0.00    -0.047 A 
ATOM      8  C   UNL     1       6.594  -0.899   0.060  1.00  0.00     0.004 A 
ATOM      9  C   UNL     1       5.853   1.276  -0.452  1.00  0.00     0.004 A 
ATOM     10  C   UNL     1       6.086  -0.729   1.346  1.00  0.00     0.000 A 
ATOM     11  C   UNL     1       5.340   1.475   0.814  1.00  0.00     0.000 A 
ATOM     12  C   UNL     1       5.470   0.436   1.715  1.00  0.00     0.000 A 
ENDBRANCH   6   7
ENDBRANCH   1   6
TORSDOF 4
ENDMDL
MODEL 3
REMARK VINA RESULT:      -7.2      0.675      1.164
REMARK SMILES O=C(O)CCc1ccccc1
REMARK SMILES IDX 4 1 2 2 1 3 3 4 5 6 6 7 7 8 11 9 8 10 10 11 9 12
REMARK H PARENT 3 5
REMARK Flexibility Score: inf
ROOT
ATOM      1  C   UNL     1       8.312  -0.925  -1.856  1.00  0.00     0.127 C 
ENDROOT
BRANCH   1   2
ATOM      2  C   UNL     1       8.416  -1.996  -2.862  1.00  0.00     0.303 C 
ATOM      3  O   UNL     1       9.544  -2.478  -3.119  1.00  0.00    -0.252 OA
BRANCH   2   4
ATOM      4  O   UNL     1       7.300  -2.476  -3.520  1.00  0.00    -0.481 OA
ATOM      5  H   UNL     1       6.353  -2.500  -3.099  1.00  0.00     0.296 HD
ENDBRANCH   2   4
ENDBRANCH   1   2
BRANCH   1   6
ATOM      6  C   UNL     1       7.428  -1.450  -0.731  1.00  0.00     0.047 C 
BRANCH   6   7
ATOM      7  C   UNL     1       6.596  -0.389  -0.136  1.00  0.00    -0.047 A 
ATOM      8  C   UNL     1       6.268   0.705  -0.926  1.00  0.00     0.004 A 
ATOM      9  C   UNL     1       6.121  -0.393   1.150  1.00  0.00     0.004 A 
ATOM     10  C   UNL     1       5.489   1.732  -0.397  1.00  0.00     0.000 A 
ATOM     11  C   UNL     1       5.347   0.608   1.703  1.00  0.00     0.000 A 
ATOM     12  C   UNL     1       5.038   1.683   0.894  1.00  0.00     0.000 A 
ENDBRANCH   6   7
ENDBRANCH   1   6
TORSDOF 4
ENDMDL
MODEL 4
REMARK VINA RESULT:      -7.2      0.630      1.622
REMARK SMILES O=C(O)CCc1ccccc1
REMARK SMILES IDX 4 1 2 2 1 3 3 4 5 6 6 7 7 8 11 9 8 10 10 11 9 12
REMARK H PARENT 3 5
REMARK Flexibility Score: inf
ROOT
ATOM      1  C   UNL     1       8.193  -0.834  -2.010  1.00  0.00     0.127 C 
ENDROOT
BRANCH   1   2
ATOM      2  C   UNL     1       8.351  -1.993  -2.906  1.00  0.00     0.303 C 
ATOM      3  O   UNL     1       9.496  -2.474  -3.078  1.00  0.00    -0.252 OA
BRANCH   2   4
ATOM      4  O   UNL     1       7.267  -2.556  -3.552  1.00  0.00    -0.481 OA
ATOM      5  H   UNL     1       7.061  -3.572  -3.547  1.00  0.00     0.296 HD
ENDBRANCH   2   4
ENDBRANCH   1   2
BRANCH   1   6
ATOM      6  C   UNL     1       7.453  -1.323  -0.770  1.00  0.00     0.047 C 
BRANCH   6   7
ATOM      7  C   UNL     1       6.600  -0.275  -0.183  1.00  0.00    -0.047 A 
ATOM      8  C   UNL     1       6.159  -0.447   1.124  1.00  0.00     0.004 A 
ATOM      9  C   UNL     1       6.198   0.865  -0.830  1.00  0.00     0.004 A 
ATOM     10  C   UNL     1       5.345   0.519   1.712  1.00  0.00     0.000 A 
ATOM     11  C   UNL     1       5.393   1.840  -0.275  1.00  0.00     0.000 A 
ATOM     12  C   UNL     1       4.970   1.641   1.024  1.00  0.00     0.000 A 
ENDBRANCH   6   7
ENDBRANCH   1   6
TORSDOF 4
ENDMDL
MODEL 5
REMARK VINA RESULT:      -6.8      3.380      5.059
REMARK SMILES O=C(O)CCc1ccccc1
REMARK SMILES IDX 4 1 2 2 1 3 3 4 5 6 6 7 7 8 11 9 8 10 10 11 9 12
REMARK H PARENT 3 5
REMARK Flexibility Score: inf
ROOT
ATOM      1  C   UNL     1       4.998   1.772   0.722  1.00  0.00     0.127 C 
ENDROOT
BRANCH   1   2
ATOM      2  C   UNL     1       4.473   1.110   1.929  1.00  0.00     0.303 C 
ATOM      3  O   UNL     1       5.161   0.216   2.476  1.00  0.00    -0.252 OA
BRANCH   2   4
ATOM      4  O   UNL     1       3.247   1.455   2.465  1.00  0.00    -0.481 OA
ATOM      5  H   UNL     1       3.107   1.703   3.462  1.00  0.00     0.296 HD
ENDBRANCH   2   4
ENDBRANCH   1   2
BRANCH   1   6
ATOM      6  C   UNL     1       6.519   1.718   0.806  1.00  0.00     0.047 C 
BRANCH   6   7
ATOM      7  C   UNL     1       7.110   0.951  -0.304  1.00  0.00    -0.047 A 
ATOM      8  C   UNL     1       8.425   1.224  -0.660  1.00  0.00     0.004 A 
ATOM      9  C   UNL     1       6.458  -0.017  -1.024  1.00  0.00     0.004 A 
ATOM     10  C   UNL     1       9.017   0.523  -1.709  1.00  0.00     0.000 A 
ATOM     11  C   UNL     1       7.017  -0.728  -2.067  1.00  0.00     0.000 A 
ATOM     12  C   UNL     1       8.325  -0.434  -2.399  1.00  0.00     0.000 A 
ENDBRANCH   6   7
ENDBRANCH   1   6
TORSDOF 4
ENDMDL
