@<TRIPOS>MOLECULE
/home/cewinharhar/GITHUB/reincatalyze/data/processed/docking_pred/2023-Apr-25-1829_maxeplen10_maxtrainstep200_exh32_gamma099_lrac3e-4_lrcr1e-3/650932a4c96e02f0afcc120cab6b741f416c7ae8_ligand_2.pdbqt
 12 12 0 0 0
SMALL
GASTEIGER

@<TRIPOS>ATOM
      1  C          8.4400   -0.6110   -2.1710 C.3     1  UNL1        0.1270
      2  C          8.4700   -1.8800   -2.9190 C.2     1  UNL1        0.3030
      3  O          9.5710   -2.4550   -3.0910 O.2     1  UNL1       -0.2520
      4  O          7.3160   -2.4430   -3.4290 O.3     1  UNL1       -0.4810
      5  H          6.6470   -1.9310   -4.0340 H       1  UNL1        0.2960
      6  C          6.9970   -0.1200   -2.1800 C.3     1  UNL1        0.0470
      7  C          6.4690    0.0780   -0.8180 C.2     1  UNL1       -0.0470
      8  C          6.6040   -0.9620    0.0930 C.2     1  UNL1        0.0040
      9  C          5.8440    1.2160   -0.3760 C.2     1  UNL1        0.0040
     10  C          6.1120   -0.8150    1.3890 C.2     1  UNL1        0.0000
     11  C          5.3470    1.3920    0.9000 C.2     1  UNL1        0.0000
     12  C          5.4950    0.3400    1.7830 C.2     1  UNL1        0.0000
@<TRIPOS>BOND
     1     5     4    1
     2     4     2    1
     3     3     2    2
     4     2     1    1
     5     6     1    1
     6     6     7    1
     7     7     9    2
     8     7     8    1
     9     9    11    1
    10     8    10    2
    11    11    12    2
    12    10    12    1
