@<TRIPOS>MOLECULE
/home/cewinharhar/GITHUB/reincatalyze/data/processed/docking_pred/2023-Apr-25-1829_maxeplen10_maxtrainstep200_exh32_gamma099_lrac3e-4_lrcr1e-3/650932a4c96e02f0afcc120cab6b741f416c7ae8_ligand_2.pdbqt
 12 12 0 0 0
SMALL
GASTEIGER

@<TRIPOS>ATOM
      1  C          5.0280    1.7800    0.7210 C.3     1  UNL1        0.1270
      2  C          4.5020    1.1100    1.9230 C.2     1  UNL1        0.3030
      3  O          5.1940    0.2210    2.4720 O.2     1  UNL1       -0.2520
      4  O          3.2700    1.4450    2.4520 O.3     1  UNL1       -0.4810
      5  H          2.3830    1.3880    1.9180 H       1  UNL1        0.2960
      6  C          6.5490    1.7080    0.7970 C.3     1  UNL1        0.0470
      7  C          7.1250    0.9310   -0.3140 C.2     1  UNL1       -0.0470
      8  C          8.4330    1.2060   -0.6950 C.2     1  UNL1        0.0040
      9  C          6.4660   -0.0470   -1.0140 C.2     1  UNL1        0.0040
     10  C          9.0110    0.4970   -1.7470 C.2     1  UNL1        0.0000
     11  C          7.0100   -0.7660   -2.0590 C.2     1  UNL1        0.0000
     12  C          8.3120   -0.4700   -2.4150 C.2     1  UNL1        0.0000
@<TRIPOS>BOND
     1    12    11    2
     2    12    10    1
     3    11     9    1
     4    10     8    2
     5     9     7    2
     6     8     7    1
     7     7     6    1
     8     1     6    1
     9     1     2    1
    10     5     4    1
    11     2     4    1
    12     2     3    2
