@<TRIPOS>MOLECULE
/home/cewinharhar/GITHUB/reincatalyze/data/processed/docking_pred/2023-Apr-25-1829_maxeplen10_maxtrainstep200_exh32_gamma099_lrac3e-4_lrcr1e-3/650932a4c96e02f0afcc120cab6b741f416c7ae8_ligand_2.pdbqt
 12 12 0 0 0
SMALL
GASTEIGER

@<TRIPOS>ATOM
      1  C          8.3180    0.1570   -2.1530 C.3     1  UNL1        0.1270
      2  C          9.4230    0.3350   -1.1960 C.2     1  UNL1        0.3030
      3  O          9.4690   -0.4000   -0.1810 O.2     1  UNL1       -0.2520
      4  O         10.4030    1.2880   -1.3970 O.3     1  UNL1       -0.4810
      5  H         10.3120    2.2760   -1.0960 H       1  UNL1        0.2960
      6  C          7.2190   -0.6140   -1.4310 C.3     1  UNL1        0.0470
      7  C          6.3960    0.2600   -0.5760 C.2     1  UNL1       -0.0470
      8  C          6.1330   -0.1560    0.7230 C.2     1  UNL1        0.0040
      9  C          5.8600    1.4600   -0.9660 C.2     1  UNL1        0.0040
     10  C          5.3530    0.6400    1.5600 C.2     1  UNL1        0.0000
     11  C          5.0840    2.2710   -0.1620 C.2     1  UNL1        0.0000
     12  C          4.8390    1.8310    1.1240 C.2     1  UNL1        0.0000
@<TRIPOS>BOND
     1     1     6    1
     2     1     2    1
     3     6     7    1
     4     4     2    1
     5     4     5    1
     6     2     3    2
     7     9     7    2
     8     9    11    1
     9     7     8    1
    10    11    12    2
    11     8    10    2
    12    12    10    1
