@<TRIPOS>MOLECULE
/home/cewinharhar/GITHUB/reincatalyze/data/processed/docking_pred/2023-Apr-25-1829_maxeplen10_maxtrainstep200_exh32_gamma099_lrac3e-4_lrcr1e-3/650932a4c96e02f0afcc120cab6b741f416c7ae8_ligand_2.pdbqt
 12 12 0 0 0
SMALL
GASTEIGER

@<TRIPOS>ATOM
      1  C          8.4720   -0.6010   -2.1990 C.3     1  UNL1        0.1270
      2  C          8.4760   -1.8950   -2.9040 C.2     1  UNL1        0.3030
      3  O          9.5590   -2.5130   -3.0290 O.2     1  UNL1       -0.2520
      4  O          7.3150   -2.4360   -3.4220 O.3     1  UNL1       -0.4810
      5  H          6.8230   -3.2460   -3.0030 H       1  UNL1        0.2960
      6  C          7.0290   -0.1110   -2.1690 C.3     1  UNL1        0.0470
      7  C          6.5030   -0.0160   -0.7950 C.2     1  UNL1       -0.0470
      8  C          5.8460    1.1520   -0.4260 C.2     1  UNL1        0.0040
      9  C          6.6160   -0.9950    0.1580 C.2     1  UNL1        0.0040
     10  C          5.3410    1.2820    0.8660 C.2     1  UNL1        0.0000
     11  C          6.1260   -0.8960    1.4450 C.2     1  UNL1        0.0000
     12  C          5.4790    0.2760    1.7830 C.2     1  UNL1        0.0000
@<TRIPOS>BOND
     1     4     5    1
     2     4     2    1
     3     3     2    2
     4     2     1    1
     5     1     6    1
     6     6     7    1
     7     7     8    2
     8     7     9    1
     9     8    10    1
    10     9    11    2
    11    10    12    2
    12    11    12    1
