@<TRIPOS>MOLECULE
/home/cewinharhar/GITHUB/reincatalyze/data/processed/docking_pred/2023-Apr-25-1829_maxeplen10_maxtrainstep200_exh32_gamma099_lrac3e-4_lrcr1e-3/650932a4c96e02f0afcc120cab6b741f416c7ae8_ligand_2.pdbqt
 12 12 0 0 0
SMALL
GASTEIGER

@<TRIPOS>ATOM
      1  C          5.4810    2.8920   -0.0340 C.3     1  UNL1        0.1270
      2  C          6.2650    3.8130    0.8070 C.2     1  UNL1        0.3030
      3  O          6.8740    4.7630    0.2590 O.2     1  UNL1       -0.2520
      4  O          6.3390    3.6520    2.1770 O.3     1  UNL1       -0.4810
      5  H          5.6140    3.9930    2.8340 H       1  UNL1        0.2960
      6  C          4.8970    1.8290    0.8900 C.3     1  UNL1        0.0470
      7  C          5.7080    0.5990    0.9060 C.2     1  UNL1       -0.0470
      8  C          5.7470   -0.1430    2.0800 C.2     1  UNL1        0.0040
      9  C          6.4380    0.1270   -0.1540 C.2     1  UNL1        0.0040
     10  C          6.5080   -1.3090    2.1360 C.2     1  UNL1        0.0000
     11  C          7.2010   -1.0240   -0.1300 C.2     1  UNL1        0.0000
     12  C          7.2210   -1.7400    1.0510 C.2     1  UNL1        0.0000
@<TRIPOS>BOND
     1     9    11    1
     2     9     7    2
     3    11    12    2
     4     1     2    1
     5     1     6    1
     6     3     2    2
     7     2     4    1
     8     6     7    1
     9     7     8    1
    10    12    10    1
    11     8    10    2
    12     4     5    1
