MODEL 1
REMARK VINA RESULT:      -7.3      0.000      0.000
REMARK SMILES O=C(O)CCc1ccccc1
REMARK SMILES IDX 4 1 2 2 1 3 3 4 5 6 6 7 7 8 11 9 8 10 10 11 9 12
REMARK H PARENT 3 5
REMARK Flexibility Score: inf
ROOT
ATOM      1  C   UNL     1       8.472  -0.601  -2.199  1.00  0.00     0.127 C 
ENDROOT
BRANCH   1   2
ATOM      2  C   UNL     1       8.476  -1.895  -2.904  1.00  0.00     0.303 C 
ATOM      3  O   UNL     1       9.559  -2.513  -3.029  1.00  0.00    -0.252 OA
BRANCH   2   4
ATOM      4  O   UNL     1       7.315  -2.436  -3.422  1.00  0.00    -0.481 OA
ATOM      5  H   UNL     1       6.823  -3.246  -3.003  1.00  0.00     0.296 HD
ENDBRANCH   2   4
ENDBRANCH   1   2
BRANCH   1   6
ATOM      6  C   UNL     1       7.029  -0.111  -2.169  1.00  0.00     0.047 C 
BRANCH   6   7
ATOM      7  C   UNL     1       6.503  -0.016  -0.795  1.00  0.00    -0.047 A 
ATOM      8  C   UNL     1       5.846   1.152  -0.426  1.00  0.00     0.004 A 
ATOM      9  C   UNL     1       6.616  -0.995   0.158  1.00  0.00     0.004 A 
ATOM     10  C   UNL     1       5.341   1.282   0.866  1.00  0.00     0.000 A 
ATOM     11  C   UNL     1       6.126  -0.896   1.445  1.00  0.00     0.000 A 
ATOM     12  C   UNL     1       5.479   0.276   1.783  1.00  0.00     0.000 A 
ENDBRANCH   6   7
ENDBRANCH   1   6
TORSDOF 4
ENDMDL
MODEL 2
REMARK VINA RESULT:      -7.3      0.075      1.430
REMARK SMILES O=C(O)CCc1ccccc1
REMARK SMILES IDX 4 1 2 2 1 3 3 4 5 6 6 7 7 8 11 9 8 10 10 11 9 12
REMARK H PARENT 3 5
REMARK Flexibility Score: inf
ROOT
ATOM      1  C   UNL     1       8.440  -0.611  -2.171  1.00  0.00     0.127 C 
ENDROOT
BRANCH   1   2
ATOM      2  C   UNL     1       8.470  -1.880  -2.919  1.00  0.00     0.303 C 
ATOM      3  O   UNL     1       9.571  -2.455  -3.091  1.00  0.00    -0.252 OA
BRANCH   2   4
ATOM      4  O   UNL     1       7.316  -2.443  -3.429  1.00  0.00    -0.481 OA
ATOM      5  H   UNL     1       6.647  -1.931  -4.034  1.00  0.00     0.296 HD
ENDBRANCH   2   4
ENDBRANCH   1   2
BRANCH   1   6
ATOM      6  C   UNL     1       6.997  -0.120  -2.180  1.00  0.00     0.047 C 
BRANCH   6   7
ATOM      7  C   UNL     1       6.469   0.078  -0.818  1.00  0.00    -0.047 A 
ATOM      8  C   UNL     1       6.604  -0.962   0.093  1.00  0.00     0.004 A 
ATOM      9  C   UNL     1       5.844   1.216  -0.376  1.00  0.00     0.004 A 
ATOM     10  C   UNL     1       6.112  -0.815   1.389  1.00  0.00     0.000 A 
ATOM     11  C   UNL     1       5.347   1.392   0.900  1.00  0.00     0.000 A 
ATOM     12  C   UNL     1       5.495   0.340   1.783  1.00  0.00     0.000 A 
ENDBRANCH   6   7
ENDBRANCH   1   6
TORSDOF 4
ENDMDL
MODEL 3
REMARK VINA RESULT:      -6.8      3.370      5.045
REMARK SMILES O=C(O)CCc1ccccc1
REMARK SMILES IDX 4 1 2 2 1 3 3 4 5 6 6 7 7 8 11 9 8 10 10 11 9 12
REMARK H PARENT 3 5
REMARK Flexibility Score: inf
ROOT
ATOM      1  C   UNL     1       5.028   1.780   0.721  1.00  0.00     0.127 C 
ENDROOT
BRANCH   1   2
ATOM      2  C   UNL     1       4.502   1.110   1.923  1.00  0.00     0.303 C 
ATOM      3  O   UNL     1       5.194   0.221   2.472  1.00  0.00    -0.252 OA
BRANCH   2   4
ATOM      4  O   UNL     1       3.270   1.445   2.452  1.00  0.00    -0.481 OA
ATOM      5  H   UNL     1       2.383   1.388   1.918  1.00  0.00     0.296 HD
ENDBRANCH   2   4
ENDBRANCH   1   2
BRANCH   1   6
ATOM      6  C   UNL     1       6.549   1.708   0.797  1.00  0.00     0.047 C 
BRANCH   6   7
ATOM      7  C   UNL     1       7.125   0.931  -0.314  1.00  0.00    -0.047 A 
ATOM      8  C   UNL     1       8.433   1.206  -0.695  1.00  0.00     0.004 A 
ATOM      9  C   UNL     1       6.466  -0.047  -1.014  1.00  0.00     0.004 A 
ATOM     10  C   UNL     1       9.011   0.497  -1.747  1.00  0.00     0.000 A 
ATOM     11  C   UNL     1       7.010  -0.766  -2.059  1.00  0.00     0.000 A 
ATOM     12  C   UNL     1       8.312  -0.470  -2.415  1.00  0.00     0.000 A 
ENDBRANCH   6   7
ENDBRANCH   1   6
TORSDOF 4
ENDMDL
MODEL 4
REMARK VINA RESULT:      -6.7      3.827      4.948
REMARK SMILES O=C(O)CCc1ccccc1
REMARK SMILES IDX 4 1 2 2 1 3 3 4 5 6 6 7 7 8 11 9 8 10 10 11 9 12
REMARK H PARENT 3 5
REMARK Flexibility Score: inf
ROOT
ATOM      1  C   UNL     1       5.481   2.892  -0.034  1.00  0.00     0.127 C 
ENDROOT
BRANCH   1   2
ATOM      2  C   UNL     1       6.265   3.813   0.807  1.00  0.00     0.303 C 
ATOM      3  O   UNL     1       6.874   4.763   0.259  1.00  0.00    -0.252 OA
BRANCH   2   4
ATOM      4  O   UNL     1       6.339   3.652   2.177  1.00  0.00    -0.481 OA
ATOM      5  H   UNL     1       5.614   3.993   2.834  1.00  0.00     0.296 HD
ENDBRANCH   2   4
ENDBRANCH   1   2
BRANCH   1   6
ATOM      6  C   UNL     1       4.897   1.829   0.890  1.00  0.00     0.047 C 
BRANCH   6   7
ATOM      7  C   UNL     1       5.708   0.599   0.906  1.00  0.00    -0.047 A 
ATOM      8  C   UNL     1       5.747  -0.143   2.080  1.00  0.00     0.004 A 
ATOM      9  C   UNL     1       6.438   0.127  -0.154  1.00  0.00     0.004 A 
ATOM     10  C   UNL     1       6.508  -1.309   2.136  1.00  0.00     0.000 A 
ATOM     11  C   UNL     1       7.201  -1.024  -0.130  1.00  0.00     0.000 A 
ATOM     12  C   UNL     1       7.221  -1.740   1.051  1.00  0.00     0.000 A 
ENDBRANCH   6   7
ENDBRANCH   1   6
TORSDOF 4
ENDMDL
MODEL 5
REMARK VINA RESULT:      -6.7      1.949      2.685
REMARK SMILES O=C(O)CCc1ccccc1
REMARK SMILES IDX 4 1 2 2 1 3 3 4 5 6 6 7 7 8 11 9 8 10 10 11 9 12
REMARK H PARENT 3 5
REMARK Flexibility Score: inf
ROOT
ATOM      1  C   UNL     1       8.318   0.157  -2.153  1.00  0.00     0.127 C 
ENDROOT
BRANCH   1   2
ATOM      2  C   UNL     1       9.423   0.335  -1.196  1.00  0.00     0.303 C 
ATOM      3  O   UNL     1       9.469  -0.400  -0.181  1.00  0.00    -0.252 OA
BRANCH   2   4
ATOM      4  O   UNL     1      10.403   1.288  -1.397  1.00  0.00    -0.481 OA
ATOM      5  H   UNL     1      10.312   2.276  -1.096  1.00  0.00     0.296 HD
ENDBRANCH   2   4
ENDBRANCH   1   2
BRANCH   1   6
ATOM      6  C   UNL     1       7.219  -0.614  -1.431  1.00  0.00     0.047 C 
BRANCH   6   7
ATOM      7  C   UNL     1       6.396   0.260  -0.576  1.00  0.00    -0.047 A 
ATOM      8  C   UNL     1       6.133  -0.156   0.723  1.00  0.00     0.004 A 
ATOM      9  C   UNL     1       5.860   1.460  -0.966  1.00  0.00     0.004 A 
ATOM     10  C   UNL     1       5.353   0.640   1.560  1.00  0.00     0.000 A 
ATOM     11  C   UNL     1       5.084   2.271  -0.162  1.00  0.00     0.000 A 
ATOM     12  C   UNL     1       4.839   1.831   1.124  1.00  0.00     0.000 A 
ENDBRANCH   6   7
ENDBRANCH   1   6
TORSDOF 4
ENDMDL
