@<TRIPOS>MOLECULE
/home/cewinharhar/GITHUB/reincatalyze/data/processed/docking_pred/2023-Apr-25-1829_maxeplen10_maxtrainstep200_exh32_gamma099_lrac3e-4_lrcr1e-3/67ebe37560d6b2ff0daae954040d2bc7ae74be81_ligand_2.pdbqt
 12 12 0 0 0
SMALL
GASTEIGER

@<TRIPOS>ATOM
      1  C          8.4470   -0.6770   -2.1000 C.3     1  UNL1        0.1270
      2  C          8.4620   -1.9170   -2.8950 C.2     1  UNL1        0.3030
      3  O          9.5570   -2.4920   -3.0980 O.2     1  UNL1       -0.2520
      4  O          7.2990   -2.4520   -3.4150 O.3     1  UNL1       -0.4810
      5  H          7.0550   -3.4580   -3.3560 H       1  UNL1        0.2960
      6  C          7.0210   -0.1380   -2.1360 C.3     1  UNL1        0.0470
      7  C          6.4690    0.0640   -0.7850 C.2     1  UNL1       -0.0470
      8  C          6.6020   -0.9670    0.1370 C.2     1  UNL1        0.0040
      9  C          5.8220    1.1970   -0.3620 C.2     1  UNL1        0.0040
     10  C          6.0870   -0.8160    1.4230 C.2     1  UNL1        0.0000
     11  C          5.3020    1.3770    0.9040 C.2     1  UNL1        0.0000
     12  C          5.4490    0.3340    1.7980 C.2     1  UNL1        0.0000
@<TRIPOS>BOND
     1     4     5    1
     2     4     2    1
     3     3     2    2
     4     2     1    1
     5     6     1    1
     6     6     7    1
     7     7     9    2
     8     7     8    1
     9     9    11    1
    10     8    10    2
    11    11    12    2
    12    10    12    1
