@<TRIPOS>MOLECULE
/home/cewinharhar/GITHUB/reincatalyze/data/processed/docking_pred/2023-Apr-25-1829_maxeplen10_maxtrainstep200_exh32_gamma099_lrac3e-4_lrcr1e-3/67ebe37560d6b2ff0daae954040d2bc7ae74be81_ligand_2.pdbqt
 12 12 0 0 0
SMALL
GASTEIGER

@<TRIPOS>ATOM
      1  C          5.0060    1.7600    0.7290 C.3     1  UNL1        0.1270
      2  C          4.4690    1.1000    1.9320 C.2     1  UNL1        0.3030
      3  O          5.1440    0.1960    2.4780 O.2     1  UNL1       -0.2520
      4  O          3.2450    1.4580    2.4640 O.3     1  UNL1       -0.4810
      5  H          2.4290    0.8200    2.5040 H       1  UNL1        0.2960
      6  C          6.5270    1.6850    0.8180 C.3     1  UNL1        0.0470
      7  C          7.1110    0.9180   -0.2960 C.2     1  UNL1       -0.0470
      8  C          8.4140    1.2120   -0.6790 C.2     1  UNL1        0.0040
      9  C          6.4640   -0.0680   -0.9950 C.2     1  UNL1        0.0040
     10  C          8.9990    0.5130   -1.7330 C.2     1  UNL1        0.0000
     11  C          7.0170   -0.7790   -2.0420 C.2     1  UNL1        0.0000
     12  C          8.3130   -0.4640   -2.4010 C.2     1  UNL1        0.0000
@<TRIPOS>BOND
     1    12    11    2
     2    12    10    1
     3    11     9    1
     4    10     8    2
     5     9     7    2
     6     8     7    1
     7     7     6    1
     8     1     6    1
     9     1     2    1
    10     2     4    1
    11     2     3    2
    12     4     5    1
