@<TRIPOS>MOLECULE
/home/cewinharhar/GITHUB/reincatalyze/data/processed/docking_pred/2023-Apr-25-1829_maxeplen10_maxtrainstep200_exh32_gamma099_lrac3e-4_lrcr1e-3/67ebe37560d6b2ff0daae954040d2bc7ae74be81_ligand_2.pdbqt
 12 12 0 0 0
SMALL
GASTEIGER

@<TRIPOS>ATOM
      1  C          8.4170   -0.6900   -2.0990 C.3     1  UNL1        0.1270
      2  C          8.3900   -1.9360   -2.8840 C.2     1  UNL1        0.3030
      3  O          7.2830   -2.3920   -3.2570 O.2     1  UNL1       -0.2520
      4  O          9.5530   -2.6040   -3.2160 O.3     1  UNL1       -0.4810
      5  H         10.0690   -3.2160   -2.5580 H       1  UNL1        0.2960
      6  C          6.9950   -0.1420   -2.0770 C.3     1  UNL1        0.0470
      7  C          6.4650   -0.0260   -0.7070 C.2     1  UNL1       -0.0470
      8  C          5.8130    1.1500   -0.3560 C.2     1  UNL1        0.0040
      9  C          6.5680   -0.9930    0.2590 C.2     1  UNL1        0.0040
     10  C          5.3040    1.3000    0.9330 C.2     1  UNL1        0.0000
     11  C          6.0740   -0.8750    1.5430 C.2     1  UNL1        0.0000
     12  C          5.4330    0.3050    1.8640 C.2     1  UNL1        0.0000
@<TRIPOS>BOND
     1     3     2    2
     2     4     2    1
     3     4     5    1
     4     2     1    1
     5     1     6    1
     6     6     7    1
     7     7     8    2
     8     7     9    1
     9     8    10    1
    10     9    11    2
    11    10    12    2
    12    11    12    1
