@<TRIPOS>MOLECULE
/home/cewinharhar/GITHUB/reincatalyze/data/processed/docking_pred/2023-Apr-25-1829_maxeplen10_maxtrainstep200_exh32_gamma099_lrac3e-4_lrcr1e-3/67ebe37560d6b2ff0daae954040d2bc7ae74be81_ligand_2.pdbqt
 12 12 0 0 0
SMALL
GASTEIGER

@<TRIPOS>ATOM
      1  C          7.9290   -2.2530    0.8200 C.3     1  UNL1        0.1270
      2  C          8.7420   -3.3680    0.3040 C.2     1  UNL1        0.3030
      3  O          9.6080   -3.8810    1.0510 O.2     1  UNL1       -0.2520
      4  O          8.5670   -3.8540   -0.9780 O.3     1  UNL1       -0.4810
      5  H          7.7270   -3.6610   -1.5540 H       1  UNL1        0.2960
      6  C          7.4420   -1.4580   -0.3870 C.3     1  UNL1        0.0470
      7  C          6.5900   -0.3210    0.0040 C.2     1  UNL1       -0.0470
      8  C          6.0640   -0.3100    1.2900 C.2     1  UNL1        0.0040
      9  C          6.2690    0.7350   -0.8090 C.2     1  UNL1        0.0040
     10  C          5.2490    0.7460    1.6950 C.2     1  UNL1        0.0000
     11  C          5.4650    1.7950   -0.4380 C.2     1  UNL1        0.0000
     12  C          4.9550    1.7780    0.8460 C.2     1  UNL1        0.0000
@<TRIPOS>BOND
     1     5     4    1
     2     4     2    1
     3     9    11    1
     4     9     7    2
     5    11    12    2
     6     6     7    1
     7     6     1    1
     8     7     8    1
     9     2     1    1
    10     2     3    2
    11    12    10    1
    12     8    10    2
