MODEL 1
REMARK VINA RESULT:      -7.3      0.000      0.000
REMARK SMILES O=C(O)CCc1ccccc1
REMARK SMILES IDX 4 1 2 2 1 3 3 4 5 6 6 7 7 8 11 9 8 10 10 11 9 12
REMARK H PARENT 3 5
REMARK Flexibility Score: inf
ROOT
ATOM      1  C   UNL     1       8.447  -0.677  -2.100  1.00  0.00     0.127 C 
ENDROOT
BRANCH   1   2
ATOM      2  C   UNL     1       8.462  -1.917  -2.895  1.00  0.00     0.303 C 
ATOM      3  O   UNL     1       9.557  -2.492  -3.098  1.00  0.00    -0.252 OA
BRANCH   2   4
ATOM      4  O   UNL     1       7.299  -2.452  -3.415  1.00  0.00    -0.481 OA
ATOM      5  H   UNL     1       7.055  -3.458  -3.356  1.00  0.00     0.296 HD
ENDBRANCH   2   4
ENDBRANCH   1   2
BRANCH   1   6
ATOM      6  C   UNL     1       7.021  -0.138  -2.136  1.00  0.00     0.047 C 
BRANCH   6   7
ATOM      7  C   UNL     1       6.469   0.064  -0.785  1.00  0.00    -0.047 A 
ATOM      8  C   UNL     1       6.602  -0.967   0.137  1.00  0.00     0.004 A 
ATOM      9  C   UNL     1       5.822   1.197  -0.362  1.00  0.00     0.004 A 
ATOM     10  C   UNL     1       6.087  -0.816   1.423  1.00  0.00     0.000 A 
ATOM     11  C   UNL     1       5.302   1.377   0.904  1.00  0.00     0.000 A 
ATOM     12  C   UNL     1       5.449   0.334   1.798  1.00  0.00     0.000 A 
ENDBRANCH   6   7
ENDBRANCH   1   6
TORSDOF 4
ENDMDL
MODEL 2
REMARK VINA RESULT:      -7.2      0.108      1.729
REMARK SMILES O=C(O)CCc1ccccc1
REMARK SMILES IDX 4 1 2 2 1 3 3 4 5 6 6 7 7 8 11 9 8 10 10 11 9 12
REMARK H PARENT 3 5
REMARK Flexibility Score: inf
ROOT
ATOM      1  C   UNL     1       8.417  -0.690  -2.099  1.00  0.00     0.127 C 
ENDROOT
BRANCH   1   2
ATOM      2  C   UNL     1       8.390  -1.936  -2.884  1.00  0.00     0.303 C 
ATOM      3  O   UNL     1       7.283  -2.392  -3.257  1.00  0.00    -0.252 OA
BRANCH   2   4
ATOM      4  O   UNL     1       9.553  -2.604  -3.216  1.00  0.00    -0.481 OA
ATOM      5  H   UNL     1      10.069  -3.216  -2.558  1.00  0.00     0.296 HD
ENDBRANCH   2   4
ENDBRANCH   1   2
BRANCH   1   6
ATOM      6  C   UNL     1       6.995  -0.142  -2.077  1.00  0.00     0.047 C 
BRANCH   6   7
ATOM      7  C   UNL     1       6.465  -0.026  -0.707  1.00  0.00    -0.047 A 
ATOM      8  C   UNL     1       5.813   1.150  -0.356  1.00  0.00     0.004 A 
ATOM      9  C   UNL     1       6.568  -0.993   0.259  1.00  0.00     0.004 A 
ATOM     10  C   UNL     1       5.304   1.300   0.933  1.00  0.00     0.000 A 
ATOM     11  C   UNL     1       6.074  -0.875   1.543  1.00  0.00     0.000 A 
ATOM     12  C   UNL     1       5.433   0.305   1.864  1.00  0.00     0.000 A 
ENDBRANCH   6   7
ENDBRANCH   1   6
TORSDOF 4
ENDMDL
MODEL 3
REMARK VINA RESULT:      -7.2      0.593      1.583
REMARK SMILES O=C(O)CCc1ccccc1
REMARK SMILES IDX 4 1 2 2 1 3 3 4 5 6 6 7 7 8 11 9 8 10 10 11 9 12
REMARK H PARENT 3 5
REMARK Flexibility Score: inf
ROOT
ATOM      1  C   UNL     1       8.255  -0.899  -1.922  1.00  0.00     0.127 C 
ENDROOT
BRANCH   1   2
ATOM      2  C   UNL     1       8.383  -2.007  -2.884  1.00  0.00     0.303 C 
ATOM      3  O   UNL     1       9.521  -2.480  -3.115  1.00  0.00    -0.252 OA
BRANCH   2   4
ATOM      4  O   UNL     1       7.279  -2.531  -3.530  1.00  0.00    -0.481 OA
ATOM      5  H   UNL     1       6.868  -3.455  -3.305  1.00  0.00     0.296 HD
ENDBRANCH   2   4
ENDBRANCH   1   2
BRANCH   1   6
ATOM      6  C   UNL     1       7.485  -1.436  -0.721  1.00  0.00     0.047 C 
BRANCH   6   7
ATOM      7  C   UNL     1       6.626  -0.408  -0.107  1.00  0.00    -0.047 A 
ATOM      8  C   UNL     1       6.285   0.701  -0.872  1.00  0.00     0.004 A 
ATOM      9  C   UNL     1       6.136  -0.456   1.173  1.00  0.00     0.004 A 
ATOM     10  C   UNL     1       5.479   1.698  -0.324  1.00  0.00     0.000 A 
ATOM     11  C   UNL     1       5.336   0.515   1.743  1.00  0.00     0.000 A 
ATOM     12  C   UNL     1       5.015   1.606   0.959  1.00  0.00     0.000 A 
ENDBRANCH   6   7
ENDBRANCH   1   6
TORSDOF 4
ENDMDL
MODEL 4
REMARK VINA RESULT:      -6.8      3.372      5.099
REMARK SMILES O=C(O)CCc1ccccc1
REMARK SMILES IDX 4 1 2 2 1 3 3 4 5 6 6 7 7 8 11 9 8 10 10 11 9 12
REMARK H PARENT 3 5
REMARK Flexibility Score: inf
ROOT
ATOM      1  C   UNL     1       5.006   1.760   0.729  1.00  0.00     0.127 C 
ENDROOT
BRANCH   1   2
ATOM      2  C   UNL     1       4.469   1.100   1.932  1.00  0.00     0.303 C 
ATOM      3  O   UNL     1       5.144   0.196   2.478  1.00  0.00    -0.252 OA
BRANCH   2   4
ATOM      4  O   UNL     1       3.245   1.458   2.464  1.00  0.00    -0.481 OA
ATOM      5  H   UNL     1       2.429   0.820   2.504  1.00  0.00     0.296 HD
ENDBRANCH   2   4
ENDBRANCH   1   2
BRANCH   1   6
ATOM      6  C   UNL     1       6.527   1.685   0.818  1.00  0.00     0.047 C 
BRANCH   6   7
ATOM      7  C   UNL     1       7.111   0.918  -0.296  1.00  0.00    -0.047 A 
ATOM      8  C   UNL     1       8.414   1.212  -0.679  1.00  0.00     0.004 A 
ATOM      9  C   UNL     1       6.464  -0.068  -0.995  1.00  0.00     0.004 A 
ATOM     10  C   UNL     1       8.999   0.513  -1.733  1.00  0.00     0.000 A 
ATOM     11  C   UNL     1       7.017  -0.779  -2.042  1.00  0.00     0.000 A 
ATOM     12  C   UNL     1       8.313  -0.464  -2.401  1.00  0.00     0.000 A 
ENDBRANCH   6   7
ENDBRANCH   1   6
TORSDOF 4
ENDMDL
MODEL 5
REMARK VINA RESULT:      -6.6      2.003      2.509
REMARK SMILES O=C(O)CCc1ccccc1
REMARK SMILES IDX 4 1 2 2 1 3 3 4 5 6 6 7 7 8 11 9 8 10 10 11 9 12
REMARK H PARENT 3 5
REMARK Flexibility Score: inf
ROOT
ATOM      1  C   UNL     1       7.929  -2.253   0.820  1.00  0.00     0.127 C 
ENDROOT
BRANCH   1   2
ATOM      2  C   UNL     1       8.742  -3.368   0.304  1.00  0.00     0.303 C 
ATOM      3  O   UNL     1       9.608  -3.881   1.051  1.00  0.00    -0.252 OA
BRANCH   2   4
ATOM      4  O   UNL     1       8.567  -3.854  -0.978  1.00  0.00    -0.481 OA
ATOM      5  H   UNL     1       7.727  -3.661  -1.554  1.00  0.00     0.296 HD
ENDBRANCH   2   4
ENDBRANCH   1   2
BRANCH   1   6
ATOM      6  C   UNL     1       7.442  -1.458  -0.387  1.00  0.00     0.047 C 
BRANCH   6   7
ATOM      7  C   UNL     1       6.590  -0.321   0.004  1.00  0.00    -0.047 A 
ATOM      8  C   UNL     1       6.064  -0.310   1.290  1.00  0.00     0.004 A 
ATOM      9  C   UNL     1       6.269   0.735  -0.809  1.00  0.00     0.004 A 
ATOM     10  C   UNL     1       5.249   0.746   1.695  1.00  0.00     0.000 A 
ATOM     11  C   UNL     1       5.465   1.795  -0.438  1.00  0.00     0.000 A 
ATOM     12  C   UNL     1       4.955   1.778   0.846  1.00  0.00     0.000 A 
ENDBRANCH   6   7
ENDBRANCH   1   6
TORSDOF 4
ENDMDL
