@<TRIPOS>MOLECULE
/home/cewinharhar/GITHUB/reincatalyze/data/processed/docking_pred/2023-Apr-25-1829_maxeplen10_maxtrainstep200_exh32_gamma099_lrac3e-4_lrcr1e-3/6d158fe290fd5017d73aec191e5eef2bb245b649_ligand_2.pdbqt
 12 12 0 0 0
SMALL
GASTEIGER

@<TRIPOS>ATOM
      1  C          5.4480    2.9080    0.0250 C.3     1  UNL1        0.1270
      2  C          6.2410    3.8560    0.8260 C.2     1  UNL1        0.3030
      3  O          6.8640    4.7710    0.2390 O.2     1  UNL1       -0.2520
      4  O          6.3080    3.7550    2.2030 O.3     1  UNL1       -0.4810
      5  H          7.1970    3.6600    2.7280 H       1  UNL1        0.2960
      6  C          4.9230    1.8430    0.9810 C.3     1  UNL1        0.0470
      7  C          5.7250    0.6080    0.9330 C.2     1  UNL1       -0.0470
      8  C          5.7850   -0.1790    2.0770 C.2     1  UNL1        0.0040
      9  C          6.4300    0.1720   -0.1600 C.2     1  UNL1        0.0040
     10  C          6.5390   -1.3510    2.0720 C.2     1  UNL1        0.0000
     11  C          7.1850   -0.9840   -0.1960 C.2     1  UNL1        0.0000
     12  C          7.2260   -1.7440    0.9570 C.2     1  UNL1        0.0000
@<TRIPOS>BOND
     1    11     9    1
     2    11    12    2
     3     9     7    2
     4     1     2    1
     5     1     6    1
     6     3     2    2
     7     2     4    1
     8     7     6    1
     9     7     8    1
    10    12    10    1
    11    10     8    2
    12     4     5    1
