@<TRIPOS>MOLECULE
/home/cewinharhar/GITHUB/reincatalyze/data/processed/docking_pred/2023-Apr-25-1829_maxeplen10_maxtrainstep200_exh32_gamma099_lrac3e-4_lrcr1e-3/6d158fe290fd5017d73aec191e5eef2bb245b649_ligand_2.pdbqt
 12 12 0 0 0
SMALL
GASTEIGER

@<TRIPOS>ATOM
      1  C          8.4660   -0.6120   -2.1760 C.3     1  UNL1        0.1270
      2  C          8.4710   -1.8840   -2.9190 C.2     1  UNL1        0.3030
      3  O          9.5600   -2.4820   -3.0880 O.2     1  UNL1       -0.2520
      4  O          7.3060   -2.4260   -3.4270 O.3     1  UNL1       -0.4810
      5  H          6.4200   -1.8950   -3.5180 H       1  UNL1        0.2960
      6  C          7.0240   -0.1170   -2.1440 C.3     1  UNL1        0.0470
      7  C          6.5020   -0.0160   -0.7700 C.2     1  UNL1       -0.0470
      8  C          5.8780    1.1670   -0.3930 C.2     1  UNL1        0.0040
      9  C          6.5880   -1.0040    0.1770 C.2     1  UNL1        0.0040
     10  C          5.3770    1.3030    0.9000 C.2     1  UNL1        0.0000
     11  C          6.1020   -0.8990    1.4650 C.2     1  UNL1        0.0000
     12  C          5.4880    0.2880    1.8110 C.2     1  UNL1        0.0000
@<TRIPOS>BOND
     1     5     4    1
     2     4     2    1
     3     3     2    2
     4     2     1    1
     5     1     6    1
     6     6     7    1
     7     7     8    2
     8     7     9    1
     9     8    10    1
    10     9    11    2
    11    10    12    2
    12    11    12    1
