@<TRIPOS>MOLECULE
/home/cewinharhar/GITHUB/reincatalyze/data/processed/docking_pred/2023-Apr-25-1829_maxeplen10_maxtrainstep200_exh32_gamma099_lrac3e-4_lrcr1e-3/6d158fe290fd5017d73aec191e5eef2bb245b649_ligand_2.pdbqt
 12 12 0 0 0
SMALL
GASTEIGER

@<TRIPOS>ATOM
      1  C          8.4470   -0.7100   -2.0700 C.3     1  UNL1        0.1270
      2  C          8.4090   -1.9450   -2.8730 C.2     1  UNL1        0.3030
      3  O          7.2960   -2.4010   -3.2290 O.2     1  UNL1       -0.2520
      4  O          9.5680   -2.6020   -3.2380 O.3     1  UNL1       -0.4810
      5  H          9.8980   -3.4750   -2.7850 H       1  UNL1        0.2960
      6  C          7.0660   -0.0720   -2.1640 C.3     1  UNL1        0.0470
      7  C          6.4740    0.1690   -0.8360 C.2     1  UNL1       -0.0470
      8  C          6.6330   -0.8100    0.1380 C.2     1  UNL1        0.0040
      9  C          5.7660    1.2890   -0.4830 C.2     1  UNL1        0.0040
     10  C          6.0820   -0.6210    1.4040 C.2     1  UNL1        0.0000
     11  C          5.2090    1.5050    0.7620 C.2     1  UNL1        0.0000
     12  C          5.3830    0.5150    1.7090 C.2     1  UNL1        0.0000
@<TRIPOS>BOND
     1     4     2    1
     2     4     5    1
     3     3     2    2
     4     2     1    1
     5     6     1    1
     6     6     7    1
     7     7     9    2
     8     7     8    1
     9     9    11    1
    10     8    10    2
    11    11    12    2
    12    10    12    1
