@<TRIPOS>MOLECULE
/home/cewinharhar/GITHUB/reincatalyze/data/processed/docking_pred/2023-Apr-25-1829_maxeplen10_maxtrainstep200_exh32_gamma099_lrac3e-4_lrcr1e-3/6d158fe290fd5017d73aec191e5eef2bb245b649_ligand_2.pdbqt
 12 12 0 0 0
SMALL
GASTEIGER

@<TRIPOS>ATOM
      1  C          7.8830   -2.3060    0.8310 C.3     1  UNL1        0.1270
      2  C          8.7390   -3.3900    0.3170 C.2     1  UNL1        0.3030
      3  O          9.6280   -3.8640    1.0630 O.2     1  UNL1       -0.2520
      4  O          8.5780   -3.8900   -0.9610 O.3     1  UNL1       -0.4810
      5  H          8.9340   -4.8160   -1.2630 H       1  UNL1        0.2960
      6  C          7.5340   -1.4120   -0.3540 C.3     1  UNL1        0.0470
      7  C          6.6440   -0.3020    0.0310 C.2     1  UNL1       -0.0470
      8  C          6.1010   -0.3130    1.3100 C.2     1  UNL1        0.0040
      9  C          6.3020    0.7480   -0.7820 C.2     1  UNL1        0.0040
     10  C          5.2500    0.7160    1.7090 C.2     1  UNL1        0.0000
     11  C          5.4620    1.7810   -0.4160 C.2     1  UNL1        0.0000
     12  C          4.9370    1.7430    0.8610 C.2     1  UNL1        0.0000
@<TRIPOS>BOND
     1     5     4    1
     2     4     2    1
     3     9    11    1
     4     9     7    2
     5    11    12    2
     6     6     7    1
     7     6     1    1
     8     7     8    1
     9     2     1    1
    10     2     3    2
    11    12    10    1
    12     8    10    2
