MODEL 1
REMARK VINA RESULT:      -7.3      0.000      0.000
REMARK SMILES O=C(O)CCc1ccccc1
REMARK SMILES IDX 4 1 2 2 1 3 3 4 5 6 6 7 7 8 11 9 8 10 10 11 9 12
REMARK H PARENT 3 5
REMARK Flexibility Score: inf
ROOT
ATOM      1  C   UNL     1       8.466  -0.612  -2.176  1.00  0.00     0.127 C 
ENDROOT
BRANCH   1   2
ATOM      2  C   UNL     1       8.471  -1.884  -2.919  1.00  0.00     0.303 C 
ATOM      3  O   UNL     1       9.560  -2.482  -3.088  1.00  0.00    -0.252 OA
BRANCH   2   4
ATOM      4  O   UNL     1       7.306  -2.426  -3.427  1.00  0.00    -0.481 OA
ATOM      5  H   UNL     1       6.420  -1.895  -3.518  1.00  0.00     0.296 HD
ENDBRANCH   2   4
ENDBRANCH   1   2
BRANCH   1   6
ATOM      6  C   UNL     1       7.024  -0.117  -2.144  1.00  0.00     0.047 C 
BRANCH   6   7
ATOM      7  C   UNL     1       6.502  -0.016  -0.770  1.00  0.00    -0.047 A 
ATOM      8  C   UNL     1       5.878   1.167  -0.393  1.00  0.00     0.004 A 
ATOM      9  C   UNL     1       6.588  -1.004   0.177  1.00  0.00     0.004 A 
ATOM     10  C   UNL     1       5.377   1.303   0.900  1.00  0.00     0.000 A 
ATOM     11  C   UNL     1       6.102  -0.899   1.465  1.00  0.00     0.000 A 
ATOM     12  C   UNL     1       5.488   0.288   1.811  1.00  0.00     0.000 A 
ENDBRANCH   6   7
ENDBRANCH   1   6
TORSDOF 4
ENDMDL
MODEL 2
REMARK VINA RESULT:      -7.2      0.207      1.736
REMARK SMILES O=C(O)CCc1ccccc1
REMARK SMILES IDX 4 1 2 2 1 3 3 4 5 6 6 7 7 8 11 9 8 10 10 11 9 12
REMARK H PARENT 3 5
REMARK Flexibility Score: inf
ROOT
ATOM      1  C   UNL     1       8.447  -0.710  -2.070  1.00  0.00     0.127 C 
ENDROOT
BRANCH   1   2
ATOM      2  C   UNL     1       8.409  -1.945  -2.873  1.00  0.00     0.303 C 
ATOM      3  O   UNL     1       7.296  -2.401  -3.229  1.00  0.00    -0.252 OA
BRANCH   2   4
ATOM      4  O   UNL     1       9.568  -2.602  -3.238  1.00  0.00    -0.481 OA
ATOM      5  H   UNL     1       9.898  -3.475  -2.785  1.00  0.00     0.296 HD
ENDBRANCH   2   4
ENDBRANCH   1   2
BRANCH   1   6
ATOM      6  C   UNL     1       7.066  -0.072  -2.164  1.00  0.00     0.047 C 
BRANCH   6   7
ATOM      7  C   UNL     1       6.474   0.169  -0.836  1.00  0.00    -0.047 A 
ATOM      8  C   UNL     1       6.633  -0.810   0.138  1.00  0.00     0.004 A 
ATOM      9  C   UNL     1       5.766   1.289  -0.483  1.00  0.00     0.004 A 
ATOM     10  C   UNL     1       6.082  -0.621   1.404  1.00  0.00     0.000 A 
ATOM     11  C   UNL     1       5.209   1.505   0.762  1.00  0.00     0.000 A 
ATOM     12  C   UNL     1       5.383   0.515   1.709  1.00  0.00     0.000 A 
ENDBRANCH   6   7
ENDBRANCH   1   6
TORSDOF 4
ENDMDL
MODEL 3
REMARK VINA RESULT:      -6.8      3.371      5.060
REMARK SMILES O=C(O)CCc1ccccc1
REMARK SMILES IDX 4 1 2 2 1 3 3 4 5 6 6 7 7 8 11 9 8 10 10 11 9 12
REMARK H PARENT 3 5
REMARK Flexibility Score: inf
ROOT
ATOM      1  C   UNL     1       4.980   1.783   0.685  1.00  0.00     0.127 C 
ENDROOT
BRANCH   1   2
ATOM      2  C   UNL     1       4.480   1.122   1.904  1.00  0.00     0.303 C 
ATOM      3  O   UNL     1       5.186   0.239   2.446  1.00  0.00    -0.252 OA
BRANCH   2   4
ATOM      4  O   UNL     1       3.259   1.457   2.455  1.00  0.00    -0.481 OA
ATOM      5  H   UNL     1       2.396   1.594   1.897  1.00  0.00     0.296 HD
ENDBRANCH   2   4
ENDBRANCH   1   2
BRANCH   1   6
ATOM      6  C   UNL     1       6.502   1.770   0.761  1.00  0.00     0.047 C 
BRANCH   6   7
ATOM      7  C   UNL     1       7.107   0.993  -0.335  1.00  0.00    -0.047 A 
ATOM      8  C   UNL     1       8.443   1.223  -0.640  1.00  0.00     0.004 A 
ATOM      9  C   UNL     1       6.449   0.055  -1.088  1.00  0.00     0.004 A 
ATOM     10  C   UNL     1       9.048   0.511  -1.674  1.00  0.00     0.000 A 
ATOM     11  C   UNL     1       7.020  -0.666  -2.118  1.00  0.00     0.000 A 
ATOM     12  C   UNL     1       8.349  -0.415  -2.399  1.00  0.00     0.000 A 
ENDBRANCH   6   7
ENDBRANCH   1   6
TORSDOF 4
ENDMDL
MODEL 4
REMARK VINA RESULT:      -6.6      3.817      4.982
REMARK SMILES O=C(O)CCc1ccccc1
REMARK SMILES IDX 4 1 2 2 1 3 3 4 5 6 6 7 7 8 11 9 8 10 10 11 9 12
REMARK H PARENT 3 5
REMARK Flexibility Score: inf
ROOT
ATOM      1  C   UNL     1       5.448   2.908   0.025  1.00  0.00     0.127 C 
ENDROOT
BRANCH   1   2
ATOM      2  C   UNL     1       6.241   3.856   0.826  1.00  0.00     0.303 C 
ATOM      3  O   UNL     1       6.864   4.771   0.239  1.00  0.00    -0.252 OA
BRANCH   2   4
ATOM      4  O   UNL     1       6.308   3.755   2.203  1.00  0.00    -0.481 OA
ATOM      5  H   UNL     1       7.197   3.660   2.728  1.00  0.00     0.296 HD
ENDBRANCH   2   4
ENDBRANCH   1   2
BRANCH   1   6
ATOM      6  C   UNL     1       4.923   1.843   0.981  1.00  0.00     0.047 C 
BRANCH   6   7
ATOM      7  C   UNL     1       5.725   0.608   0.933  1.00  0.00    -0.047 A 
ATOM      8  C   UNL     1       5.785  -0.179   2.077  1.00  0.00     0.004 A 
ATOM      9  C   UNL     1       6.430   0.172  -0.160  1.00  0.00     0.004 A 
ATOM     10  C   UNL     1       6.539  -1.351   2.072  1.00  0.00     0.000 A 
ATOM     11  C   UNL     1       7.185  -0.984  -0.196  1.00  0.00     0.000 A 
ATOM     12  C   UNL     1       7.226  -1.744   0.957  1.00  0.00     0.000 A 
ENDBRANCH   6   7
ENDBRANCH   1   6
TORSDOF 4
ENDMDL
MODEL 5
REMARK VINA RESULT:      -6.6      2.015      2.774
REMARK SMILES O=C(O)CCc1ccccc1
REMARK SMILES IDX 4 1 2 2 1 3 3 4 5 6 6 7 7 8 11 9 8 10 10 11 9 12
REMARK H PARENT 3 5
REMARK Flexibility Score: inf
ROOT
ATOM      1  C   UNL     1       7.883  -2.306   0.831  1.00  0.00     0.127 C 
ENDROOT
BRANCH   1   2
ATOM      2  C   UNL     1       8.739  -3.390   0.317  1.00  0.00     0.303 C 
ATOM      3  O   UNL     1       9.628  -3.864   1.063  1.00  0.00    -0.252 OA
BRANCH   2   4
ATOM      4  O   UNL     1       8.578  -3.890  -0.961  1.00  0.00    -0.481 OA
ATOM      5  H   UNL     1       8.934  -4.816  -1.263  1.00  0.00     0.296 HD
ENDBRANCH   2   4
ENDBRANCH   1   2
BRANCH   1   6
ATOM      6  C   UNL     1       7.534  -1.412  -0.354  1.00  0.00     0.047 C 
BRANCH   6   7
ATOM      7  C   UNL     1       6.644  -0.302   0.031  1.00  0.00    -0.047 A 
ATOM      8  C   UNL     1       6.101  -0.313   1.310  1.00  0.00     0.004 A 
ATOM      9  C   UNL     1       6.302   0.748  -0.782  1.00  0.00     0.004 A 
ATOM     10  C   UNL     1       5.250   0.716   1.709  1.00  0.00     0.000 A 
ATOM     11  C   UNL     1       5.462   1.781  -0.416  1.00  0.00     0.000 A 
ATOM     12  C   UNL     1       4.937   1.743   0.861  1.00  0.00     0.000 A 
ENDBRANCH   6   7
ENDBRANCH   1   6
TORSDOF 4
ENDMDL
