@<TRIPOS>MOLECULE
/home/cewinharhar/GITHUB/reincatalyze/data/processed/docking_pred/2023-Apr-25-1829_maxeplen10_maxtrainstep200_exh32_gamma099_lrac3e-4_lrcr1e-3/6d158fe290fd5017d73aec191e5eef2bb245b649_ligand_2.pdbqt
 12 12 0 0 0
SMALL
GASTEIGER

@<TRIPOS>ATOM
      1  C          4.9800    1.7830    0.6850 C.3     1  UNL1        0.1270
      2  C          4.4800    1.1220    1.9040 C.2     1  UNL1        0.3030
      3  O          5.1860    0.2390    2.4460 O.2     1  UNL1       -0.2520
      4  O          3.2590    1.4570    2.4550 O.3     1  UNL1       -0.4810
      5  H          2.3960    1.5940    1.8970 H       1  UNL1        0.2960
      6  C          6.5020    1.7700    0.7610 C.3     1  UNL1        0.0470
      7  C          7.1070    0.9930   -0.3350 C.2     1  UNL1       -0.0470
      8  C          8.4430    1.2230   -0.6400 C.2     1  UNL1        0.0040
      9  C          6.4490    0.0550   -1.0880 C.2     1  UNL1        0.0040
     10  C          9.0480    0.5110   -1.6740 C.2     1  UNL1        0.0000
     11  C          7.0200   -0.6660   -2.1180 C.2     1  UNL1        0.0000
     12  C          8.3490   -0.4150   -2.3990 C.2     1  UNL1        0.0000
@<TRIPOS>BOND
     1    12    11    2
     2    12    10    1
     3    11     9    1
     4    10     8    2
     5     9     7    2
     6     8     7    1
     7     7     6    1
     8     1     6    1
     9     1     2    1
    10     5     4    1
    11     2     3    2
    12     2     4    1
