@<TRIPOS>MOLECULE
/home/cewinharhar/GITHUB/reincatalyze/data/processed/docking_pred/2023-Apr-25-1829_maxeplen10_maxtrainstep200_exh32_gamma099_lrac3e-4_lrcr1e-3/6dc168e099aae66a1c19408847f7f9495b2b5216_ligand_2.pdbqt
 12 12 0 0 0
SMALL
GASTEIGER

@<TRIPOS>ATOM
      1  C          5.4560    2.8930    0.0210 C.3     1  UNL1        0.1270
      2  C          6.2480    3.8310    0.8360 C.2     1  UNL1        0.3030
      3  O          6.8440    4.7740    0.2650 O.2     1  UNL1       -0.2520
      4  O          6.3420    3.6900    2.2070 O.3     1  UNL1       -0.4810
      5  H          6.8130    4.3780    2.8230 H       1  UNL1        0.2960
      6  C          4.9100    1.8280    0.9660 C.3     1  UNL1        0.0470
      7  C          5.7160    0.5950    0.9390 C.2     1  UNL1       -0.0470
      8  C          5.7660   -0.1780    2.0930 C.2     1  UNL1        0.0040
      9  C          6.4320    0.1480   -0.1410 C.2     1  UNL1        0.0040
     10  C          6.5230   -1.3480    2.1080 C.2     1  UNL1        0.0000
     11  C          7.1900   -1.0050   -0.1570 C.2     1  UNL1        0.0000
     12  C          7.2220   -1.7530    1.0040 C.2     1  UNL1        0.0000
@<TRIPOS>BOND
     1    11     9    1
     2    11    12    2
     3     9     7    2
     4     1     2    1
     5     1     6    1
     6     3     2    2
     7     2     4    1
     8     7     6    1
     9     7     8    1
    10    12    10    1
    11     8    10    2
    12     4     5    1
