@<TRIPOS>MOLECULE
/home/cewinharhar/GITHUB/reincatalyze/data/processed/docking_pred/2023-Apr-25-1829_maxeplen10_maxtrainstep200_exh32_gamma099_lrac3e-4_lrcr1e-3/6dc168e099aae66a1c19408847f7f9495b2b5216_ligand_2.pdbqt
 12 12 0 0 0
SMALL
GASTEIGER

@<TRIPOS>ATOM
      1  C          8.4660   -0.5990   -2.1950 C.3     1  UNL1        0.1270
      2  C          8.4670   -1.8800   -2.9230 C.2     1  UNL1        0.3030
      3  O          9.5560   -2.4770   -3.0960 O.2     1  UNL1       -0.2520
      4  O          7.2980   -2.4300   -3.4140 O.3     1  UNL1       -0.4810
      5  H          6.7910   -3.2060   -2.9490 H       1  UNL1        0.2960
      6  C          7.0250   -0.1010   -2.1660 C.3     1  UNL1        0.0470
      7  C          6.5000    0.0010   -0.7930 C.2     1  UNL1       -0.0470
      8  C          5.8770    1.1850   -0.4180 C.2     1  UNL1        0.0040
      9  C          6.5830   -0.9870    0.1540 C.2     1  UNL1        0.0040
     10  C          5.3730    1.3210    0.8750 C.2     1  UNL1        0.0000
     11  C          6.0940   -0.8820    1.4410 C.2     1  UNL1        0.0000
     12  C          5.4810    0.3070    1.7860 C.2     1  UNL1        0.0000
@<TRIPOS>BOND
     1     4     5    1
     2     4     2    1
     3     3     2    2
     4     2     1    1
     5     1     6    1
     6     6     7    1
     7     7     8    2
     8     7     9    1
     9     8    10    1
    10     9    11    2
    11    10    12    2
    12    11    12    1
