@<TRIPOS>MOLECULE
/home/cewinharhar/GITHUB/reincatalyze/data/processed/docking_pred/2023-Apr-25-1829_maxeplen10_maxtrainstep200_exh32_gamma099_lrac3e-4_lrcr1e-3/6dc168e099aae66a1c19408847f7f9495b2b5216_ligand_2.pdbqt
 12 12 0 0 0
SMALL
GASTEIGER

@<TRIPOS>ATOM
      1  C          8.4540   -0.6280   -2.1510 C.3     1  UNL1        0.1270
      2  C          8.4750   -1.8920   -2.9080 C.2     1  UNL1        0.3030
      3  O          9.5740   -2.4650   -3.0980 O.2     1  UNL1       -0.2520
      4  O          7.3150   -2.4520   -3.4070 O.3     1  UNL1       -0.4810
      5  H          7.2670   -3.4050   -3.8120 H       1  UNL1        0.2960
      6  C          7.0180   -0.1170   -2.1730 C.3     1  UNL1        0.0470
      7  C          6.4760    0.0790   -0.8170 C.2     1  UNL1       -0.0470
      8  C          6.6140   -0.9570    0.0980 C.2     1  UNL1        0.0040
      9  C          5.8360    1.2120   -0.3830 C.2     1  UNL1        0.0040
     10  C          6.1090   -0.8120    1.3890 C.2     1  UNL1        0.0000
     11  C          5.3260    1.3860    0.8880 C.2     1  UNL1        0.0000
     12  C          5.4770    0.3380    1.7750 C.2     1  UNL1        0.0000
@<TRIPOS>BOND
     1     5     4    1
     2     4     2    1
     3     3     2    2
     4     2     1    1
     5     6     1    1
     6     6     7    1
     7     7     9    2
     8     7     8    1
     9     9    11    1
    10     8    10    2
    11    11    12    2
    12    10    12    1
