@<TRIPOS>MOLECULE
/home/cewinharhar/GITHUB/reincatalyze/data/processed/docking_pred/2023-Apr-25-1829_maxeplen10_maxtrainstep200_exh32_gamma099_lrac3e-4_lrcr1e-3/6dc168e099aae66a1c19408847f7f9495b2b5216_ligand_2.pdbqt
 12 12 0 0 0
SMALL
GASTEIGER

@<TRIPOS>ATOM
      1  C          8.1280   -0.8220   -2.0380 C.3     1  UNL1        0.1270
      2  C          8.3140   -1.9850   -2.9220 C.2     1  UNL1        0.3030
      3  O          9.4670   -2.4540   -3.0710 O.2     1  UNL1       -0.2520
      4  O          7.2480   -2.5650   -3.5830 O.3     1  UNL1       -0.4810
      5  H          6.5650   -2.0290   -4.1500 H       1  UNL1        0.2960
      6  C          7.5010   -1.3360   -0.7460 C.3     1  UNL1        0.0470
      7  C          6.6250   -0.3330   -0.1160 C.2     1  UNL1       -0.0470
      8  C          6.2730    0.7870   -0.8590 C.2     1  UNL1        0.0040
      9  C          6.1300   -0.4140    1.1610 C.2     1  UNL1        0.0040
     10  C          5.4510    1.7610   -0.2950 C.2     1  UNL1        0.0000
     11  C          5.3150    0.5330    1.7470 C.2     1  UNL1        0.0000
     12  C          4.9820    1.6350    0.9840 C.2     1  UNL1        0.0000
@<TRIPOS>BOND
     1     5     4    1
     2     4     2    1
     3     3     2    2
     4     2     1    1
     5     1     6    1
     6     8    10    1
     7     8     7    2
     8     6     7    1
     9    10    12    2
    10     7     9    1
    11    12    11    1
    12     9    11    2
