MODEL 1
REMARK VINA RESULT:      -7.3      0.000      0.000
REMARK SMILES O=C(O)CCc1ccccc1
REMARK SMILES IDX 4 1 2 2 1 3 3 4 5 6 6 7 7 8 11 9 8 10 10 11 9 12
REMARK H PARENT 3 5
REMARK Flexibility Score: inf
ROOT
ATOM      1  C   UNL     1       8.454  -0.628  -2.151  1.00  0.00     0.127 C 
ENDROOT
BRANCH   1   2
ATOM      2  C   UNL     1       8.475  -1.892  -2.908  1.00  0.00     0.303 C 
ATOM      3  O   UNL     1       9.574  -2.465  -3.098  1.00  0.00    -0.252 OA
BRANCH   2   4
ATOM      4  O   UNL     1       7.315  -2.452  -3.407  1.00  0.00    -0.481 OA
ATOM      5  H   UNL     1       7.267  -3.405  -3.812  1.00  0.00     0.296 HD
ENDBRANCH   2   4
ENDBRANCH   1   2
BRANCH   1   6
ATOM      6  C   UNL     1       7.018  -0.117  -2.173  1.00  0.00     0.047 C 
BRANCH   6   7
ATOM      7  C   UNL     1       6.476   0.079  -0.817  1.00  0.00    -0.047 A 
ATOM      8  C   UNL     1       6.614  -0.957   0.098  1.00  0.00     0.004 A 
ATOM      9  C   UNL     1       5.836   1.212  -0.383  1.00  0.00     0.004 A 
ATOM     10  C   UNL     1       6.109  -0.812   1.389  1.00  0.00     0.000 A 
ATOM     11  C   UNL     1       5.326   1.386   0.888  1.00  0.00     0.000 A 
ATOM     12  C   UNL     1       5.477   0.338   1.775  1.00  0.00     0.000 A 
ENDBRANCH   6   7
ENDBRANCH   1   6
TORSDOF 4
ENDMDL
MODEL 2
REMARK VINA RESULT:      -7.3      0.058      1.430
REMARK SMILES O=C(O)CCc1ccccc1
REMARK SMILES IDX 4 1 2 2 1 3 3 4 5 6 6 7 7 8 11 9 8 10 10 11 9 12
REMARK H PARENT 3 5
REMARK Flexibility Score: inf
ROOT
ATOM      1  C   UNL     1       8.466  -0.599  -2.195  1.00  0.00     0.127 C 
ENDROOT
BRANCH   1   2
ATOM      2  C   UNL     1       8.467  -1.880  -2.923  1.00  0.00     0.303 C 
ATOM      3  O   UNL     1       9.556  -2.477  -3.096  1.00  0.00    -0.252 OA
BRANCH   2   4
ATOM      4  O   UNL     1       7.298  -2.430  -3.414  1.00  0.00    -0.481 OA
ATOM      5  H   UNL     1       6.791  -3.206  -2.949  1.00  0.00     0.296 HD
ENDBRANCH   2   4
ENDBRANCH   1   2
BRANCH   1   6
ATOM      6  C   UNL     1       7.025  -0.101  -2.166  1.00  0.00     0.047 C 
BRANCH   6   7
ATOM      7  C   UNL     1       6.500   0.001  -0.793  1.00  0.00    -0.047 A 
ATOM      8  C   UNL     1       5.877   1.185  -0.418  1.00  0.00     0.004 A 
ATOM      9  C   UNL     1       6.583  -0.987   0.154  1.00  0.00     0.004 A 
ATOM     10  C   UNL     1       5.373   1.321   0.875  1.00  0.00     0.000 A 
ATOM     11  C   UNL     1       6.094  -0.882   1.441  1.00  0.00     0.000 A 
ATOM     12  C   UNL     1       5.481   0.307   1.786  1.00  0.00     0.000 A 
ENDBRANCH   6   7
ENDBRANCH   1   6
TORSDOF 4
ENDMDL
MODEL 3
REMARK VINA RESULT:      -7.2      0.596      1.589
REMARK SMILES O=C(O)CCc1ccccc1
REMARK SMILES IDX 4 1 2 2 1 3 3 4 5 6 6 7 7 8 11 9 8 10 10 11 9 12
REMARK H PARENT 3 5
REMARK Flexibility Score: inf
ROOT
ATOM      1  C   UNL     1       8.128  -0.822  -2.038  1.00  0.00     0.127 C 
ENDROOT
BRANCH   1   2
ATOM      2  C   UNL     1       8.314  -1.985  -2.922  1.00  0.00     0.303 C 
ATOM      3  O   UNL     1       9.467  -2.454  -3.071  1.00  0.00    -0.252 OA
BRANCH   2   4
ATOM      4  O   UNL     1       7.248  -2.565  -3.583  1.00  0.00    -0.481 OA
ATOM      5  H   UNL     1       6.565  -2.029  -4.150  1.00  0.00     0.296 HD
ENDBRANCH   2   4
ENDBRANCH   1   2
BRANCH   1   6
ATOM      6  C   UNL     1       7.501  -1.336  -0.746  1.00  0.00     0.047 C 
BRANCH   6   7
ATOM      7  C   UNL     1       6.625  -0.333  -0.116  1.00  0.00    -0.047 A 
ATOM      8  C   UNL     1       6.273   0.787  -0.859  1.00  0.00     0.004 A 
ATOM      9  C   UNL     1       6.130  -0.414   1.161  1.00  0.00     0.004 A 
ATOM     10  C   UNL     1       5.451   1.761  -0.295  1.00  0.00     0.000 A 
ATOM     11  C   UNL     1       5.315   0.533   1.747  1.00  0.00     0.000 A 
ATOM     12  C   UNL     1       4.982   1.635   0.984  1.00  0.00     0.000 A 
ENDBRANCH   6   7
ENDBRANCH   1   6
TORSDOF 4
ENDMDL
MODEL 4
REMARK VINA RESULT:      -6.8      3.379      5.080
REMARK SMILES O=C(O)CCc1ccccc1
REMARK SMILES IDX 4 1 2 2 1 3 3 4 5 6 6 7 7 8 11 9 8 10 10 11 9 12
REMARK H PARENT 3 5
REMARK Flexibility Score: inf
ROOT
ATOM      1  C   UNL     1       4.989   1.793   0.711  1.00  0.00     0.127 C 
ENDROOT
BRANCH   1   2
ATOM      2  C   UNL     1       4.470   1.127   1.919  1.00  0.00     0.303 C 
ATOM      3  O   UNL     1       5.163   0.234   2.462  1.00  0.00    -0.252 OA
BRANCH   2   4
ATOM      4  O   UNL     1       3.245   1.467   2.459  1.00  0.00    -0.481 OA
ATOM      5  H   UNL     1       2.338   1.242   2.010  1.00  0.00     0.296 HD
ENDBRANCH   2   4
ENDBRANCH   1   2
BRANCH   1   6
ATOM      6  C   UNL     1       6.509   1.805   0.824  1.00  0.00     0.047 C 
BRANCH   6   7
ATOM      7  C   UNL     1       7.154   1.096  -0.295  1.00  0.00    -0.047 A 
ATOM      8  C   UNL     1       6.370   0.258  -1.078  1.00  0.00     0.004 A 
ATOM      9  C   UNL     1       8.482   1.194  -0.625  1.00  0.00     0.004 A 
ATOM     10  C   UNL     1       6.945  -0.434  -2.142  1.00  0.00     0.000 A 
ATOM     11  C   UNL     1       9.081   0.522  -1.672  1.00  0.00     0.000 A 
ATOM     12  C   UNL     1       8.276  -0.304  -2.432  1.00  0.00     0.000 A 
ENDBRANCH   6   7
ENDBRANCH   1   6
TORSDOF 4
ENDMDL
MODEL 5
REMARK VINA RESULT:      -6.6      3.833      4.930
REMARK SMILES O=C(O)CCc1ccccc1
REMARK SMILES IDX 4 1 2 2 1 3 3 4 5 6 6 7 7 8 11 9 8 10 10 11 9 12
REMARK H PARENT 3 5
REMARK Flexibility Score: inf
ROOT
ATOM      1  C   UNL     1       5.456   2.893   0.021  1.00  0.00     0.127 C 
ENDROOT
BRANCH   1   2
ATOM      2  C   UNL     1       6.248   3.831   0.836  1.00  0.00     0.303 C 
ATOM      3  O   UNL     1       6.844   4.774   0.265  1.00  0.00    -0.252 OA
BRANCH   2   4
ATOM      4  O   UNL     1       6.342   3.690   2.207  1.00  0.00    -0.481 OA
ATOM      5  H   UNL     1       6.813   4.378   2.823  1.00  0.00     0.296 HD
ENDBRANCH   2   4
ENDBRANCH   1   2
BRANCH   1   6
ATOM      6  C   UNL     1       4.910   1.828   0.966  1.00  0.00     0.047 C 
BRANCH   6   7
ATOM      7  C   UNL     1       5.716   0.595   0.939  1.00  0.00    -0.047 A 
ATOM      8  C   UNL     1       5.766  -0.178   2.093  1.00  0.00     0.004 A 
ATOM      9  C   UNL     1       6.432   0.148  -0.141  1.00  0.00     0.004 A 
ATOM     10  C   UNL     1       6.523  -1.348   2.108  1.00  0.00     0.000 A 
ATOM     11  C   UNL     1       7.190  -1.005  -0.157  1.00  0.00     0.000 A 
ATOM     12  C   UNL     1       7.222  -1.753   1.004  1.00  0.00     0.000 A 
ENDBRANCH   6   7
ENDBRANCH   1   6
TORSDOF 4
ENDMDL
