@<TRIPOS>MOLECULE
/home/cewinharhar/GITHUB/reincatalyze/data/processed/docking_pred/2023-Apr-25-1829_maxeplen10_maxtrainstep200_exh32_gamma099_lrac3e-4_lrcr1e-3/6dc168e099aae66a1c19408847f7f9495b2b5216_ligand_2.pdbqt
 12 12 0 0 0
SMALL
GASTEIGER

@<TRIPOS>ATOM
      1  C          4.9890    1.7930    0.7110 C.3     1  UNL1        0.1270
      2  C          4.4700    1.1270    1.9190 C.2     1  UNL1        0.3030
      3  O          5.1630    0.2340    2.4620 O.2     1  UNL1       -0.2520
      4  O          3.2450    1.4670    2.4590 O.3     1  UNL1       -0.4810
      5  H          2.3380    1.2420    2.0100 H       1  UNL1        0.2960
      6  C          6.5090    1.8050    0.8240 C.3     1  UNL1        0.0470
      7  C          7.1540    1.0960   -0.2950 C.2     1  UNL1       -0.0470
      8  C          6.3700    0.2580   -1.0780 C.2     1  UNL1        0.0040
      9  C          8.4820    1.1940   -0.6250 C.2     1  UNL1        0.0040
     10  C          6.9450   -0.4340   -2.1420 C.2     1  UNL1        0.0000
     11  C          9.0810    0.5220   -1.6720 C.2     1  UNL1        0.0000
     12  C          8.2760   -0.3040   -2.4320 C.2     1  UNL1        0.0000
@<TRIPOS>BOND
     1    12    10    2
     2    12    11    1
     3    10     8    1
     4    11     9    2
     5     8     7    2
     6     9     7    1
     7     7     6    1
     8     1     6    1
     9     1     2    1
    10     2     4    1
    11     2     3    2
    12     5     4    1
