@<TRIPOS>MOLECULE
/home/cewinharhar/GITHUB/reincatalyze/data/processed/docking_pred/2023-Apr-25-1829_maxeplen10_maxtrainstep200_exh32_gamma099_lrac3e-4_lrcr1e-3/6e01533e6265e20f53eb8495178921d7241890ed_ligand_2.pdbqt
 12 12 0 0 0
SMALL
GASTEIGER

@<TRIPOS>ATOM
      1  C          8.4740   -0.6590   -2.1190 C.3     1  UNL1        0.1270
      2  C          8.4760   -1.9090   -2.8990 C.2     1  UNL1        0.3030
      3  O          9.5650   -2.4970   -3.0970 O.2     1  UNL1       -0.2520
      4  O          7.3080   -2.4390   -3.4120 O.3     1  UNL1       -0.4810
      5  H          6.7540   -3.1730   -2.9330 H       1  UNL1        0.2960
      6  C          7.0480   -0.1210   -2.1370 C.3     1  UNL1        0.0470
      7  C          6.4920    0.0260   -0.7810 C.2     1  UNL1       -0.0470
      8  C          5.8430    1.2140   -0.4660 C.2     1  UNL1        0.0040
      9  C          6.5690   -0.9220    0.2070 C.2     1  UNL1        0.0040
     10  C          5.3090    1.3940    0.8090 C.2     1  UNL1        0.0000
     11  C          6.0500   -0.7740    1.4780 C.2     1  UNL1        0.0000
     12  C          5.4120    0.4180    1.7620 C.2     1  UNL1        0.0000
@<TRIPOS>BOND
     1     4     5    1
     2     4     2    1
     3     3     2    2
     4     2     1    1
     5     6     1    1
     6     6     7    1
     7     7     8    2
     8     7     9    1
     9     8    10    1
    10     9    11    2
    11    10    12    2
    12    11    12    1
