MODEL 1
REMARK VINA RESULT:      -7.3      0.000      0.000
REMARK SMILES O=C(O)CCc1ccccc1
REMARK SMILES IDX 4 1 2 2 1 3 3 4 5 6 6 7 7 8 11 9 8 10 10 11 9 12
REMARK H PARENT 3 5
REMARK Flexibility Score: inf
ROOT
ATOM      1  C   UNL     1       8.474  -0.659  -2.119  1.00  0.00     0.127 C 
ENDROOT
BRANCH   1   2
ATOM      2  C   UNL     1       8.476  -1.909  -2.899  1.00  0.00     0.303 C 
ATOM      3  O   UNL     1       9.565  -2.497  -3.097  1.00  0.00    -0.252 OA
BRANCH   2   4
ATOM      4  O   UNL     1       7.308  -2.439  -3.412  1.00  0.00    -0.481 OA
ATOM      5  H   UNL     1       6.754  -3.173  -2.933  1.00  0.00     0.296 HD
ENDBRANCH   2   4
ENDBRANCH   1   2
BRANCH   1   6
ATOM      6  C   UNL     1       7.048  -0.121  -2.137  1.00  0.00     0.047 C 
BRANCH   6   7
ATOM      7  C   UNL     1       6.492   0.026  -0.781  1.00  0.00    -0.047 A 
ATOM      8  C   UNL     1       5.843   1.214  -0.466  1.00  0.00     0.004 A 
ATOM      9  C   UNL     1       6.569  -0.922   0.207  1.00  0.00     0.004 A 
ATOM     10  C   UNL     1       5.309   1.394   0.809  1.00  0.00     0.000 A 
ATOM     11  C   UNL     1       6.050  -0.774   1.478  1.00  0.00     0.000 A 
ATOM     12  C   UNL     1       5.412   0.418   1.762  1.00  0.00     0.000 A 
ENDBRANCH   6   7
ENDBRANCH   1   6
TORSDOF 4
ENDMDL
MODEL 2
REMARK VINA RESULT:      -7.3      0.056      1.429
REMARK SMILES O=C(O)CCc1ccccc1
REMARK SMILES IDX 4 1 2 2 1 3 3 4 5 6 6 7 7 8 11 9 8 10 10 11 9 12
REMARK H PARENT 3 5
REMARK Flexibility Score: inf
ROOT
ATOM      1  C   UNL     1       8.469  -0.700  -2.065  1.00  0.00     0.127 C 
ENDROOT
BRANCH   1   2
ATOM      2  C   UNL     1       8.466  -1.923  -2.888  1.00  0.00     0.303 C 
ATOM      3  O   UNL     1       9.553  -2.509  -3.104  1.00  0.00    -0.252 OA
BRANCH   2   4
ATOM      4  O   UNL     1       7.296  -2.430  -3.420  1.00  0.00    -0.481 OA
ATOM      5  H   UNL     1       6.356  -2.051  -3.201  1.00  0.00     0.296 HD
ENDBRANCH   2   4
ENDBRANCH   1   2
BRANCH   1   6
ATOM      6  C   UNL     1       7.066  -0.108  -2.137  1.00  0.00     0.047 C 
BRANCH   6   7
ATOM      7  C   UNL     1       6.485   0.108  -0.801  1.00  0.00    -0.047 A 
ATOM      8  C   UNL     1       6.593  -0.915   0.133  1.00  0.00     0.004 A 
ATOM      9  C   UNL     1       5.834   1.247  -0.403  1.00  0.00     0.004 A 
ATOM     10  C   UNL     1       6.050  -0.751   1.406  1.00  0.00     0.000 A 
ATOM     11  C   UNL     1       5.286   1.441   0.850  1.00  0.00     0.000 A 
ATOM     12  C   UNL     1       5.409   0.406   1.756  1.00  0.00     0.000 A 
ENDBRANCH   6   7
ENDBRANCH   1   6
TORSDOF 4
ENDMDL
MODEL 3
REMARK VINA RESULT:      -7.2      0.609      1.078
REMARK SMILES O=C(O)CCc1ccccc1
REMARK SMILES IDX 4 1 2 2 1 3 3 4 5 6 6 7 7 8 11 9 8 10 10 11 9 12
REMARK H PARENT 3 5
REMARK Flexibility Score: inf
ROOT
ATOM      1  C   UNL     1       8.240  -0.901  -1.915  1.00  0.00     0.127 C 
ENDROOT
BRANCH   1   2
ATOM      2  C   UNL     1       8.384  -2.005  -2.880  1.00  0.00     0.303 C 
ATOM      3  O   UNL     1       9.528  -2.466  -3.106  1.00  0.00    -0.252 OA
BRANCH   2   4
ATOM      4  O   UNL     1       7.289  -2.537  -3.533  1.00  0.00    -0.481 OA
ATOM      5  H   UNL     1       6.783  -2.049  -4.295  1.00  0.00     0.296 HD
ENDBRANCH   2   4
ENDBRANCH   1   2
BRANCH   1   6
ATOM      6  C   UNL     1       7.425  -1.434  -0.742  1.00  0.00     0.047 C 
BRANCH   6   7
ATOM      7  C   UNL     1       6.586  -0.390  -0.128  1.00  0.00    -0.047 A 
ATOM      8  C   UNL     1       6.267   0.726  -0.892  1.00  0.00     0.004 A 
ATOM      9  C   UNL     1       6.095  -0.430   1.151  1.00  0.00     0.004 A 
ATOM     10  C   UNL     1       5.481   1.738  -0.344  1.00  0.00     0.000 A 
ATOM     11  C   UNL     1       5.313   0.555   1.722  1.00  0.00     0.000 A 
ATOM     12  C   UNL     1       5.014   1.653   0.939  1.00  0.00     0.000 A 
ENDBRANCH   6   7
ENDBRANCH   1   6
TORSDOF 4
ENDMDL
MODEL 4
REMARK VINA RESULT:      -6.8      3.370      5.064
REMARK SMILES O=C(O)CCc1ccccc1
REMARK SMILES IDX 4 1 2 2 1 3 3 4 5 6 6 7 7 8 11 9 8 10 10 11 9 12
REMARK H PARENT 3 5
REMARK Flexibility Score: inf
ROOT
ATOM      1  C   UNL     1       4.989   1.773   0.729  1.00  0.00     0.127 C 
ENDROOT
BRANCH   1   2
ATOM      2  C   UNL     1       4.456   1.110   1.931  1.00  0.00     0.303 C 
ATOM      3  O   UNL     1       5.132   0.204   2.473  1.00  0.00    -0.252 OA
BRANCH   2   4
ATOM      4  O   UNL     1       3.233   1.466   2.468  1.00  0.00    -0.481 OA
ATOM      5  H   UNL     1       3.052   2.379   2.925  1.00  0.00     0.296 HD
ENDBRANCH   2   4
ENDBRANCH   1   2
BRANCH   1   6
ATOM      6  C   UNL     1       6.510   1.707   0.819  1.00  0.00     0.047 C 
BRANCH   6   7
ATOM      7  C   UNL     1       7.099   0.934  -0.289  1.00  0.00    -0.047 A 
ATOM      8  C   UNL     1       8.405   1.221  -0.664  1.00  0.00     0.004 A 
ATOM      9  C   UNL     1       6.452  -0.052  -0.989  1.00  0.00     0.004 A 
ATOM     10  C   UNL     1       8.995   0.515  -1.712  1.00  0.00     0.000 A 
ATOM     11  C   UNL     1       7.008  -0.768  -2.030  1.00  0.00     0.000 A 
ATOM     12  C   UNL     1       8.308  -0.461  -2.381  1.00  0.00     0.000 A 
ENDBRANCH   6   7
ENDBRANCH   1   6
TORSDOF 4
ENDMDL
MODEL 5
REMARK VINA RESULT:      -6.6      1.926      2.652
REMARK SMILES O=C(O)CCc1ccccc1
REMARK SMILES IDX 4 1 2 2 1 3 3 4 5 6 6 7 7 8 11 9 8 10 10 11 9 12
REMARK H PARENT 3 5
REMARK Flexibility Score: inf
ROOT
ATOM      1  C   UNL     1       8.285   0.110  -2.177  1.00  0.00     0.127 C 
ENDROOT
BRANCH   1   2
ATOM      2  C   UNL     1       9.396   0.333  -1.234  1.00  0.00     0.303 C 
ATOM      3  O   UNL     1       9.476  -0.390  -0.213  1.00  0.00    -0.252 OA
BRANCH   2   4
ATOM      4  O   UNL     1      10.342   1.315  -1.455  1.00  0.00    -0.481 OA
ATOM      5  H   UNL     1      11.324   1.115  -1.721  1.00  0.00     0.296 HD
ENDBRANCH   2   4
ENDBRANCH   1   2
BRANCH   1   6
ATOM      6  C   UNL     1       7.206  -0.661  -1.425  1.00  0.00     0.047 C 
BRANCH   6   7
ATOM      7  C   UNL     1       6.391   0.217  -0.568  1.00  0.00    -0.047 A 
ATOM      8  C   UNL     1       6.144  -0.190   0.738  1.00  0.00     0.004 A 
ATOM      9  C   UNL     1       5.847   1.413  -0.960  1.00  0.00     0.004 A 
ATOM     10  C   UNL     1       5.372   0.610   1.578  1.00  0.00     0.000 A 
ATOM     11  C   UNL     1       5.079   2.228  -0.152  1.00  0.00     0.000 A 
ATOM     12  C   UNL     1       4.849   1.796   1.140  1.00  0.00     0.000 A 
ENDBRANCH   6   7
ENDBRANCH   1   6
TORSDOF 4
ENDMDL
