@<TRIPOS>MOLECULE
/home/cewinharhar/GITHUB/reincatalyze/data/processed/docking_pred/2023-Apr-25-1829_maxeplen10_maxtrainstep200_exh32_gamma099_lrac3e-4_lrcr1e-3/6e01533e6265e20f53eb8495178921d7241890ed_ligand_2.pdbqt
 12 12 0 0 0
SMALL
GASTEIGER

@<TRIPOS>ATOM
      1  C          8.4690   -0.7000   -2.0650 C.3     1  UNL1        0.1270
      2  C          8.4660   -1.9230   -2.8880 C.2     1  UNL1        0.3030
      3  O          9.5530   -2.5090   -3.1040 O.2     1  UNL1       -0.2520
      4  O          7.2960   -2.4300   -3.4200 O.3     1  UNL1       -0.4810
      5  H          6.3560   -2.0510   -3.2010 H       1  UNL1        0.2960
      6  C          7.0660   -0.1080   -2.1370 C.3     1  UNL1        0.0470
      7  C          6.4850    0.1080   -0.8010 C.2     1  UNL1       -0.0470
      8  C          6.5930   -0.9150    0.1330 C.2     1  UNL1        0.0040
      9  C          5.8340    1.2470   -0.4030 C.2     1  UNL1        0.0040
     10  C          6.0500   -0.7510    1.4060 C.2     1  UNL1        0.0000
     11  C          5.2860    1.4410    0.8500 C.2     1  UNL1        0.0000
     12  C          5.4090    0.4060    1.7560 C.2     1  UNL1        0.0000
@<TRIPOS>BOND
     1     4     5    1
     2     4     2    1
     3     3     2    2
     4     2     1    1
     5     6     1    1
     6     6     7    1
     7     7     9    2
     8     7     8    1
     9     9    11    1
    10     8    10    2
    11    11    12    2
    12    10    12    1
