@<TRIPOS>MOLECULE
/home/cewinharhar/GITHUB/reincatalyze/data/processed/docking_pred/2023-Apr-25-1829_maxeplen10_maxtrainstep200_exh32_gamma099_lrac3e-4_lrcr1e-3/6e01533e6265e20f53eb8495178921d7241890ed_ligand_2.pdbqt
 12 12 0 0 0
SMALL
GASTEIGER

@<TRIPOS>ATOM
      1  C          4.9890    1.7730    0.7290 C.3     1  UNL1        0.1270
      2  C          4.4560    1.1100    1.9310 C.2     1  UNL1        0.3030
      3  O          5.1320    0.2040    2.4730 O.2     1  UNL1       -0.2520
      4  O          3.2330    1.4660    2.4680 O.3     1  UNL1       -0.4810
      5  H          3.0520    2.3790    2.9250 H       1  UNL1        0.2960
      6  C          6.5100    1.7070    0.8190 C.3     1  UNL1        0.0470
      7  C          7.0990    0.9340   -0.2890 C.2     1  UNL1       -0.0470
      8  C          8.4050    1.2210   -0.6640 C.2     1  UNL1        0.0040
      9  C          6.4520   -0.0520   -0.9890 C.2     1  UNL1        0.0040
     10  C          8.9950    0.5150   -1.7120 C.2     1  UNL1        0.0000
     11  C          7.0080   -0.7680   -2.0300 C.2     1  UNL1        0.0000
     12  C          8.3080   -0.4610   -2.3810 C.2     1  UNL1        0.0000
@<TRIPOS>BOND
     1    12    11    2
     2    12    10    1
     3    11     9    1
     4    10     8    2
     5     9     7    2
     6     8     7    1
     7     7     6    1
     8     1     6    1
     9     1     2    1
    10     2     4    1
    11     2     3    2
    12     4     5    1
