@<TRIPOS>MOLECULE
/home/cewinharhar/GITHUB/reincatalyze/data/processed/docking_pred/2023-Apr-25-1829_maxeplen10_maxtrainstep200_exh32_gamma099_lrac3e-4_lrcr1e-3/6e01533e6265e20f53eb8495178921d7241890ed_ligand_2.pdbqt
 12 12 0 0 0
SMALL
GASTEIGER

@<TRIPOS>ATOM
      1  C          8.2850    0.1100   -2.1770 C.3     1  UNL1        0.1270
      2  C          9.3960    0.3330   -1.2340 C.2     1  UNL1        0.3030
      3  O          9.4760   -0.3900   -0.2130 O.2     1  UNL1       -0.2520
      4  O         10.3420    1.3150   -1.4550 O.3     1  UNL1       -0.4810
      5  H         11.3240    1.1150   -1.7210 H       1  UNL1        0.2960
      6  C          7.2060   -0.6610   -1.4250 C.3     1  UNL1        0.0470
      7  C          6.3910    0.2170   -0.5680 C.2     1  UNL1       -0.0470
      8  C          6.1440   -0.1900    0.7380 C.2     1  UNL1        0.0040
      9  C          5.8470    1.4130   -0.9600 C.2     1  UNL1        0.0040
     10  C          5.3720    0.6100    1.5780 C.2     1  UNL1        0.0000
     11  C          5.0790    2.2280   -0.1520 C.2     1  UNL1        0.0000
     12  C          4.8490    1.7960    1.1400 C.2     1  UNL1        0.0000
@<TRIPOS>BOND
     1     1     6    1
     2     1     2    1
     3     5     4    1
     4     4     2    1
     5     6     7    1
     6     2     3    2
     7     9     7    2
     8     9    11    1
     9     7     8    1
    10    11    12    2
    11     8    10    2
    12    12    10    1
