@<TRIPOS>MOLECULE
/home/cewinharhar/GITHUB/reincatalyze/data/processed/docking_pred/2023-Apr-25-1829_maxeplen10_maxtrainstep200_exh32_gamma099_lrac3e-4_lrcr1e-3/6e01533e6265e20f53eb8495178921d7241890ed_ligand_2.pdbqt
 12 12 0 0 0
SMALL
GASTEIGER

@<TRIPOS>ATOM
      1  C          8.2400   -0.9010   -1.9150 C.3     1  UNL1        0.1270
      2  C          8.3840   -2.0050   -2.8800 C.2     1  UNL1        0.3030
      3  O          9.5280   -2.4660   -3.1060 O.2     1  UNL1       -0.2520
      4  O          7.2890   -2.5370   -3.5330 O.3     1  UNL1       -0.4810
      5  H          6.7830   -2.0490   -4.2950 H       1  UNL1        0.2960
      6  C          7.4250   -1.4340   -0.7420 C.3     1  UNL1        0.0470
      7  C          6.5860   -0.3900   -0.1280 C.2     1  UNL1       -0.0470
      8  C          6.2670    0.7260   -0.8920 C.2     1  UNL1        0.0040
      9  C          6.0950   -0.4300    1.1510 C.2     1  UNL1        0.0040
     10  C          5.4810    1.7380   -0.3440 C.2     1  UNL1        0.0000
     11  C          5.3130    0.5550    1.7220 C.2     1  UNL1        0.0000
     12  C          5.0140    1.6530    0.9390 C.2     1  UNL1        0.0000
@<TRIPOS>BOND
     1     5     4    1
     2     4     2    1
     3     3     2    2
     4     2     1    1
     5     1     6    1
     6     8    10    1
     7     8     7    2
     8     6     7    1
     9    10    12    2
    10     7     9    1
    11    12    11    1
    12     9    11    2
