@<TRIPOS>MOLECULE
/home/cewinharhar/GITHUB/reincatalyze/data/processed/docking_pred/2023-Apr-25-1829_maxeplen10_maxtrainstep200_exh32_gamma099_lrac3e-4_lrcr1e-3/6e6a373552f8835a6ba7a6c6fa001d8bbefa4498_ligand_2.pdbqt
 12 12 0 0 0
SMALL
GASTEIGER

@<TRIPOS>ATOM
      1  C          7.8080   -0.7820   -2.4100 C.3     1  UNL1        0.1270
      2  C          8.3360   -1.9700   -3.1030 C.2     1  UNL1        0.3030
      3  O          9.5500   -2.2550   -2.9760 O.2     1  UNL1       -0.2520
      4  O          7.5230   -2.7690   -3.8840 O.3     1  UNL1       -0.4810
      5  H          7.1550   -3.6870   -3.5740 H       1  UNL1        0.2960
      6  C          7.3690   -1.2320   -1.0210 C.3     1  UNL1        0.0470
      7  C          6.5570   -0.2100   -0.3370 C.2     1  UNL1       -0.0470
      8  C          6.1910   -0.4430    0.9840 C.2     1  UNL1        0.0040
      9  C          6.1240    0.9600   -0.9060 C.2     1  UNL1        0.0040
     10  C          5.4170    0.4970    1.6620 C.2     1  UNL1        0.0000
     11  C          5.3580    1.9090   -0.2600 C.2     1  UNL1        0.0000
     12  C          5.0080    1.6510    1.0510 C.2     1  UNL1        0.0000
@<TRIPOS>BOND
     1     4     5    1
     2     4     2    1
     3     2     3    2
     4     2     1    1
     5     1     6    1
     6     6     7    1
     7     9     7    2
     8     9    11    1
     9     7     8    1
    10    11    12    2
    11     8    10    2
    12    12    10    1
