@<TRIPOS>MOLECULE
/home/cewinharhar/GITHUB/reincatalyze/data/processed/docking_pred/2023-Apr-25-1829_maxeplen10_maxtrainstep200_exh32_gamma099_lrac3e-4_lrcr1e-3/6e6a373552f8835a6ba7a6c6fa001d8bbefa4498_ligand_2.pdbqt
 12 12 0 0 0
SMALL
GASTEIGER

@<TRIPOS>ATOM
      1  C          4.9730    1.7980    0.7320 C.3     1  UNL1        0.1270
      2  C          4.4540    1.1160    1.9310 C.2     1  UNL1        0.3030
      3  O          5.1440    0.2130    2.4590 O.2     1  UNL1       -0.2520
      4  O          3.2320    1.4540    2.4790 O.3     1  UNL1       -0.4810
      5  H          2.6440    0.7930    3.0210 H       1  UNL1        0.2960
      6  C          6.4930    1.8130    0.8470 C.3     1  UNL1        0.0470
      7  C          7.1420    1.1210   -0.2800 C.2     1  UNL1       -0.0470
      8  C          6.3570    0.3050   -1.0860 C.2     1  UNL1        0.0040
      9  C          8.4730    1.2130   -0.5960 C.2     1  UNL1        0.0040
     10  C          6.9370   -0.3710   -2.1580 C.2     1  UNL1        0.0000
     11  C          9.0760    0.5560   -1.6510 C.2     1  UNL1        0.0000
     12  C          8.2710   -0.2470   -2.4340 C.2     1  UNL1        0.0000
@<TRIPOS>BOND
     1    12    10    2
     2    12    11    1
     3    10     8    1
     4    11     9    2
     5     8     7    2
     6     9     7    1
     7     7     6    1
     8     1     6    1
     9     1     2    1
    10     2     3    2
    11     2     4    1
    12     4     5    1
