@<TRIPOS>MOLECULE
/home/cewinharhar/GITHUB/reincatalyze/data/processed/docking_pred/2023-Apr-25-1829_maxeplen10_maxtrainstep200_exh32_gamma099_lrac3e-4_lrcr1e-3/6e6a373552f8835a6ba7a6c6fa001d8bbefa4498_ligand_2.pdbqt
 12 12 0 0 0
SMALL
GASTEIGER

@<TRIPOS>ATOM
      1  C          8.4510   -0.5930   -2.0470 C.3     1  UNL1        0.1270
      2  C          8.4720   -1.8350   -2.8400 C.2     1  UNL1        0.3030
      3  O          7.3920   -2.2860   -3.2870 O.2     1  UNL1       -0.2520
      4  O          9.6530   -2.5040   -3.0970 O.3     1  UNL1       -0.4810
      5  H         10.3300   -2.7770   -2.3600 H       1  UNL1        0.2960
      6  C          7.0350   -0.0330   -2.1300 C.3     1  UNL1        0.0470
      7  C          6.4480    0.1930   -0.7970 C.2     1  UNL1       -0.0470
      8  C          6.5780   -0.8130    0.1530 C.2     1  UNL1        0.0040
      9  C          5.7720    1.3240   -0.4180 C.2     1  UNL1        0.0040
     10  C          6.0310   -0.6390    1.4230 C.2     1  UNL1        0.0000
     11  C          5.2200    1.5260    0.8310 C.2     1  UNL1        0.0000
     12  C          5.3640    0.5090    1.7540 C.2     1  UNL1        0.0000
@<TRIPOS>BOND
     1     3     2    2
     2     4     2    1
     3     4     5    1
     4     2     1    1
     5     6     1    1
     6     6     7    1
     7     7     9    2
     8     7     8    1
     9     9    11    1
    10     8    10    2
    11    11    12    2
    12    10    12    1
