@<TRIPOS>MOLECULE
/home/cewinharhar/GITHUB/reincatalyze/data/processed/docking_pred/2023-Apr-25-1829_maxeplen10_maxtrainstep200_exh32_gamma099_lrac3e-4_lrcr1e-3/6e6a373552f8835a6ba7a6c6fa001d8bbefa4498_ligand_2.pdbqt
 12 12 0 0 0
SMALL
GASTEIGER

@<TRIPOS>ATOM
      1  C          8.4540   -0.5520   -2.0680 C.3     1  UNL1        0.1270
      2  C          8.4720   -1.8090   -2.8370 C.2     1  UNL1        0.3030
      3  O          7.3880   -2.2730   -3.2630 O.2     1  UNL1       -0.2520
      4  O          9.6530   -2.4780   -3.0950 O.3     1  UNL1       -0.4810
      5  H         10.2000   -2.3590   -3.9670 H       1  UNL1        0.2960
      6  C          7.0210   -0.0350   -2.0870 C.3     1  UNL1        0.0470
      7  C          6.4530    0.0800   -0.7320 C.2     1  UNL1       -0.0470
      8  C          5.7930    1.2560   -0.3970 C.2     1  UNL1        0.0040
      9  C          6.5280   -0.8890    0.2350 C.2     1  UNL1        0.0040
     10  C          5.2480    1.4050    0.8770 C.2     1  UNL1        0.0000
     11  C          5.9990   -0.7720    1.5050 C.2     1  UNL1        0.0000
     12  C          5.3500    0.4090    1.8100 C.2     1  UNL1        0.0000
@<TRIPOS>BOND
     1     5     4    1
     2     3     2    2
     3     4     2    1
     4     2     1    1
     5     6     1    1
     6     6     7    1
     7     7     8    2
     8     7     9    1
     9     8    10    1
    10     9    11    2
    11    10    12    2
    12    11    12    1
