@<TRIPOS>MOLECULE
/home/cewinharhar/GITHUB/reincatalyze/data/processed/docking_pred/2023-Apr-25-1829_maxeplen10_maxtrainstep200_exh32_gamma099_lrac3e-4_lrcr1e-3/6e6a373552f8835a6ba7a6c6fa001d8bbefa4498_ligand_2.pdbqt
 12 12 0 0 0
SMALL
GASTEIGER

@<TRIPOS>ATOM
      1  C          4.9700    1.7810    0.7000 C.3     1  UNL1        0.1270
      2  C          4.4640    1.1200    1.9160 C.2     1  UNL1        0.3030
      3  O          5.1620    0.2310    2.4570 O.2     1  UNL1       -0.2520
      4  O          3.2430    1.4620    2.4660 O.3     1  UNL1       -0.4810
      5  H          2.4380    0.8110    2.5230 H       1  UNL1        0.2960
      6  C          6.4920    1.7630    0.7810 C.3     1  UNL1        0.0470
      7  C          7.0980    0.9910   -0.3180 C.2     1  UNL1       -0.0470
      8  C          8.4270    1.2400   -0.6370 C.2     1  UNL1        0.0040
      9  C          6.4460    0.0420   -1.0630 C.2     1  UNL1        0.0040
     10  C          9.0330    0.5350   -1.6750 C.2     1  UNL1        0.0000
     11  C          7.0190   -0.6730   -2.0960 C.2     1  UNL1        0.0000
     12  C          8.3410   -0.4040   -2.3910 C.2     1  UNL1        0.0000
@<TRIPOS>BOND
     1    12    11    2
     2    12    10    1
     3    11     9    1
     4    10     8    2
     5     9     7    2
     6     8     7    1
     7     7     6    1
     8     1     6    1
     9     1     2    1
    10     2     3    2
    11     2     4    1
    12     4     5    1
