@<TRIPOS>MOLECULE
/home/cewinharhar/GITHUB/reincatalyze/data/processed/docking_pred/2023-Apr-25-1829_maxeplen10_maxtrainstep200_exh32_gamma099_lrac3e-4_lrcr1e-3/6eca206a948153dc2868ed9d680cd756ab453321_ligand_2.pdbqt
 12 12 0 0 0
SMALL
GASTEIGER

@<TRIPOS>ATOM
      1  C          8.4140   -0.7650   -1.9650 C.3     1  UNL1        0.1270
      2  C          8.3870   -1.9420   -2.8510 C.2     1  UNL1        0.3030
      3  O          7.2790   -2.3930   -3.2250 O.2     1  UNL1       -0.2520
      4  O          9.5530   -2.5510   -3.2740 O.3     1  UNL1       -0.4810
      5  H          9.8300   -2.6280   -4.2700 H       1  UNL1        0.2960
      6  C          7.0470   -0.0980   -2.0650 C.3     1  UNL1        0.0470
      7  C          6.4450    0.1360   -0.7400 C.2     1  UNL1       -0.0470
      8  C          6.5410   -0.8740    0.2090 C.2     1  UNL1        0.0040
      9  C          5.7860    1.2790   -0.3680 C.2     1  UNL1        0.0040
     10  C          5.9780   -0.6930    1.4710 C.2     1  UNL1        0.0000
     11  C          5.2200    1.4890    0.8740 C.2     1  UNL1        0.0000
     12  C          5.3300    0.4670    1.7960 C.2     1  UNL1        0.0000
@<TRIPOS>BOND
     1     5     4    1
     2     4     2    1
     3     3     2    2
     4     2     1    1
     5     6     1    1
     6     6     7    1
     7     7     9    2
     8     7     8    1
     9     9    11    1
    10     8    10    2
    11    11    12    2
    12    10    12    1
