@<TRIPOS>MOLECULE
/home/cewinharhar/GITHUB/reincatalyze/data/processed/docking_pred/2023-Apr-25-1829_maxeplen10_maxtrainstep200_exh32_gamma099_lrac3e-4_lrcr1e-3/6eca206a948153dc2868ed9d680cd756ab453321_ligand_2.pdbqt
 12 12 0 0 0
SMALL
GASTEIGER

@<TRIPOS>ATOM
      1  C          7.8990   -2.2720    0.8260 C.3     1  UNL1        0.1270
      2  C          8.7280   -3.3750    0.3080 C.2     1  UNL1        0.3030
      3  O          9.6030   -3.8760    1.0530 O.2     1  UNL1       -0.2520
      4  O          8.5580   -3.8630   -0.9730 O.3     1  UNL1       -0.4810
      5  H          9.3270   -3.9410   -1.6640 H       1  UNL1        0.2960
      6  C          7.5180   -1.4000   -0.3650 C.3     1  UNL1        0.0470
      7  C          6.6300   -0.2890    0.0210 C.2     1  UNL1       -0.0470
      8  C          6.0920   -0.2970    1.3020 C.2     1  UNL1        0.0040
      9  C          6.2850    0.7590   -0.7930 C.2     1  UNL1        0.0040
     10  C          5.2430    0.7330    1.7020 C.2     1  UNL1        0.0000
     11  C          5.4470    1.7940   -0.4270 C.2     1  UNL1        0.0000
     12  C          4.9270    1.7580    0.8520 C.2     1  UNL1        0.0000
@<TRIPOS>BOND
     1     5     4    1
     2     4     2    1
     3     9    11    1
     4     9     7    2
     5    11    12    2
     6     6     7    1
     7     6     1    1
     8     7     8    1
     9     2     1    1
    10     2     3    2
    11    12    10    1
    12     8    10    2
