@<TRIPOS>MOLECULE
/home/cewinharhar/GITHUB/reincatalyze/data/processed/docking_pred/2023-Apr-25-1829_maxeplen10_maxtrainstep200_exh32_gamma099_lrac3e-4_lrcr1e-3/6eca206a948153dc2868ed9d680cd756ab453321_ligand_2.pdbqt
 12 12 0 0 0
SMALL
GASTEIGER

@<TRIPOS>ATOM
      1  C          8.2300    0.2800   -2.0750 C.3     1  UNL1        0.1270
      2  C          9.4010    0.3840   -1.1870 C.2     1  UNL1        0.3030
      3  O          9.4830   -0.3860   -0.2010 O.2     1  UNL1       -0.2520
      4  O         10.4020    1.3080   -1.4200 O.3     1  UNL1       -0.4810
      5  H         10.2970    2.3240   -1.2400 H       1  UNL1        0.2960
      6  C          7.2110   -0.6080   -1.3710 C.3     1  UNL1        0.0470
      7  C          6.3870    0.1460   -0.4090 C.2     1  UNL1       -0.0470
      8  C          6.1640   -0.4150    0.8420 C.2     1  UNL1        0.0040
      9  C          5.8140    1.3670   -0.6560 C.2     1  UNL1        0.0040
     10  C          5.3850    0.2650    1.7760 C.2     1  UNL1        0.0000
     11  C          5.0380    2.0660    0.2480 C.2     1  UNL1        0.0000
     12  C          4.8320    1.4820    1.4830 C.2     1  UNL1        0.0000
@<TRIPOS>BOND
     1     1     6    1
     2     1     2    1
     3     4     5    1
     4     4     2    1
     5     6     7    1
     6     2     3    2
     7     9     7    2
     8     9    11    1
     9     7     8    1
    10    11    12    2
    11     8    10    2
    12    12    10    1
