@<TRIPOS>MOLECULE
/home/cewinharhar/GITHUB/reincatalyze/data/processed/docking_pred/2023-Apr-25-1829_maxeplen10_maxtrainstep200_exh32_gamma099_lrac3e-4_lrcr1e-3/6eca206a948153dc2868ed9d680cd756ab453321_ligand_2.pdbqt
 12 12 0 0 0
SMALL
GASTEIGER

@<TRIPOS>ATOM
      1  C          4.9590    1.7890    0.7270 C.3     1  UNL1        0.1270
      2  C          4.4500    1.1100    1.9310 C.2     1  UNL1        0.3030
      3  O          5.1460    0.2100    2.4580 O.2     1  UNL1       -0.2520
      4  O          3.2300    1.4460    2.4860 O.3     1  UNL1       -0.4810
      5  H          2.6680    0.7990    3.0690 H       1  UNL1        0.2960
      6  C          6.4780    1.8280    0.8420 C.3     1  UNL1        0.0470
      7  C          7.1390    1.1410   -0.2820 C.2     1  UNL1       -0.0470
      8  C          6.3590    0.3410   -1.1080 C.2     1  UNL1        0.0040
      9  C          8.4750    1.2240   -0.5770 C.2     1  UNL1        0.0040
     10  C          6.9480   -0.3310   -2.1780 C.2     1  UNL1        0.0000
     11  C          9.0880    0.5720   -1.6290 C.2     1  UNL1        0.0000
     12  C          8.2880   -0.2170   -2.4320 C.2     1  UNL1        0.0000
@<TRIPOS>BOND
     1    12    10    2
     2    12    11    1
     3    10     8    1
     4    11     9    2
     5     8     7    2
     6     9     7    1
     7     7     6    1
     8     1     6    1
     9     1     2    1
    10     2     3    2
    11     2     4    1
    12     4     5    1
