@<TRIPOS>MOLECULE
/home/cewinharhar/GITHUB/reincatalyze/data/processed/docking_pred/2023-Apr-25-1829_maxeplen10_maxtrainstep200_exh32_gamma099_lrac3e-4_lrcr1e-3/6eca206a948153dc2868ed9d680cd756ab453321_ligand_2.pdbqt
 12 12 0 0 0
SMALL
GASTEIGER

@<TRIPOS>ATOM
      1  C          8.4470   -0.6070   -2.1870 C.3     1  UNL1        0.1270
      2  C          8.4550   -1.8890   -2.9140 C.2     1  UNL1        0.3030
      3  O          9.5460   -2.4870   -3.0730 O.2     1  UNL1       -0.2520
      4  O          7.2920   -2.4380   -3.4180 O.3     1  UNL1       -0.4810
      5  H          6.9110   -2.2120   -4.3550 H       1  UNL1        0.2960
      6  C          7.0020   -0.1220   -2.1500 C.3     1  UNL1        0.0470
      7  C          6.4860   -0.0160   -0.7740 C.2     1  UNL1       -0.0470
      8  C          5.8690    1.1710   -0.3970 C.2     1  UNL1        0.0040
      9  C          6.5730   -1.0010    0.1760 C.2     1  UNL1        0.0040
     10  C          5.3740    1.3120    0.8980 C.2     1  UNL1        0.0000
     11  C          6.0920   -0.8920    1.4650 C.2     1  UNL1        0.0000
     12  C          5.4850    0.2990    1.8110 C.2     1  UNL1        0.0000
@<TRIPOS>BOND
     1     5     4    1
     2     4     2    1
     3     3     2    2
     4     2     1    1
     5     1     6    1
     6     6     7    1
     7     7     8    2
     8     7     9    1
     9     8    10    1
    10     9    11    2
    11    10    12    2
    12    11    12    1
