MODEL 1
REMARK VINA RESULT:      -7.3      0.000      0.000
REMARK SMILES O=C(O)CCc1ccccc1
REMARK SMILES IDX 4 1 2 2 1 3 3 4 5 6 6 7 7 8 11 9 8 10 10 11 9 12
REMARK H PARENT 3 5
REMARK Flexibility Score: inf
ROOT
ATOM      1  C   UNL     1       8.447  -0.607  -2.187  1.00  0.00     0.127 C 
ENDROOT
BRANCH   1   2
ATOM      2  C   UNL     1       8.455  -1.889  -2.914  1.00  0.00     0.303 C 
ATOM      3  O   UNL     1       9.546  -2.487  -3.073  1.00  0.00    -0.252 OA
BRANCH   2   4
ATOM      4  O   UNL     1       7.292  -2.438  -3.418  1.00  0.00    -0.481 OA
ATOM      5  H   UNL     1       6.911  -2.212  -4.355  1.00  0.00     0.296 HD
ENDBRANCH   2   4
ENDBRANCH   1   2
BRANCH   1   6
ATOM      6  C   UNL     1       7.002  -0.122  -2.150  1.00  0.00     0.047 C 
BRANCH   6   7
ATOM      7  C   UNL     1       6.486  -0.016  -0.774  1.00  0.00    -0.047 A 
ATOM      8  C   UNL     1       5.869   1.171  -0.397  1.00  0.00     0.004 A 
ATOM      9  C   UNL     1       6.573  -1.001   0.176  1.00  0.00     0.004 A 
ATOM     10  C   UNL     1       5.374   1.312   0.898  1.00  0.00     0.000 A 
ATOM     11  C   UNL     1       6.092  -0.892   1.465  1.00  0.00     0.000 A 
ATOM     12  C   UNL     1       5.485   0.299   1.811  1.00  0.00     0.000 A 
ENDBRANCH   6   7
ENDBRANCH   1   6
TORSDOF 4
ENDMDL
MODEL 2
REMARK VINA RESULT:      -7.2      0.192      1.735
REMARK SMILES O=C(O)CCc1ccccc1
REMARK SMILES IDX 4 1 2 2 1 3 3 4 5 6 6 7 7 8 11 9 8 10 10 11 9 12
REMARK H PARENT 3 5
REMARK Flexibility Score: inf
ROOT
ATOM      1  C   UNL     1       8.414  -0.765  -1.965  1.00  0.00     0.127 C 
ENDROOT
BRANCH   1   2
ATOM      2  C   UNL     1       8.387  -1.942  -2.851  1.00  0.00     0.303 C 
ATOM      3  O   UNL     1       7.279  -2.393  -3.225  1.00  0.00    -0.252 OA
BRANCH   2   4
ATOM      4  O   UNL     1       9.553  -2.551  -3.274  1.00  0.00    -0.481 OA
ATOM      5  H   UNL     1       9.830  -2.628  -4.270  1.00  0.00     0.296 HD
ENDBRANCH   2   4
ENDBRANCH   1   2
BRANCH   1   6
ATOM      6  C   UNL     1       7.047  -0.098  -2.065  1.00  0.00     0.047 C 
BRANCH   6   7
ATOM      7  C   UNL     1       6.445   0.136  -0.740  1.00  0.00    -0.047 A 
ATOM      8  C   UNL     1       6.541  -0.874   0.209  1.00  0.00     0.004 A 
ATOM      9  C   UNL     1       5.786   1.279  -0.368  1.00  0.00     0.004 A 
ATOM     10  C   UNL     1       5.978  -0.693   1.471  1.00  0.00     0.000 A 
ATOM     11  C   UNL     1       5.220   1.489   0.874  1.00  0.00     0.000 A 
ATOM     12  C   UNL     1       5.330   0.467   1.796  1.00  0.00     0.000 A 
ENDBRANCH   6   7
ENDBRANCH   1   6
TORSDOF 4
ENDMDL
MODEL 3
REMARK VINA RESULT:      -6.8      3.385      5.096
REMARK SMILES O=C(O)CCc1ccccc1
REMARK SMILES IDX 4 1 2 2 1 3 3 4 5 6 6 7 7 8 11 9 8 10 10 11 9 12
REMARK H PARENT 3 5
REMARK Flexibility Score: inf
ROOT
ATOM      1  C   UNL     1       4.959   1.789   0.727  1.00  0.00     0.127 C 
ENDROOT
BRANCH   1   2
ATOM      2  C   UNL     1       4.450   1.110   1.931  1.00  0.00     0.303 C 
ATOM      3  O   UNL     1       5.146   0.210   2.458  1.00  0.00    -0.252 OA
BRANCH   2   4
ATOM      4  O   UNL     1       3.230   1.446   2.486  1.00  0.00    -0.481 OA
ATOM      5  H   UNL     1       2.668   0.799   3.069  1.00  0.00     0.296 HD
ENDBRANCH   2   4
ENDBRANCH   1   2
BRANCH   1   6
ATOM      6  C   UNL     1       6.478   1.828   0.842  1.00  0.00     0.047 C 
BRANCH   6   7
ATOM      7  C   UNL     1       7.139   1.141  -0.282  1.00  0.00    -0.047 A 
ATOM      8  C   UNL     1       6.359   0.341  -1.108  1.00  0.00     0.004 A 
ATOM      9  C   UNL     1       8.475   1.224  -0.577  1.00  0.00     0.004 A 
ATOM     10  C   UNL     1       6.948  -0.331  -2.178  1.00  0.00     0.000 A 
ATOM     11  C   UNL     1       9.088   0.572  -1.629  1.00  0.00     0.000 A 
ATOM     12  C   UNL     1       8.288  -0.217  -2.432  1.00  0.00     0.000 A 
ENDBRANCH   6   7
ENDBRANCH   1   6
TORSDOF 4
ENDMDL
MODEL 4
REMARK VINA RESULT:      -6.6      1.948      2.654
REMARK SMILES O=C(O)CCc1ccccc1
REMARK SMILES IDX 4 1 2 2 1 3 3 4 5 6 6 7 7 8 11 9 8 10 10 11 9 12
REMARK H PARENT 3 5
REMARK Flexibility Score: inf
ROOT
ATOM      1  C   UNL     1       8.230   0.280  -2.075  1.00  0.00     0.127 C 
ENDROOT
BRANCH   1   2
ATOM      2  C   UNL     1       9.401   0.384  -1.187  1.00  0.00     0.303 C 
ATOM      3  O   UNL     1       9.483  -0.386  -0.201  1.00  0.00    -0.252 OA
BRANCH   2   4
ATOM      4  O   UNL     1      10.402   1.308  -1.420  1.00  0.00    -0.481 OA
ATOM      5  H   UNL     1      10.297   2.324  -1.240  1.00  0.00     0.296 HD
ENDBRANCH   2   4
ENDBRANCH   1   2
BRANCH   1   6
ATOM      6  C   UNL     1       7.211  -0.608  -1.371  1.00  0.00     0.047 C 
BRANCH   6   7
ATOM      7  C   UNL     1       6.387   0.146  -0.409  1.00  0.00    -0.047 A 
ATOM      8  C   UNL     1       6.164  -0.415   0.842  1.00  0.00     0.004 A 
ATOM      9  C   UNL     1       5.814   1.367  -0.656  1.00  0.00     0.004 A 
ATOM     10  C   UNL     1       5.385   0.265   1.776  1.00  0.00     0.000 A 
ATOM     11  C   UNL     1       5.038   2.066   0.248  1.00  0.00     0.000 A 
ATOM     12  C   UNL     1       4.832   1.482   1.483  1.00  0.00     0.000 A 
ENDBRANCH   6   7
ENDBRANCH   1   6
TORSDOF 4
ENDMDL
MODEL 5
REMARK VINA RESULT:      -6.6      2.007      2.763
REMARK SMILES O=C(O)CCc1ccccc1
REMARK SMILES IDX 4 1 2 2 1 3 3 4 5 6 6 7 7 8 11 9 8 10 10 11 9 12
REMARK H PARENT 3 5
REMARK Flexibility Score: inf
ROOT
ATOM      1  C   UNL     1       7.899  -2.272   0.826  1.00  0.00     0.127 C 
ENDROOT
BRANCH   1   2
ATOM      2  C   UNL     1       8.728  -3.375   0.308  1.00  0.00     0.303 C 
ATOM      3  O   UNL     1       9.603  -3.876   1.053  1.00  0.00    -0.252 OA
BRANCH   2   4
ATOM      4  O   UNL     1       8.558  -3.863  -0.973  1.00  0.00    -0.481 OA
ATOM      5  H   UNL     1       9.327  -3.941  -1.664  1.00  0.00     0.296 HD
ENDBRANCH   2   4
ENDBRANCH   1   2
BRANCH   1   6
ATOM      6  C   UNL     1       7.518  -1.400  -0.365  1.00  0.00     0.047 C 
BRANCH   6   7
ATOM      7  C   UNL     1       6.630  -0.289   0.021  1.00  0.00    -0.047 A 
ATOM      8  C   UNL     1       6.092  -0.297   1.302  1.00  0.00     0.004 A 
ATOM      9  C   UNL     1       6.285   0.759  -0.793  1.00  0.00     0.004 A 
ATOM     10  C   UNL     1       5.243   0.733   1.702  1.00  0.00     0.000 A 
ATOM     11  C   UNL     1       5.447   1.794  -0.427  1.00  0.00     0.000 A 
ATOM     12  C   UNL     1       4.927   1.758   0.852  1.00  0.00     0.000 A 
ENDBRANCH   6   7
ENDBRANCH   1   6
TORSDOF 4
ENDMDL
