@<TRIPOS>MOLECULE
/home/cewinharhar/GITHUB/reincatalyze/data/processed/docking_pred/2023-Apr-25-1829_maxeplen10_maxtrainstep200_exh32_gamma099_lrac3e-4_lrcr1e-3/7076afde4386affa59e586c5ec9b2181426a643f_ligand_2.pdbqt
 12 12 0 0 0
SMALL
GASTEIGER

@<TRIPOS>ATOM
      1  C          8.4230   -0.6310   -2.1330 C.3     1  UNL1        0.1270
      2  C          8.4010   -1.8970   -2.8870 C.2     1  UNL1        0.3030
      3  O          7.2950   -2.3870   -3.2130 O.2     1  UNL1       -0.2520
      4  O          9.5690   -2.5460   -3.2380 O.3     1  UNL1       -0.4810
      5  H         10.1450   -2.2850   -4.0600 H       1  UNL1        0.2960
      6  C          7.0050   -0.0720   -2.1540 C.3     1  UNL1        0.0470
      7  C          6.4610    0.1150   -0.7980 C.2     1  UNL1       -0.0470
      8  C          6.5850   -0.9330    0.1060 C.2     1  UNL1        0.0040
      9  C          5.8300    1.2480   -0.3540 C.2     1  UNL1        0.0040
     10  C          6.0770   -0.7970    1.3970 C.2     1  UNL1        0.0000
     11  C          5.3170    1.4130    0.9170 C.2     1  UNL1        0.0000
     12  C          5.4550    0.3540    1.7930 C.2     1  UNL1        0.0000
@<TRIPOS>BOND
     1     5     4    1
     2     4     2    1
     3     3     2    2
     4     2     1    1
     5     6     1    1
     6     6     7    1
     7     7     9    2
     8     7     8    1
     9     9    11    1
    10     8    10    2
    11    11    12    2
    12    10    12    1
