@<TRIPOS>MOLECULE
/home/cewinharhar/GITHUB/reincatalyze/data/processed/docking_pred/2023-Apr-25-1829_maxeplen10_maxtrainstep200_exh32_gamma099_lrac3e-4_lrcr1e-3/7076afde4386affa59e586c5ec9b2181426a643f_ligand_2.pdbqt
 12 12 0 0 0
SMALL
GASTEIGER

@<TRIPOS>ATOM
      1  C          8.4610   -0.6020   -2.2210 C.3     1  UNL1        0.1270
      2  C          8.4730   -1.9010   -2.9160 C.2     1  UNL1        0.3030
      3  O          9.5640   -2.5040   -3.0530 O.2     1  UNL1       -0.2520
      4  O          7.3120   -2.4620   -3.4130 O.3     1  UNL1       -0.4810
      5  H          6.4800   -2.6690   -2.8300 H       1  UNL1        0.2960
      6  C          7.0140   -0.1220   -2.1920 C.3     1  UNL1        0.0470
      7  C          6.4960   -0.0010   -0.8180 C.2     1  UNL1       -0.0470
      8  C          5.8800    1.1910   -0.4550 C.2     1  UNL1        0.0040
      9  C          6.5790   -0.9770    0.1410 C.2     1  UNL1        0.0040
     10  C          5.3830    1.3460    0.8380 C.2     1  UNL1        0.0000
     11  C          6.0960   -0.8540    1.4290 C.2     1  UNL1        0.0000
     12  C          5.4900    0.3420    1.7620 C.2     1  UNL1        0.0000
@<TRIPOS>BOND
     1     4     2    1
     2     4     5    1
     3     3     2    2
     4     2     1    1
     5     1     6    1
     6     6     7    1
     7     7     8    2
     8     7     9    1
     9     8    10    1
    10     9    11    2
    11    10    12    2
    12    11    12    1
