MODEL 1
REMARK VINA RESULT:      -7.3      0.000      0.000
REMARK SMILES O=C(O)CCc1ccccc1
REMARK SMILES IDX 4 1 2 2 1 3 3 4 5 6 6 7 7 8 11 9 8 10 10 11 9 12
REMARK H PARENT 3 5
REMARK Flexibility Score: inf
ROOT
ATOM      1  C   UNL     1       8.461  -0.602  -2.221  1.00  0.00     0.127 C 
ENDROOT
BRANCH   1   2
ATOM      2  C   UNL     1       8.473  -1.901  -2.916  1.00  0.00     0.303 C 
ATOM      3  O   UNL     1       9.564  -2.504  -3.053  1.00  0.00    -0.252 OA
BRANCH   2   4
ATOM      4  O   UNL     1       7.312  -2.462  -3.413  1.00  0.00    -0.481 OA
ATOM      5  H   UNL     1       6.480  -2.669  -2.830  1.00  0.00     0.296 HD
ENDBRANCH   2   4
ENDBRANCH   1   2
BRANCH   1   6
ATOM      6  C   UNL     1       7.014  -0.122  -2.192  1.00  0.00     0.047 C 
BRANCH   6   7
ATOM      7  C   UNL     1       6.496  -0.001  -0.818  1.00  0.00    -0.047 A 
ATOM      8  C   UNL     1       5.880   1.191  -0.455  1.00  0.00     0.004 A 
ATOM      9  C   UNL     1       6.579  -0.977   0.141  1.00  0.00     0.004 A 
ATOM     10  C   UNL     1       5.383   1.346   0.838  1.00  0.00     0.000 A 
ATOM     11  C   UNL     1       6.096  -0.854   1.429  1.00  0.00     0.000 A 
ATOM     12  C   UNL     1       5.490   0.342   1.762  1.00  0.00     0.000 A 
ENDBRANCH   6   7
ENDBRANCH   1   6
TORSDOF 4
ENDMDL
MODEL 2
REMARK VINA RESULT:      -7.2      0.120      1.728
REMARK SMILES O=C(O)CCc1ccccc1
REMARK SMILES IDX 4 1 2 2 1 3 3 4 5 6 6 7 7 8 11 9 8 10 10 11 9 12
REMARK H PARENT 3 5
REMARK Flexibility Score: inf
ROOT
ATOM      1  C   UNL     1       8.423  -0.631  -2.133  1.00  0.00     0.127 C 
ENDROOT
BRANCH   1   2
ATOM      2  C   UNL     1       8.401  -1.897  -2.887  1.00  0.00     0.303 C 
ATOM      3  O   UNL     1       7.295  -2.387  -3.213  1.00  0.00    -0.252 OA
BRANCH   2   4
ATOM      4  O   UNL     1       9.569  -2.546  -3.238  1.00  0.00    -0.481 OA
ATOM      5  H   UNL     1      10.145  -2.285  -4.060  1.00  0.00     0.296 HD
ENDBRANCH   2   4
ENDBRANCH   1   2
BRANCH   1   6
ATOM      6  C   UNL     1       7.005  -0.072  -2.154  1.00  0.00     0.047 C 
BRANCH   6   7
ATOM      7  C   UNL     1       6.461   0.115  -0.798  1.00  0.00    -0.047 A 
ATOM      8  C   UNL     1       6.585  -0.933   0.106  1.00  0.00     0.004 A 
ATOM      9  C   UNL     1       5.830   1.248  -0.354  1.00  0.00     0.004 A 
ATOM     10  C   UNL     1       6.077  -0.797   1.397  1.00  0.00     0.000 A 
ATOM     11  C   UNL     1       5.317   1.413   0.917  1.00  0.00     0.000 A 
ATOM     12  C   UNL     1       5.455   0.354   1.793  1.00  0.00     0.000 A 
ENDBRANCH   6   7
ENDBRANCH   1   6
TORSDOF 4
ENDMDL
MODEL 3
REMARK VINA RESULT:      -7.0      0.712      1.601
REMARK SMILES O=C(O)CCc1ccccc1
REMARK SMILES IDX 4 1 2 2 1 3 3 4 5 6 6 7 7 8 11 9 8 10 10 11 9 12
REMARK H PARENT 3 5
REMARK Flexibility Score: inf
ROOT
ATOM      1  C   UNL     1       8.272  -0.526  -2.344  1.00  0.00     0.127 C 
ENDROOT
BRANCH   1   2
ATOM      2  C   UNL     1       8.370  -1.854  -2.975  1.00  0.00     0.303 C 
ATOM      3  O   UNL     1       9.493  -2.404  -3.057  1.00  0.00    -0.252 OA
BRANCH   2   4
ATOM      4  O   UNL     1       7.253  -2.498  -3.474  1.00  0.00    -0.481 OA
ATOM      5  H   UNL     1       6.342  -2.028  -3.629  1.00  0.00     0.296 HD
ENDBRANCH   2   4
ENDBRANCH   1   2
BRANCH   1   6
ATOM      6  C   UNL     1       8.221  -0.750  -0.836  1.00  0.00     0.047 C 
BRANCH   6   7
ATOM      7  C   UNL     1       7.128   0.005  -0.199  1.00  0.00    -0.047 A 
ATOM      8  C   UNL     1       6.790  -0.314   1.111  1.00  0.00     0.004 A 
ATOM      9  C   UNL     1       6.406   1.002  -0.803  1.00  0.00     0.004 A 
ATOM     10  C   UNL     1       5.757   0.373   1.745  1.00  0.00     0.000 A 
ATOM     11  C   UNL     1       5.378   1.700  -0.201  1.00  0.00     0.000 A 
ATOM     12  C   UNL     1       5.064   1.361   1.100  1.00  0.00     0.000 A 
ENDBRANCH   6   7
ENDBRANCH   1   6
TORSDOF 4
ENDMDL
MODEL 4
REMARK VINA RESULT:      -6.8      3.382      5.060
REMARK SMILES O=C(O)CCc1ccccc1
REMARK SMILES IDX 4 1 2 2 1 3 3 4 5 6 6 7 7 8 11 9 8 10 10 11 9 12
REMARK H PARENT 3 5
REMARK Flexibility Score: inf
ROOT
ATOM      1  C   UNL     1       4.971   1.748   0.676  1.00  0.00     0.127 C 
ENDROOT
BRANCH   1   2
ATOM      2  C   UNL     1       4.471   1.122   1.912  1.00  0.00     0.303 C 
ATOM      3  O   UNL     1       5.177   0.254   2.479  1.00  0.00    -0.252 OA
BRANCH   2   4
ATOM      4  O   UNL     1       3.249   1.472   2.454  1.00  0.00    -0.481 OA
ATOM      5  H   UNL     1       2.938   1.184   3.400  1.00  0.00     0.296 HD
ENDBRANCH   2   4
ENDBRANCH   1   2
BRANCH   1   6
ATOM      6  C   UNL     1       6.493   1.750   0.758  1.00  0.00     0.047 C 
BRANCH   6   7
ATOM      7  C   UNL     1       7.110   0.978  -0.336  1.00  0.00    -0.047 A 
ATOM      8  C   UNL     1       8.436   1.241  -0.655  1.00  0.00     0.004 A 
ATOM      9  C   UNL     1       6.470   0.016  -1.075  1.00  0.00     0.004 A 
ATOM     10  C   UNL     1       9.052   0.537  -1.688  1.00  0.00     0.000 A 
ATOM     11  C   UNL     1       7.053  -0.699  -2.103  1.00  0.00     0.000 A 
ATOM     12  C   UNL     1       8.372  -0.415  -2.398  1.00  0.00     0.000 A 
ENDBRANCH   6   7
ENDBRANCH   1   6
TORSDOF 4
ENDMDL
MODEL 5
REMARK VINA RESULT:      -6.5      3.815      4.927
REMARK SMILES O=C(O)CCc1ccccc1
REMARK SMILES IDX 4 1 2 2 1 3 3 4 5 6 6 7 7 8 11 9 8 10 10 11 9 12
REMARK H PARENT 3 5
REMARK Flexibility Score: inf
ROOT
ATOM      1  C   UNL     1       5.673   2.968  -0.054  1.00  0.00     0.127 C 
ENDROOT
BRANCH   1   2
ATOM      2  C   UNL     1       6.346   3.926   0.842  1.00  0.00     0.303 C 
ATOM      3  O   UNL     1       7.126   4.772   0.346  1.00  0.00    -0.252 OA
BRANCH   2   4
ATOM      4  O   UNL     1       6.132   3.908   2.206  1.00  0.00    -0.481 OA
ATOM      5  H   UNL     1       6.456   3.144   2.827  1.00  0.00     0.296 HD
ENDBRANCH   2   4
ENDBRANCH   1   2
BRANCH   1   6
ATOM      6  C   UNL     1       4.999   1.925   0.831  1.00  0.00     0.047 C 
BRANCH   6   7
ATOM      7  C   UNL     1       5.752   0.659   0.869  1.00  0.00    -0.047 A 
ATOM      8  C   UNL     1       6.450   0.279  -0.270  1.00  0.00     0.004 A 
ATOM      9  C   UNL     1       5.815  -0.184   1.948  1.00  0.00     0.004 A 
ATOM     10  C   UNL     1       7.169  -0.915  -0.275  1.00  0.00     0.000 A 
ATOM     11  C   UNL     1       6.518  -1.372   1.975  1.00  0.00     0.000 A 
ATOM     12  C   UNL     1       7.201  -1.725   0.828  1.00  0.00     0.000 A 
ENDBRANCH   6   7
ENDBRANCH   1   6
TORSDOF 4
ENDMDL
