@<TRIPOS>MOLECULE
/home/cewinharhar/GITHUB/reincatalyze/data/processed/docking_pred/2023-Apr-25-1829_maxeplen10_maxtrainstep200_exh32_gamma099_lrac3e-4_lrcr1e-3/7076afde4386affa59e586c5ec9b2181426a643f_ligand_2.pdbqt
 12 12 0 0 0
SMALL
GASTEIGER

@<TRIPOS>ATOM
      1  C          5.6730    2.9680   -0.0540 C.3     1  UNL1        0.1270
      2  C          6.3460    3.9260    0.8420 C.2     1  UNL1        0.3030
      3  O          7.1260    4.7720    0.3460 O.2     1  UNL1       -0.2520
      4  O          6.1320    3.9080    2.2060 O.3     1  UNL1       -0.4810
      5  H          6.4560    3.1440    2.8270 H       1  UNL1        0.2960
      6  C          4.9990    1.9250    0.8310 C.3     1  UNL1        0.0470
      7  C          5.7520    0.6590    0.8690 C.2     1  UNL1       -0.0470
      8  C          6.4500    0.2790   -0.2700 C.2     1  UNL1        0.0040
      9  C          5.8150   -0.1840    1.9480 C.2     1  UNL1        0.0040
     10  C          7.1690   -0.9150   -0.2750 C.2     1  UNL1        0.0000
     11  C          6.5180   -1.3720    1.9750 C.2     1  UNL1        0.0000
     12  C          7.2010   -1.7250    0.8280 C.2     1  UNL1        0.0000
@<TRIPOS>BOND
     1    10     8    1
     2    10    12    2
     3     8     7    2
     4     1     6    1
     5     1     2    1
     6     3     2    2
     7    12    11    1
     8     6     7    1
     9     2     4    1
    10     7     9    1
    11     9    11    2
    12     4     5    1
