@<TRIPOS>MOLECULE
/home/cewinharhar/GITHUB/reincatalyze/data/processed/docking_pred/2023-Apr-25-1829_maxeplen10_maxtrainstep200_exh32_gamma099_lrac3e-4_lrcr1e-3/7076afde4386affa59e586c5ec9b2181426a643f_ligand_2.pdbqt
 12 12 0 0 0
SMALL
GASTEIGER

@<TRIPOS>ATOM
      1  C          8.2720   -0.5260   -2.3440 C.3     1  UNL1        0.1270
      2  C          8.3700   -1.8540   -2.9750 C.2     1  UNL1        0.3030
      3  O          9.4930   -2.4040   -3.0570 O.2     1  UNL1       -0.2520
      4  O          7.2530   -2.4980   -3.4740 O.3     1  UNL1       -0.4810
      5  H          6.3420   -2.0280   -3.6290 H       1  UNL1        0.2960
      6  C          8.2210   -0.7500   -0.8360 C.3     1  UNL1        0.0470
      7  C          7.1280    0.0050   -0.1990 C.2     1  UNL1       -0.0470
      8  C          6.7900   -0.3140    1.1110 C.2     1  UNL1        0.0040
      9  C          6.4060    1.0020   -0.8030 C.2     1  UNL1        0.0040
     10  C          5.7570    0.3730    1.7450 C.2     1  UNL1        0.0000
     11  C          5.3780    1.7000   -0.2010 C.2     1  UNL1        0.0000
     12  C          5.0640    1.3610    1.1000 C.2     1  UNL1        0.0000
@<TRIPOS>BOND
     1     5     4    1
     2     4     2    1
     3     3     2    2
     4     2     1    1
     5     1     6    1
     6     6     7    1
     7     9    11    1
     8     9     7    2
     9    11    12    2
    10     7     8    1
    11    12    10    1
    12     8    10    2
