@<TRIPOS>MOLECULE
/home/cewinharhar/GITHUB/reincatalyze/data/processed/docking_pred/2023-Apr-25-1829_maxeplen10_maxtrainstep200_exh32_gamma099_lrac3e-4_lrcr1e-3/7076afde4386affa59e586c5ec9b2181426a643f_ligand_2.pdbqt
 12 12 0 0 0
SMALL
GASTEIGER

@<TRIPOS>ATOM
      1  C          4.9710    1.7480    0.6760 C.3     1  UNL1        0.1270
      2  C          4.4710    1.1220    1.9120 C.2     1  UNL1        0.3030
      3  O          5.1770    0.2540    2.4790 O.2     1  UNL1       -0.2520
      4  O          3.2490    1.4720    2.4540 O.3     1  UNL1       -0.4810
      5  H          2.9380    1.1840    3.4000 H       1  UNL1        0.2960
      6  C          6.4930    1.7500    0.7580 C.3     1  UNL1        0.0470
      7  C          7.1100    0.9780   -0.3360 C.2     1  UNL1       -0.0470
      8  C          8.4360    1.2410   -0.6550 C.2     1  UNL1        0.0040
      9  C          6.4700    0.0160   -1.0750 C.2     1  UNL1        0.0040
     10  C          9.0520    0.5370   -1.6880 C.2     1  UNL1        0.0000
     11  C          7.0530   -0.6990   -2.1030 C.2     1  UNL1        0.0000
     12  C          8.3720   -0.4150   -2.3980 C.2     1  UNL1        0.0000
@<TRIPOS>BOND
     1    12    11    2
     2    12    10    1
     3    11     9    1
     4    10     8    2
     5     9     7    2
     6     8     7    1
     7     7     6    1
     8     1     6    1
     9     1     2    1
    10     2     4    1
    11     2     3    2
    12     4     5    1
