MODEL 1
REMARK VINA RESULT:      -7.3      0.000      0.000
REMARK SMILES O=C(O)CCc1ccccc1
REMARK SMILES IDX 4 1 2 2 1 3 3 4 5 6 6 7 7 8 11 9 8 10 10 11 9 12
REMARK H PARENT 3 5
REMARK Flexibility Score: inf
ROOT
ATOM      1  C   UNL     1       8.450  -0.662  -2.111  1.00  0.00     0.127 C 
ENDROOT
BRANCH   1   2
ATOM      2  C   UNL     1       8.454  -1.908  -2.897  1.00  0.00     0.303 C 
ATOM      3  O   UNL     1       9.541  -2.505  -3.079  1.00  0.00    -0.252 OA
BRANCH   2   4
ATOM      4  O   UNL     1       7.290  -2.426  -3.430  1.00  0.00    -0.481 OA
ATOM      5  H   UNL     1       6.400  -2.496  -2.903  1.00  0.00     0.296 HD
ENDBRANCH   2   4
ENDBRANCH   1   2
BRANCH   1   6
ATOM      6  C   UNL     1       7.026  -0.118  -2.140  1.00  0.00     0.047 C 
BRANCH   6   7
ATOM      7  C   UNL     1       6.475   0.067  -0.786  1.00  0.00    -0.047 A 
ATOM      8  C   UNL     1       6.605  -0.977   0.122  1.00  0.00     0.004 A 
ATOM      9  C   UNL     1       5.831   1.196  -0.348  1.00  0.00     0.004 A 
ATOM     10  C   UNL     1       6.090  -0.841   1.410  1.00  0.00     0.000 A 
ATOM     11  C   UNL     1       5.311   1.361   0.920  1.00  0.00     0.000 A 
ATOM     12  C   UNL     1       5.455   0.306   1.800  1.00  0.00     0.000 A 
ENDBRANCH   6   7
ENDBRANCH   1   6
TORSDOF 4
ENDMDL
MODEL 2
REMARK VINA RESULT:      -7.3      0.073      1.430
REMARK SMILES O=C(O)CCc1ccccc1
REMARK SMILES IDX 4 1 2 2 1 3 3 4 5 6 6 7 7 8 11 9 8 10 10 11 9 12
REMARK H PARENT 3 5
REMARK Flexibility Score: inf
ROOT
ATOM      1  C   UNL     1       8.473  -0.594  -2.218  1.00  0.00     0.127 C 
ENDROOT
BRANCH   1   2
ATOM      2  C   UNL     1       8.479  -1.882  -2.934  1.00  0.00     0.303 C 
ATOM      3  O   UNL     1       9.566  -2.491  -3.075  1.00  0.00    -0.252 OA
BRANCH   2   4
ATOM      4  O   UNL     1       7.317  -2.427  -3.446  1.00  0.00    -0.481 OA
ATOM      5  H   UNL     1       6.424  -1.906  -3.521  1.00  0.00     0.296 HD
ENDBRANCH   2   4
ENDBRANCH   1   2
BRANCH   1   6
ATOM      6  C   UNL     1       7.027  -0.111  -2.179  1.00  0.00     0.047 C 
BRANCH   6   7
ATOM      7  C   UNL     1       6.513  -0.006  -0.802  1.00  0.00    -0.047 A 
ATOM      8  C   UNL     1       5.872   1.169  -0.431  1.00  0.00     0.004 A 
ATOM      9  C   UNL     1       6.623  -0.983   0.153  1.00  0.00     0.004 A 
ATOM     10  C   UNL     1       5.377   1.308   0.864  1.00  0.00     0.000 A 
ATOM     11  C   UNL     1       6.144  -0.876   1.444  1.00  0.00     0.000 A 
ATOM     12  C   UNL     1       5.512   0.304   1.784  1.00  0.00     0.000 A 
ENDBRANCH   6   7
ENDBRANCH   1   6
TORSDOF 4
ENDMDL
MODEL 3
REMARK VINA RESULT:      -7.1      0.887      1.065
REMARK SMILES O=C(O)CCc1ccccc1
REMARK SMILES IDX 4 1 2 2 1 3 3 4 5 6 6 7 7 8 11 9 8 10 10 11 9 12
REMARK H PARENT 3 5
REMARK Flexibility Score: inf
ROOT
ATOM      1  C   UNL     1       7.319  -1.372  -2.122  1.00  0.00     0.127 C 
ENDROOT
BRANCH   1   2
ATOM      2  C   UNL     1       8.745  -1.416  -2.494  1.00  0.00     0.303 C 
ATOM      3  O   UNL     1       9.511  -0.522  -2.062  1.00  0.00    -0.252 OA
BRANCH   2   4
ATOM      4  O   UNL     1       9.247  -2.418  -3.301  1.00  0.00    -0.481 OA
ATOM      5  H   UNL     1       9.868  -3.174  -2.958  1.00  0.00     0.296 HD
ENDBRANCH   2   4
ENDBRANCH   1   2
BRANCH   1   6
ATOM      6  C   UNL     1       6.949   0.096  -1.941  1.00  0.00     0.047 C 
BRANCH   6   7
ATOM      7  C   UNL     1       6.301   0.349  -0.642  1.00  0.00    -0.047 A 
ATOM      8  C   UNL     1       6.428  -0.615   0.351  1.00  0.00     0.004 A 
ATOM      9  C   UNL     1       5.570   1.467  -0.334  1.00  0.00     0.004 A 
ATOM     10  C   UNL     1       5.823  -0.415   1.591  1.00  0.00     0.000 A 
ATOM     11  C   UNL     1       4.960   1.695   0.884  1.00  0.00     0.000 A 
ATOM     12  C   UNL     1       5.103   0.719   1.851  1.00  0.00     0.000 A 
ENDBRANCH   6   7
ENDBRANCH   1   6
TORSDOF 4
ENDMDL
MODEL 4
REMARK VINA RESULT:      -6.8      3.374      5.093
REMARK SMILES O=C(O)CCc1ccccc1
REMARK SMILES IDX 4 1 2 2 1 3 3 4 5 6 6 7 7 8 11 9 8 10 10 11 9 12
REMARK H PARENT 3 5
REMARK Flexibility Score: inf
ROOT
ATOM      1  C   UNL     1       4.990   1.782   0.719  1.00  0.00     0.127 C 
ENDROOT
BRANCH   1   2
ATOM      2  C   UNL     1       4.473   1.116   1.927  1.00  0.00     0.303 C 
ATOM      3  O   UNL     1       5.167   0.225   2.471  1.00  0.00    -0.252 OA
BRANCH   2   4
ATOM      4  O   UNL     1       3.246   1.454   2.467  1.00  0.00    -0.481 OA
ATOM      5  H   UNL     1       3.084   1.588   3.482  1.00  0.00     0.296 HD
ENDBRANCH   2   4
ENDBRANCH   1   2
BRANCH   1   6
ATOM      6  C   UNL     1       6.512   1.739   0.800  1.00  0.00     0.047 C 
BRANCH   6   7
ATOM      7  C   UNL     1       7.106   0.971  -0.307  1.00  0.00    -0.047 A 
ATOM      8  C   UNL     1       8.426   1.235  -0.652  1.00  0.00     0.004 A 
ATOM      9  C   UNL     1       6.453   0.010  -1.036  1.00  0.00     0.004 A 
ATOM     10  C   UNL     1       9.021   0.533  -1.698  1.00  0.00     0.000 A 
ATOM     11  C   UNL     1       7.014  -0.702  -2.077  1.00  0.00     0.000 A 
ATOM     12  C   UNL     1       8.327  -0.417  -2.397  1.00  0.00     0.000 A 
ENDBRANCH   6   7
ENDBRANCH   1   6
TORSDOF 4
ENDMDL
MODEL 5
REMARK VINA RESULT:      -6.5      2.031      2.652
REMARK SMILES O=C(O)CCc1ccccc1
REMARK SMILES IDX 4 1 2 2 1 3 3 4 5 6 6 7 7 8 11 9 8 10 10 11 9 12
REMARK H PARENT 3 5
REMARK Flexibility Score: inf
ROOT
ATOM      1  C   UNL     1       7.959  -2.339   0.819  1.00  0.00     0.127 C 
ENDROOT
BRANCH   1   2
ATOM      2  C   UNL     1       8.798  -3.433   0.302  1.00  0.00     0.303 C 
ATOM      3  O   UNL     1       8.699  -3.754  -0.906  1.00  0.00    -0.252 OA
BRANCH   2   4
ATOM      4  O   UNL     1       9.687  -4.106   1.118  1.00  0.00    -0.481 OA
ATOM      5  H   UNL     1       9.424  -4.524   2.030  1.00  0.00     0.296 HD
ENDBRANCH   2   4
ENDBRANCH   1   2
BRANCH   1   6
ATOM      6  C   UNL     1       7.527  -1.500  -0.379  1.00  0.00     0.047 C 
BRANCH   6   7
ATOM      7  C   UNL     1       6.657  -0.377   0.013  1.00  0.00    -0.047 A 
ATOM      8  C   UNL     1       6.125  -0.379   1.297  1.00  0.00     0.004 A 
ATOM      9  C   UNL     1       6.323   0.677  -0.798  1.00  0.00     0.004 A 
ATOM     10  C   UNL     1       5.293   0.662   1.702  1.00  0.00     0.000 A 
ATOM     11  C   UNL     1       5.502   1.723  -0.426  1.00  0.00     0.000 A 
ATOM     12  C   UNL     1       4.988   1.693   0.856  1.00  0.00     0.000 A 
ENDBRANCH   6   7
ENDBRANCH   1   6
TORSDOF 4
ENDMDL
