@<TRIPOS>MOLECULE
/home/cewinharhar/GITHUB/reincatalyze/data/processed/docking_pred/2023-Apr-25-1829_maxeplen10_maxtrainstep200_exh32_gamma099_lrac3e-4_lrcr1e-3/718d515b24ba45f014f0b5b5cf87c837722ccc26_ligand_2.pdbqt
 12 12 0 0 0
SMALL
GASTEIGER

@<TRIPOS>ATOM
      1  C          8.4500   -0.6620   -2.1110 C.3     1  UNL1        0.1270
      2  C          8.4540   -1.9080   -2.8970 C.2     1  UNL1        0.3030
      3  O          9.5410   -2.5050   -3.0790 O.2     1  UNL1       -0.2520
      4  O          7.2900   -2.4260   -3.4300 O.3     1  UNL1       -0.4810
      5  H          6.4000   -2.4960   -2.9030 H       1  UNL1        0.2960
      6  C          7.0260   -0.1180   -2.1400 C.3     1  UNL1        0.0470
      7  C          6.4750    0.0670   -0.7860 C.2     1  UNL1       -0.0470
      8  C          6.6050   -0.9770    0.1220 C.2     1  UNL1        0.0040
      9  C          5.8310    1.1960   -0.3480 C.2     1  UNL1        0.0040
     10  C          6.0900   -0.8410    1.4100 C.2     1  UNL1        0.0000
     11  C          5.3110    1.3610    0.9200 C.2     1  UNL1        0.0000
     12  C          5.4550    0.3060    1.8000 C.2     1  UNL1        0.0000
@<TRIPOS>BOND
     1     4     5    1
     2     4     2    1
     3     3     2    2
     4     2     1    1
     5     6     1    1
     6     6     7    1
     7     7     9    2
     8     7     8    1
     9     9    11    1
    10     8    10    2
    11    11    12    2
    12    10    12    1
