@<TRIPOS>MOLECULE
/home/cewinharhar/GITHUB/reincatalyze/data/processed/docking_pred/2023-Apr-25-1829_maxeplen10_maxtrainstep200_exh32_gamma099_lrac3e-4_lrcr1e-3/718d515b24ba45f014f0b5b5cf87c837722ccc26_ligand_2.pdbqt
 12 12 0 0 0
SMALL
GASTEIGER

@<TRIPOS>ATOM
      1  C          4.9900    1.7820    0.7190 C.3     1  UNL1        0.1270
      2  C          4.4730    1.1160    1.9270 C.2     1  UNL1        0.3030
      3  O          5.1670    0.2250    2.4710 O.2     1  UNL1       -0.2520
      4  O          3.2460    1.4540    2.4670 O.3     1  UNL1       -0.4810
      5  H          3.0840    1.5880    3.4820 H       1  UNL1        0.2960
      6  C          6.5120    1.7390    0.8000 C.3     1  UNL1        0.0470
      7  C          7.1060    0.9710   -0.3070 C.2     1  UNL1       -0.0470
      8  C          8.4260    1.2350   -0.6520 C.2     1  UNL1        0.0040
      9  C          6.4530    0.0100   -1.0360 C.2     1  UNL1        0.0040
     10  C          9.0210    0.5330   -1.6980 C.2     1  UNL1        0.0000
     11  C          7.0140   -0.7020   -2.0770 C.2     1  UNL1        0.0000
     12  C          8.3270   -0.4170   -2.3970 C.2     1  UNL1        0.0000
@<TRIPOS>BOND
     1    12    11    2
     2    12    10    1
     3    11     9    1
     4    10     8    2
     5     9     7    2
     6     8     7    1
     7     7     6    1
     8     1     6    1
     9     1     2    1
    10     2     4    1
    11     2     3    2
    12     4     5    1
