@<TRIPOS>MOLECULE
/home/cewinharhar/GITHUB/reincatalyze/data/processed/docking_pred/2023-Apr-25-1829_maxeplen10_maxtrainstep200_exh32_gamma099_lrac3e-4_lrcr1e-3/718d515b24ba45f014f0b5b5cf87c837722ccc26_ligand_2.pdbqt
 12 12 0 0 0
SMALL
GASTEIGER

@<TRIPOS>ATOM
      1  C          7.9590   -2.3390    0.8190 C.3     1  UNL1        0.1270
      2  C          8.7980   -3.4330    0.3020 C.2     1  UNL1        0.3030
      3  O          8.6990   -3.7540   -0.9060 O.2     1  UNL1       -0.2520
      4  O          9.6870   -4.1060    1.1180 O.3     1  UNL1       -0.4810
      5  H          9.4240   -4.5240    2.0300 H       1  UNL1        0.2960
      6  C          7.5270   -1.5000   -0.3790 C.3     1  UNL1        0.0470
      7  C          6.6570   -0.3770    0.0130 C.2     1  UNL1       -0.0470
      8  C          6.1250   -0.3790    1.2970 C.2     1  UNL1        0.0040
      9  C          6.3230    0.6770   -0.7980 C.2     1  UNL1        0.0040
     10  C          5.2930    0.6620    1.7020 C.2     1  UNL1        0.0000
     11  C          5.5020    1.7230   -0.4260 C.2     1  UNL1        0.0000
     12  C          4.9880    1.6930    0.8560 C.2     1  UNL1        0.0000
@<TRIPOS>BOND
     1     3     2    2
     2     9    11    1
     3     9     7    2
     4    11    12    2
     5     6     7    1
     6     6     1    1
     7     7     8    1
     8     2     1    1
     9     2     4    1
    10    12    10    1
    11     4     5    1
    12     8    10    2
