@<TRIPOS>MOLECULE
/home/cewinharhar/GITHUB/reincatalyze/data/processed/docking_pred/2023-Apr-25-1829_maxeplen10_maxtrainstep200_exh32_gamma099_lrac3e-4_lrcr1e-3/718d515b24ba45f014f0b5b5cf87c837722ccc26_ligand_2.pdbqt
 12 12 0 0 0
SMALL
GASTEIGER

@<TRIPOS>ATOM
      1  C          8.4730   -0.5940   -2.2180 C.3     1  UNL1        0.1270
      2  C          8.4790   -1.8820   -2.9340 C.2     1  UNL1        0.3030
      3  O          9.5660   -2.4910   -3.0750 O.2     1  UNL1       -0.2520
      4  O          7.3170   -2.4270   -3.4460 O.3     1  UNL1       -0.4810
      5  H          6.4240   -1.9060   -3.5210 H       1  UNL1        0.2960
      6  C          7.0270   -0.1110   -2.1790 C.3     1  UNL1        0.0470
      7  C          6.5130   -0.0060   -0.8020 C.2     1  UNL1       -0.0470
      8  C          5.8720    1.1690   -0.4310 C.2     1  UNL1        0.0040
      9  C          6.6230   -0.9830    0.1530 C.2     1  UNL1        0.0040
     10  C          5.3770    1.3080    0.8640 C.2     1  UNL1        0.0000
     11  C          6.1440   -0.8760    1.4440 C.2     1  UNL1        0.0000
     12  C          5.5120    0.3040    1.7840 C.2     1  UNL1        0.0000
@<TRIPOS>BOND
     1     5     4    1
     2     4     2    1
     3     3     2    2
     4     2     1    1
     5     1     6    1
     6     6     7    1
     7     7     8    2
     8     7     9    1
     9     8    10    1
    10     9    11    2
    11    10    12    2
    12    11    12    1
