@<TRIPOS>MOLECULE
/home/cewinharhar/GITHUB/reincatalyze/data/processed/docking_pred/2023-Apr-25-1829_maxeplen10_maxtrainstep200_exh32_gamma099_lrac3e-4_lrcr1e-3/718d515b24ba45f014f0b5b5cf87c837722ccc26_ligand_2.pdbqt
 12 12 0 0 0
SMALL
GASTEIGER

@<TRIPOS>ATOM
      1  C          7.3190   -1.3720   -2.1220 C.3     1  UNL1        0.1270
      2  C          8.7450   -1.4160   -2.4940 C.2     1  UNL1        0.3030
      3  O          9.5110   -0.5220   -2.0620 O.2     1  UNL1       -0.2520
      4  O          9.2470   -2.4180   -3.3010 O.3     1  UNL1       -0.4810
      5  H          9.8680   -3.1740   -2.9580 H       1  UNL1        0.2960
      6  C          6.9490    0.0960   -1.9410 C.3     1  UNL1        0.0470
      7  C          6.3010    0.3490   -0.6420 C.2     1  UNL1       -0.0470
      8  C          6.4280   -0.6150    0.3510 C.2     1  UNL1        0.0040
      9  C          5.5700    1.4670   -0.3340 C.2     1  UNL1        0.0040
     10  C          5.8230   -0.4150    1.5910 C.2     1  UNL1        0.0000
     11  C          4.9600    1.6950    0.8840 C.2     1  UNL1        0.0000
     12  C          5.1030    0.7190    1.8510 C.2     1  UNL1        0.0000
@<TRIPOS>BOND
     1     4     5    1
     2     4     2    1
     3     2     1    1
     4     2     3    2
     5     1     6    1
     6     6     7    1
     7     7     9    2
     8     7     8    1
     9     9    11    1
    10     8    10    2
    11    11    12    2
    12    10    12    1
