@<TRIPOS>MOLECULE
/home/cewinharhar/GITHUB/reincatalyze/data/processed/docking_pred/2023-Apr-25-1829_maxeplen10_maxtrainstep200_exh32_gamma099_lrac3e-4_lrcr1e-3/72c4800fcc396c08a923544a0defa9269110c5e0_ligand_2.pdbqt
 12 12 0 0 0
SMALL
GASTEIGER

@<TRIPOS>ATOM
      1  C          5.4810    2.8960   -0.0250 C.3     1  UNL1        0.1270
      2  C          6.2500    3.8400    0.8050 C.2     1  UNL1        0.3030
      3  O          6.8700    4.7740    0.2440 O.2     1  UNL1       -0.2520
      4  O          6.2990    3.7150    2.1810 O.3     1  UNL1       -0.4810
      5  H          5.5200    3.9860    2.8090 H       1  UNL1        0.2960
      6  C          4.8550    1.8760    0.9200 C.3     1  UNL1        0.0470
      7  C          5.6200    0.6180    0.9650 C.2     1  UNL1       -0.0470
      8  C          6.2140    0.1710   -0.2090 C.2     1  UNL1        0.0040
      9  C          5.7900   -0.1580    2.0820 C.2     1  UNL1        0.0040
     10  C          6.9410   -1.0180   -0.2080 C.2     1  UNL1        0.0000
     11  C          6.5040   -1.3390    2.1160 C.2     1  UNL1        0.0000
     12  C          7.0820   -1.7580    0.9340 C.2     1  UNL1        0.0000
@<TRIPOS>BOND
     1     8    10    1
     2     8     7    2
     3    10    12    2
     4     1     2    1
     5     1     6    1
     6     3     2    2
     7     2     4    1
     8     6     7    1
     9    12    11    1
    10     7     9    1
    11     9    11    2
    12     4     5    1
