@<TRIPOS>MOLECULE
/home/cewinharhar/GITHUB/reincatalyze/data/processed/docking_pred/2023-Apr-25-1829_maxeplen10_maxtrainstep200_exh32_gamma099_lrac3e-4_lrcr1e-3/72c4800fcc396c08a923544a0defa9269110c5e0_ligand_2.pdbqt
 12 12 0 0 0
SMALL
GASTEIGER

@<TRIPOS>ATOM
      1  C          8.4350   -0.6830   -2.0670 C.3     1  UNL1        0.1270
      2  C          8.3930   -1.9250   -2.8590 C.2     1  UNL1        0.3030
      3  O          7.2790   -2.3790   -3.2130 O.2     1  UNL1       -0.2520
      4  O          9.5500   -2.5920   -3.2150 O.3     1  UNL1       -0.4810
      5  H          9.9890   -3.3280   -2.6320 H       1  UNL1        0.2960
      6  C          7.0320   -0.0890   -2.0890 C.3     1  UNL1        0.0470
      7  C          6.4440   -0.0020   -0.7410 C.2     1  UNL1       -0.0470
      8  C          5.7930    1.1740   -0.3870 C.2     1  UNL1        0.0040
      9  C          6.4940   -0.9940    0.2040 C.2     1  UNL1        0.0040
     10  C          5.2300    1.2970    0.8820 C.2     1  UNL1        0.0000
     11  C          5.9460   -0.9030    1.4680 C.2     1  UNL1        0.0000
     12  C          5.3060    0.2770    1.7920 C.2     1  UNL1        0.0000
@<TRIPOS>BOND
     1     4     2    1
     2     4     5    1
     3     3     2    2
     4     2     1    1
     5     6     1    1
     6     6     7    1
     7     7     8    2
     8     7     9    1
     9     8    10    1
    10     9    11    2
    11    10    12    2
    12    11    12    1
