MODEL 1
REMARK VINA RESULT:      -7.3      0.000      0.000
REMARK SMILES O=C(O)CCc1ccccc1
REMARK SMILES IDX 4 1 2 2 1 3 3 4 5 6 6 7 7 8 11 9 8 10 10 11 9 12
REMARK H PARENT 3 5
REMARK Flexibility Score: inf
ROOT
ATOM      1  C   UNL     1       8.470  -0.747  -1.985  1.00  0.00     0.127 C 
ENDROOT
BRANCH   1   2
ATOM      2  C   UNL     1       8.464  -1.927  -2.867  1.00  0.00     0.303 C 
ATOM      3  O   UNL     1       9.555  -2.477  -3.149  1.00  0.00    -0.252 OA
BRANCH   2   4
ATOM      4  O   UNL     1       7.288  -2.434  -3.384  1.00  0.00    -0.481 OA
ATOM      5  H   UNL     1       6.593  -2.958  -2.820  1.00  0.00     0.296 HD
ENDBRANCH   2   4
ENDBRANCH   1   2
BRANCH   1   6
ATOM      6  C   UNL     1       7.096  -0.096  -2.099  1.00  0.00     0.047 C 
BRANCH   6   7
ATOM      7  C   UNL     1       6.456   0.085  -0.784  1.00  0.00    -0.047 A 
ATOM      8  C   UNL     1       6.536  -0.958   0.132  1.00  0.00     0.004 A 
ATOM      9  C   UNL     1       5.777   1.209  -0.389  1.00  0.00     0.004 A 
ATOM     10  C   UNL     1       5.938  -0.826   1.383  1.00  0.00     0.000 A 
ATOM     11  C   UNL     1       5.174   1.369   0.843  1.00  0.00     0.000 A 
ATOM     12  C   UNL     1       5.270   0.316   1.731  1.00  0.00     0.000 A 
ENDBRANCH   6   7
ENDBRANCH   1   6
TORSDOF 4
ENDMDL
MODEL 2
REMARK VINA RESULT:      -7.2      0.104      1.729
REMARK SMILES O=C(O)CCc1ccccc1
REMARK SMILES IDX 4 1 2 2 1 3 3 4 5 6 6 7 7 8 11 9 8 10 10 11 9 12
REMARK H PARENT 3 5
REMARK Flexibility Score: inf
ROOT
ATOM      1  C   UNL     1       8.435  -0.683  -2.067  1.00  0.00     0.127 C 
ENDROOT
BRANCH   1   2
ATOM      2  C   UNL     1       8.393  -1.925  -2.859  1.00  0.00     0.303 C 
ATOM      3  O   UNL     1       7.279  -2.379  -3.213  1.00  0.00    -0.252 OA
BRANCH   2   4
ATOM      4  O   UNL     1       9.550  -2.592  -3.215  1.00  0.00    -0.481 OA
ATOM      5  H   UNL     1       9.989  -3.328  -2.632  1.00  0.00     0.296 HD
ENDBRANCH   2   4
ENDBRANCH   1   2
BRANCH   1   6
ATOM      6  C   UNL     1       7.032  -0.089  -2.089  1.00  0.00     0.047 C 
BRANCH   6   7
ATOM      7  C   UNL     1       6.444  -0.002  -0.741  1.00  0.00    -0.047 A 
ATOM      8  C   UNL     1       5.793   1.174  -0.387  1.00  0.00     0.004 A 
ATOM      9  C   UNL     1       6.494  -0.994   0.204  1.00  0.00     0.004 A 
ATOM     10  C   UNL     1       5.230   1.297   0.882  1.00  0.00     0.000 A 
ATOM     11  C   UNL     1       5.946  -0.903   1.468  1.00  0.00     0.000 A 
ATOM     12  C   UNL     1       5.306   0.277   1.792  1.00  0.00     0.000 A 
ENDBRANCH   6   7
ENDBRANCH   1   6
TORSDOF 4
ENDMDL
MODEL 3
REMARK VINA RESULT:      -6.9      3.357      5.104
REMARK SMILES O=C(O)CCc1ccccc1
REMARK SMILES IDX 4 1 2 2 1 3 3 4 5 6 6 7 7 8 11 9 8 10 10 11 9 12
REMARK H PARENT 3 5
REMARK Flexibility Score: inf
ROOT
ATOM      1  C   UNL     1       4.973   1.704   0.694  1.00  0.00     0.127 C 
ENDROOT
BRANCH   1   2
ATOM      2  C   UNL     1       4.450   1.077   1.920  1.00  0.00     0.303 C 
ATOM      3  O   UNL     1       5.125   0.179   2.476  1.00  0.00    -0.252 OA
BRANCH   2   4
ATOM      4  O   UNL     1       3.239   1.460   2.465  1.00  0.00    -0.481 OA
ATOM      5  H   UNL     1       2.382   1.618   1.903  1.00  0.00     0.296 HD
ENDBRANCH   2   4
ENDBRANCH   1   2
BRANCH   1   6
ATOM      6  C   UNL     1       6.494   1.666   0.785  1.00  0.00     0.047 C 
BRANCH   6   7
ATOM      7  C   UNL     1       7.097   0.890  -0.314  1.00  0.00    -0.047 A 
ATOM      8  C   UNL     1       8.396   1.202  -0.698  1.00  0.00     0.004 A 
ATOM      9  C   UNL     1       6.471  -0.120  -0.997  1.00  0.00     0.004 A 
ATOM     10  C   UNL     1       8.998   0.495  -1.737  1.00  0.00     0.000 A 
ATOM     11  C   UNL     1       7.041  -0.839  -2.029  1.00  0.00     0.000 A 
ATOM     12  C   UNL     1       8.332  -0.506  -2.390  1.00  0.00     0.000 A 
ENDBRANCH   6   7
ENDBRANCH   1   6
TORSDOF 4
ENDMDL
MODEL 4
REMARK VINA RESULT:      -6.6      3.822      4.980
REMARK SMILES O=C(O)CCc1ccccc1
REMARK SMILES IDX 4 1 2 2 1 3 3 4 5 6 6 7 7 8 11 9 8 10 10 11 9 12
REMARK H PARENT 3 5
REMARK Flexibility Score: inf
ROOT
ATOM      1  C   UNL     1       5.481   2.896  -0.025  1.00  0.00     0.127 C 
ENDROOT
BRANCH   1   2
ATOM      2  C   UNL     1       6.250   3.840   0.805  1.00  0.00     0.303 C 
ATOM      3  O   UNL     1       6.870   4.774   0.244  1.00  0.00    -0.252 OA
BRANCH   2   4
ATOM      4  O   UNL     1       6.299   3.715   2.181  1.00  0.00    -0.481 OA
ATOM      5  H   UNL     1       5.520   3.986   2.809  1.00  0.00     0.296 HD
ENDBRANCH   2   4
ENDBRANCH   1   2
BRANCH   1   6
ATOM      6  C   UNL     1       4.855   1.876   0.920  1.00  0.00     0.047 C 
BRANCH   6   7
ATOM      7  C   UNL     1       5.620   0.618   0.965  1.00  0.00    -0.047 A 
ATOM      8  C   UNL     1       6.214   0.171  -0.209  1.00  0.00     0.004 A 
ATOM      9  C   UNL     1       5.790  -0.158   2.082  1.00  0.00     0.004 A 
ATOM     10  C   UNL     1       6.941  -1.018  -0.208  1.00  0.00     0.000 A 
ATOM     11  C   UNL     1       6.504  -1.339   2.116  1.00  0.00     0.000 A 
ATOM     12  C   UNL     1       7.082  -1.758   0.934  1.00  0.00     0.000 A 
ENDBRANCH   6   7
ENDBRANCH   1   6
TORSDOF 4
ENDMDL
MODEL 5
REMARK VINA RESULT:      -6.6      2.020      2.477
REMARK SMILES O=C(O)CCc1ccccc1
REMARK SMILES IDX 4 1 2 2 1 3 3 4 5 6 6 7 7 8 11 9 8 10 10 11 9 12
REMARK H PARENT 3 5
REMARK Flexibility Score: inf
ROOT
ATOM      1  C   UNL     1       7.994  -2.126   0.833  1.00  0.00     0.127 C 
ENDROOT
BRANCH   1   2
ATOM      2  C   UNL     1       8.745  -3.287   0.325  1.00  0.00     0.303 C 
ATOM      3  O   UNL     1       9.586  -3.838   1.074  1.00  0.00    -0.252 OA
BRANCH   2   4
ATOM      4  O   UNL     1       8.540  -3.774  -0.951  1.00  0.00    -0.481 OA
ATOM      5  H   UNL     1       8.293  -4.761  -1.155  1.00  0.00     0.296 HD
ENDBRANCH   2   4
ENDBRANCH   1   2
BRANCH   1   6
ATOM      6  C   UNL     1       7.349  -1.447  -0.370  1.00  0.00     0.047 C 
BRANCH   6   7
ATOM      7  C   UNL     1       6.494  -0.314   0.023  1.00  0.00    -0.047 A 
ATOM      8  C   UNL     1       5.882  -0.358   1.270  1.00  0.00     0.004 A 
ATOM      9  C   UNL     1       6.246   0.789  -0.752  1.00  0.00     0.004 A 
ATOM     10  C   UNL     1       5.060   0.692   1.675  1.00  0.00     0.000 A 
ATOM     11  C   UNL     1       5.439   1.845  -0.379  1.00  0.00     0.000 A 
ATOM     12  C   UNL     1       4.843   1.773   0.865  1.00  0.00     0.000 A 
ENDBRANCH   6   7
ENDBRANCH   1   6
TORSDOF 4
ENDMDL
