@<TRIPOS>MOLECULE
/home/cewinharhar/GITHUB/reincatalyze/data/processed/docking_pred/2023-Apr-25-1829_maxeplen10_maxtrainstep200_exh32_gamma099_lrac3e-4_lrcr1e-3/72c4800fcc396c08a923544a0defa9269110c5e0_ligand_2.pdbqt
 12 12 0 0 0
SMALL
GASTEIGER

@<TRIPOS>ATOM
      1  C          4.9730    1.7040    0.6940 C.3     1  UNL1        0.1270
      2  C          4.4500    1.0770    1.9200 C.2     1  UNL1        0.3030
      3  O          5.1250    0.1790    2.4760 O.2     1  UNL1       -0.2520
      4  O          3.2390    1.4600    2.4650 O.3     1  UNL1       -0.4810
      5  H          2.3820    1.6180    1.9030 H       1  UNL1        0.2960
      6  C          6.4940    1.6660    0.7850 C.3     1  UNL1        0.0470
      7  C          7.0970    0.8900   -0.3140 C.2     1  UNL1       -0.0470
      8  C          8.3960    1.2020   -0.6980 C.2     1  UNL1        0.0040
      9  C          6.4710   -0.1200   -0.9970 C.2     1  UNL1        0.0040
     10  C          8.9980    0.4950   -1.7370 C.2     1  UNL1        0.0000
     11  C          7.0410   -0.8390   -2.0290 C.2     1  UNL1        0.0000
     12  C          8.3320   -0.5060   -2.3900 C.2     1  UNL1        0.0000
@<TRIPOS>BOND
     1    12    11    2
     2    12    10    1
     3    11     9    1
     4    10     8    2
     5     9     7    2
     6     8     7    1
     7     7     6    1
     8     1     6    1
     9     1     2    1
    10     5     4    1
    11     2     4    1
    12     2     3    2
