@<TRIPOS>MOLECULE
/home/cewinharhar/GITHUB/reincatalyze/data/processed/docking_pred/2023-Apr-25-1829_maxeplen10_maxtrainstep200_exh32_gamma099_lrac3e-4_lrcr1e-3/72c4800fcc396c08a923544a0defa9269110c5e0_ligand_2.pdbqt
 12 12 0 0 0
SMALL
GASTEIGER

@<TRIPOS>ATOM
      1  C          7.9940   -2.1260    0.8330 C.3     1  UNL1        0.1270
      2  C          8.7450   -3.2870    0.3250 C.2     1  UNL1        0.3030
      3  O          9.5860   -3.8380    1.0740 O.2     1  UNL1       -0.2520
      4  O          8.5400   -3.7740   -0.9510 O.3     1  UNL1       -0.4810
      5  H          8.2930   -4.7610   -1.1550 H       1  UNL1        0.2960
      6  C          7.3490   -1.4470   -0.3700 C.3     1  UNL1        0.0470
      7  C          6.4940   -0.3140    0.0230 C.2     1  UNL1       -0.0470
      8  C          5.8820   -0.3580    1.2700 C.2     1  UNL1        0.0040
      9  C          6.2460    0.7890   -0.7520 C.2     1  UNL1        0.0040
     10  C          5.0600    0.6920    1.6750 C.2     1  UNL1        0.0000
     11  C          5.4390    1.8450   -0.3790 C.2     1  UNL1        0.0000
     12  C          4.8430    1.7730    0.8650 C.2     1  UNL1        0.0000
@<TRIPOS>BOND
     1     5     4    1
     2     4     2    1
     3     9    11    1
     4     9     7    2
     5    11    12    2
     6     6     7    1
     7     6     1    1
     8     7     8    1
     9     2     1    1
    10     2     3    2
    11    12    10    1
    12     8    10    2
