@<TRIPOS>MOLECULE
/home/cewinharhar/GITHUB/reincatalyze/data/processed/docking_pred/2023-Apr-25-1829_maxeplen10_maxtrainstep200_exh32_gamma099_lrac3e-4_lrcr1e-3/72c4800fcc396c08a923544a0defa9269110c5e0_ligand_2.pdbqt
 12 12 0 0 0
SMALL
GASTEIGER

@<TRIPOS>ATOM
      1  C          8.4700   -0.7470   -1.9850 C.3     1  UNL1        0.1270
      2  C          8.4640   -1.9270   -2.8670 C.2     1  UNL1        0.3030
      3  O          9.5550   -2.4770   -3.1490 O.2     1  UNL1       -0.2520
      4  O          7.2880   -2.4340   -3.3840 O.3     1  UNL1       -0.4810
      5  H          6.5930   -2.9580   -2.8200 H       1  UNL1        0.2960
      6  C          7.0960   -0.0960   -2.0990 C.3     1  UNL1        0.0470
      7  C          6.4560    0.0850   -0.7840 C.2     1  UNL1       -0.0470
      8  C          6.5360   -0.9580    0.1320 C.2     1  UNL1        0.0040
      9  C          5.7770    1.2090   -0.3890 C.2     1  UNL1        0.0040
     10  C          5.9380   -0.8260    1.3830 C.2     1  UNL1        0.0000
     11  C          5.1740    1.3690    0.8430 C.2     1  UNL1        0.0000
     12  C          5.2700    0.3160    1.7310 C.2     1  UNL1        0.0000
@<TRIPOS>BOND
     1     4     2    1
     2     4     5    1
     3     3     2    2
     4     2     1    1
     5     6     1    1
     6     6     7    1
     7     7     9    2
     8     7     8    1
     9     9    11    1
    10     8    10    2
    11    11    12    2
    12    10    12    1
