@<TRIPOS>MOLECULE
/home/cewinharhar/GITHUB/reincatalyze/data/processed/docking_pred/2023-Apr-25-1829_maxeplen10_maxtrainstep200_exh32_gamma099_lrac3e-4_lrcr1e-3/73f03501d88ed0f960f592fe5f6124e73644cb01_ligand_2.pdbqt
 12 12 0 0 0
SMALL
GASTEIGER

@<TRIPOS>ATOM
      1  C          8.4510   -0.6360   -2.1390 C.3     1  UNL1        0.1270
      2  C          8.4650   -1.8950   -2.9050 C.2     1  UNL1        0.3030
      3  O          9.5590   -2.4770   -3.0930 O.2     1  UNL1       -0.2520
      4  O          7.3020   -2.4410   -3.4130 O.3     1  UNL1       -0.4810
      5  H          6.3630   -2.2710   -3.0070 H       1  UNL1        0.2960
      6  C          7.0190   -0.1130   -2.1620 C.3     1  UNL1        0.0470
      7  C          6.4750    0.0780   -0.8060 C.2     1  UNL1       -0.0470
      8  C          6.6110   -0.9630    0.1050 C.2     1  UNL1        0.0040
      9  C          5.8330    1.2080   -0.3690 C.2     1  UNL1        0.0040
     10  C          6.1040   -0.8220    1.3950 C.2     1  UNL1        0.0000
     11  C          5.3210    1.3770    0.9010 C.2     1  UNL1        0.0000
     12  C          5.4700    0.3260    1.7850 C.2     1  UNL1        0.0000
@<TRIPOS>BOND
     1     4     5    1
     2     4     2    1
     3     3     2    2
     4     2     1    1
     5     6     1    1
     6     6     7    1
     7     7     9    2
     8     7     8    1
     9     9    11    1
    10     8    10    2
    11    11    12    2
    12    10    12    1
