@<TRIPOS>MOLECULE
/home/cewinharhar/GITHUB/reincatalyze/data/processed/docking_pred/2023-Apr-25-1829_maxeplen10_maxtrainstep200_exh32_gamma099_lrac3e-4_lrcr1e-3/73f03501d88ed0f960f592fe5f6124e73644cb01_ligand_2.pdbqt
 12 12 0 0 0
SMALL
GASTEIGER

@<TRIPOS>ATOM
      1  C          8.3390   -1.0250   -1.7220 C.3     1  UNL1        0.1270
      2  C          8.3720   -2.0310   -2.7980 C.2     1  UNL1        0.3030
      3  O          7.2880   -2.4360   -3.2800 O.2     1  UNL1       -0.2520
      4  O          9.5660   -2.5310   -3.2800 O.3     1  UNL1       -0.4810
      5  H          9.7050   -3.5220   -3.5520 H       1  UNL1        0.2960
      6  C          7.3510   -1.5220   -0.6730 C.3     1  UNL1        0.0470
      7  C          6.5490   -0.4260   -0.1010 C.2     1  UNL1       -0.0470
      8  C          6.2680    0.6690   -0.9100 C.2     1  UNL1        0.0040
      9  C          6.0580   -0.3970    1.1780 C.2     1  UNL1        0.0040
     10  C          5.5170    1.7280   -0.4030 C.2     1  UNL1        0.0000
     11  C          5.3110    0.6370    1.7090 C.2     1  UNL1        0.0000
     12  C          5.0490    1.7120    0.8820 C.2     1  UNL1        0.0000
@<TRIPOS>BOND
     1     5     4    1
     2     3     2    2
     3     4     2    1
     4     2     1    1
     5     1     6    1
     6     8    10    1
     7     8     7    2
     8     6     7    1
     9    10    12    2
    10     7     9    1
    11    12    11    1
    12     9    11    2
