MODEL 1
REMARK VINA RESULT:      -7.3      0.000      0.000
REMARK SMILES O=C(O)CCc1ccccc1
REMARK SMILES IDX 4 1 2 2 1 3 3 4 5 6 6 7 7 8 11 9 8 10 10 11 9 12
REMARK H PARENT 3 5
REMARK Flexibility Score: inf
ROOT
ATOM      1  C   UNL     1       8.451  -0.636  -2.139  1.00  0.00     0.127 C 
ENDROOT
BRANCH   1   2
ATOM      2  C   UNL     1       8.465  -1.895  -2.905  1.00  0.00     0.303 C 
ATOM      3  O   UNL     1       9.559  -2.477  -3.093  1.00  0.00    -0.252 OA
BRANCH   2   4
ATOM      4  O   UNL     1       7.302  -2.441  -3.413  1.00  0.00    -0.481 OA
ATOM      5  H   UNL     1       6.363  -2.271  -3.007  1.00  0.00     0.296 HD
ENDBRANCH   2   4
ENDBRANCH   1   2
BRANCH   1   6
ATOM      6  C   UNL     1       7.019  -0.113  -2.162  1.00  0.00     0.047 C 
BRANCH   6   7
ATOM      7  C   UNL     1       6.475   0.078  -0.806  1.00  0.00    -0.047 A 
ATOM      8  C   UNL     1       6.611  -0.963   0.105  1.00  0.00     0.004 A 
ATOM      9  C   UNL     1       5.833   1.208  -0.369  1.00  0.00     0.004 A 
ATOM     10  C   UNL     1       6.104  -0.822   1.395  1.00  0.00     0.000 A 
ATOM     11  C   UNL     1       5.321   1.377   0.901  1.00  0.00     0.000 A 
ATOM     12  C   UNL     1       5.470   0.326   1.785  1.00  0.00     0.000 A 
ENDBRANCH   6   7
ENDBRANCH   1   6
TORSDOF 4
ENDMDL
MODEL 2
REMARK VINA RESULT:      -7.2      0.078      1.431
REMARK SMILES O=C(O)CCc1ccccc1
REMARK SMILES IDX 4 1 2 2 1 3 3 4 5 6 6 7 7 8 11 9 8 10 10 11 9 12
REMARK H PARENT 3 5
REMARK Flexibility Score: inf
ROOT
ATOM      1  C   UNL     1       8.445  -0.563  -2.254  1.00  0.00     0.127 C 
ENDROOT
BRANCH   1   2
ATOM      2  C   UNL     1       8.473  -1.882  -2.910  1.00  0.00     0.303 C 
ATOM      3  O   UNL     1       9.567  -2.485  -3.009  1.00  0.00    -0.252 OA
BRANCH   2   4
ATOM      4  O   UNL     1       7.323  -2.461  -3.411  1.00  0.00    -0.481 OA
ATOM      5  H   UNL     1       7.286  -2.977  -4.309  1.00  0.00     0.296 HD
ENDBRANCH   2   4
ENDBRANCH   1   2
BRANCH   1   6
ATOM      6  C   UNL     1       6.987  -0.118  -2.204  1.00  0.00     0.047 C 
BRANCH   6   7
ATOM      7  C   UNL     1       6.484  -0.015  -0.823  1.00  0.00    -0.047 A 
ATOM      8  C   UNL     1       5.857   1.165  -0.442  1.00  0.00     0.004 A 
ATOM      9  C   UNL     1       6.592  -0.997   0.127  1.00  0.00     0.004 A 
ATOM     10  C   UNL     1       5.374   1.303   0.858  1.00  0.00     0.000 A 
ATOM     11  C   UNL     1       6.124  -0.891   1.421  1.00  0.00     0.000 A 
ATOM     12  C   UNL     1       5.506   0.293   1.771  1.00  0.00     0.000 A 
ENDBRANCH   6   7
ENDBRANCH   1   6
TORSDOF 4
ENDMDL
MODEL 3
REMARK VINA RESULT:      -7.1      0.646      1.105
REMARK SMILES O=C(O)CCc1ccccc1
REMARK SMILES IDX 4 1 2 2 1 3 3 4 5 6 6 7 7 8 11 9 8 10 10 11 9 12
REMARK H PARENT 3 5
REMARK Flexibility Score: inf
ROOT
ATOM      1  C   UNL     1       8.315  -0.792  -2.061  1.00  0.00     0.127 C 
ENDROOT
BRANCH   1   2
ATOM      2  C   UNL     1       8.402  -1.993  -2.910  1.00  0.00     0.303 C 
ATOM      3  O   UNL     1       9.520  -2.534  -3.080  1.00  0.00    -0.252 OA
BRANCH   2   4
ATOM      4  O   UNL     1       7.282  -2.528  -3.516  1.00  0.00    -0.481 OA
ATOM      5  H   UNL     1       7.177  -3.536  -3.738  1.00  0.00     0.296 HD
ENDBRANCH   2   4
ENDBRANCH   1   2
BRANCH   1   6
ATOM      6  C   UNL     1       7.693  -1.223  -0.738  1.00  0.00     0.047 C 
BRANCH   6   7
ATOM      7  C   UNL     1       6.768  -0.208  -0.202  1.00  0.00    -0.047 A 
ATOM      8  C   UNL     1       6.304  -0.368   1.098  1.00  0.00     0.004 A 
ATOM      9  C   UNL     1       6.320   0.888  -0.892  1.00  0.00     0.004 A 
ATOM     10  C   UNL     1       5.423   0.567   1.638  1.00  0.00     0.000 A 
ATOM     11  C   UNL     1       5.448   1.832  -0.386  1.00  0.00     0.000 A 
ATOM     12  C   UNL     1       5.004   1.646   0.909  1.00  0.00     0.000 A 
ENDBRANCH   6   7
ENDBRANCH   1   6
TORSDOF 4
ENDMDL
MODEL 4
REMARK VINA RESULT:      -7.1      0.663      1.879
REMARK SMILES O=C(O)CCc1ccccc1
REMARK SMILES IDX 4 1 2 2 1 3 3 4 5 6 6 7 7 8 11 9 8 10 10 11 9 12
REMARK H PARENT 3 5
REMARK Flexibility Score: inf
ROOT
ATOM      1  C   UNL     1       8.339  -1.025  -1.722  1.00  0.00     0.127 C 
ENDROOT
BRANCH   1   2
ATOM      2  C   UNL     1       8.372  -2.031  -2.798  1.00  0.00     0.303 C 
ATOM      3  O   UNL     1       7.288  -2.436  -3.280  1.00  0.00    -0.252 OA
BRANCH   2   4
ATOM      4  O   UNL     1       9.566  -2.531  -3.280  1.00  0.00    -0.481 OA
ATOM      5  H   UNL     1       9.705  -3.522  -3.552  1.00  0.00     0.296 HD
ENDBRANCH   2   4
ENDBRANCH   1   2
BRANCH   1   6
ATOM      6  C   UNL     1       7.351  -1.522  -0.673  1.00  0.00     0.047 C 
BRANCH   6   7
ATOM      7  C   UNL     1       6.549  -0.426  -0.101  1.00  0.00    -0.047 A 
ATOM      8  C   UNL     1       6.268   0.669  -0.910  1.00  0.00     0.004 A 
ATOM      9  C   UNL     1       6.058  -0.397   1.178  1.00  0.00     0.004 A 
ATOM     10  C   UNL     1       5.517   1.728  -0.403  1.00  0.00     0.000 A 
ATOM     11  C   UNL     1       5.311   0.637   1.709  1.00  0.00     0.000 A 
ATOM     12  C   UNL     1       5.049   1.712   0.882  1.00  0.00     0.000 A 
ENDBRANCH   6   7
ENDBRANCH   1   6
TORSDOF 4
ENDMDL
MODEL 5
REMARK VINA RESULT:      -6.7      3.382      5.077
REMARK SMILES O=C(O)CCc1ccccc1
REMARK SMILES IDX 4 1 2 2 1 3 3 4 5 6 6 7 7 8 11 9 8 10 10 11 9 12
REMARK H PARENT 3 5
REMARK Flexibility Score: inf
ROOT
ATOM      1  C   UNL     1       4.991   1.766   0.736  1.00  0.00     0.127 C 
ENDROOT
BRANCH   1   2
ATOM      2  C   UNL     1       4.455   1.103   1.937  1.00  0.00     0.303 C 
ATOM      3  O   UNL     1       5.130   0.196   2.480  1.00  0.00    -0.252 OA
BRANCH   2   4
ATOM      4  O   UNL     1       3.233   1.461   2.473  1.00  0.00    -0.481 OA
ATOM      5  H   UNL     1       2.831   1.028   3.324  1.00  0.00     0.296 HD
ENDBRANCH   2   4
ENDBRANCH   1   2
BRANCH   1   6
ATOM      6  C   UNL     1       6.511   1.755   0.858  1.00  0.00     0.047 C 
BRANCH   6   7
ATOM      7  C   UNL     1       7.155   1.066  -0.274  1.00  0.00    -0.047 A 
ATOM      8  C   UNL     1       6.386   0.184  -1.025  1.00  0.00     0.004 A 
ATOM      9  C   UNL     1       8.465   1.221  -0.645  1.00  0.00     0.004 A 
ATOM     10  C   UNL     1       6.962  -0.492  -2.099  1.00  0.00     0.000 A 
ATOM     11  C   UNL     1       9.063   0.567  -1.703  1.00  0.00     0.000 A 
ATOM     12  C   UNL     1       8.275  -0.303  -2.431  1.00  0.00     0.000 A 
ENDBRANCH   6   7
ENDBRANCH   1   6
TORSDOF 4
ENDMDL
