@<TRIPOS>MOLECULE
/home/cewinharhar/GITHUB/reincatalyze/data/processed/docking_pred/2023-Apr-25-1829_maxeplen10_maxtrainstep200_exh32_gamma099_lrac3e-4_lrcr1e-3/73f03501d88ed0f960f592fe5f6124e73644cb01_ligand_2.pdbqt
 12 12 0 0 0
SMALL
GASTEIGER

@<TRIPOS>ATOM
      1  C          8.4450   -0.5630   -2.2540 C.3     1  UNL1        0.1270
      2  C          8.4730   -1.8820   -2.9100 C.2     1  UNL1        0.3030
      3  O          9.5670   -2.4850   -3.0090 O.2     1  UNL1       -0.2520
      4  O          7.3230   -2.4610   -3.4110 O.3     1  UNL1       -0.4810
      5  H          7.2860   -2.9770   -4.3090 H       1  UNL1        0.2960
      6  C          6.9870   -0.1180   -2.2040 C.3     1  UNL1        0.0470
      7  C          6.4840   -0.0150   -0.8230 C.2     1  UNL1       -0.0470
      8  C          5.8570    1.1650   -0.4420 C.2     1  UNL1        0.0040
      9  C          6.5920   -0.9970    0.1270 C.2     1  UNL1        0.0040
     10  C          5.3740    1.3030    0.8580 C.2     1  UNL1        0.0000
     11  C          6.1240   -0.8910    1.4210 C.2     1  UNL1        0.0000
     12  C          5.5060    0.2930    1.7710 C.2     1  UNL1        0.0000
@<TRIPOS>BOND
     1     5     4    1
     2     4     2    1
     3     3     2    2
     4     2     1    1
     5     1     6    1
     6     6     7    1
     7     7     8    2
     8     7     9    1
     9     8    10    1
    10     9    11    2
    11    10    12    2
    12    11    12    1
