@<TRIPOS>MOLECULE
/home/cewinharhar/GITHUB/reincatalyze/data/processed/docking_pred/2023-Apr-25-1829_maxeplen10_maxtrainstep200_exh32_gamma099_lrac3e-4_lrcr1e-3/73f03501d88ed0f960f592fe5f6124e73644cb01_ligand_2.pdbqt
 12 12 0 0 0
SMALL
GASTEIGER

@<TRIPOS>ATOM
      1  C          4.9910    1.7660    0.7360 C.3     1  UNL1        0.1270
      2  C          4.4550    1.1030    1.9370 C.2     1  UNL1        0.3030
      3  O          5.1300    0.1960    2.4800 O.2     1  UNL1       -0.2520
      4  O          3.2330    1.4610    2.4730 O.3     1  UNL1       -0.4810
      5  H          2.8310    1.0280    3.3240 H       1  UNL1        0.2960
      6  C          6.5110    1.7550    0.8580 C.3     1  UNL1        0.0470
      7  C          7.1550    1.0660   -0.2740 C.2     1  UNL1       -0.0470
      8  C          6.3860    0.1840   -1.0250 C.2     1  UNL1        0.0040
      9  C          8.4650    1.2210   -0.6450 C.2     1  UNL1        0.0040
     10  C          6.9620   -0.4920   -2.0990 C.2     1  UNL1        0.0000
     11  C          9.0630    0.5670   -1.7030 C.2     1  UNL1        0.0000
     12  C          8.2750   -0.3030   -2.4310 C.2     1  UNL1        0.0000
@<TRIPOS>BOND
     1    12    10    2
     2    12    11    1
     3    10     8    1
     4    11     9    2
     5     8     7    2
     6     9     7    1
     7     7     6    1
     8     1     6    1
     9     1     2    1
    10     2     4    1
    11     2     3    2
    12     4     5    1
