@<TRIPOS>MOLECULE
/home/cewinharhar/GITHUB/reincatalyze/data/processed/docking_pred/2023-Apr-25-1829_maxeplen10_maxtrainstep200_exh32_gamma099_lrac3e-4_lrcr1e-3/73f03501d88ed0f960f592fe5f6124e73644cb01_ligand_2.pdbqt
 12 12 0 0 0
SMALL
GASTEIGER

@<TRIPOS>ATOM
      1  C          8.3150   -0.7920   -2.0610 C.3     1  UNL1        0.1270
      2  C          8.4020   -1.9930   -2.9100 C.2     1  UNL1        0.3030
      3  O          9.5200   -2.5340   -3.0800 O.2     1  UNL1       -0.2520
      4  O          7.2820   -2.5280   -3.5160 O.3     1  UNL1       -0.4810
      5  H          7.1770   -3.5360   -3.7380 H       1  UNL1        0.2960
      6  C          7.6930   -1.2230   -0.7380 C.3     1  UNL1        0.0470
      7  C          6.7680   -0.2080   -0.2020 C.2     1  UNL1       -0.0470
      8  C          6.3040   -0.3680    1.0980 C.2     1  UNL1        0.0040
      9  C          6.3200    0.8880   -0.8920 C.2     1  UNL1        0.0040
     10  C          5.4230    0.5670    1.6380 C.2     1  UNL1        0.0000
     11  C          5.4480    1.8320   -0.3860 C.2     1  UNL1        0.0000
     12  C          5.0040    1.6460    0.9090 C.2     1  UNL1        0.0000
@<TRIPOS>BOND
     1     5     4    1
     2     4     2    1
     3     3     2    2
     4     2     1    1
     5     1     6    1
     6     9    11    1
     7     9     7    2
     8     6     7    1
     9    11    12    2
    10     7     8    1
    11    12    10    1
    12     8    10    2
