@<TRIPOS>MOLECULE
/home/cewinharhar/GITHUB/reincatalyze/data/processed/docking_pred/2023-Apr-25-1829_maxeplen10_maxtrainstep200_exh32_gamma099_lrac3e-4_lrcr1e-3/7ac8f9624e71b352d93dccd4dc48cb56e96c53c0_ligand_2.pdbqt
 12 12 0 0 0
SMALL
GASTEIGER

@<TRIPOS>ATOM
      1  C          8.4620   -0.6680   -2.0830 C.3     1  UNL1        0.1270
      2  C          8.4760   -1.9100   -2.8750 C.2     1  UNL1        0.3030
      3  O          9.5710   -2.4870   -3.0770 O.2     1  UNL1       -0.2520
      4  O          7.3130   -2.4470   -3.3930 O.3     1  UNL1       -0.4810
      5  H          6.4190   -2.4910   -2.8690 H       1  UNL1        0.2960
      6  C          7.0470   -0.1040   -2.1600 C.3     1  UNL1        0.0470
      7  C          6.4500    0.0820   -0.8260 C.2     1  UNL1       -0.0470
      8  C          6.5470   -0.9640    0.0850 C.2     1  UNL1        0.0040
      9  C          5.7940    1.2110   -0.4090 C.2     1  UNL1        0.0040
     10  C          5.9890   -0.8290    1.3550 C.2     1  UNL1        0.0000
     11  C          5.2320    1.3760    0.8410 C.2     1  UNL1        0.0000
     12  C          5.3430    0.3190    1.7250 C.2     1  UNL1        0.0000
@<TRIPOS>BOND
     1     4     2    1
     2     4     5    1
     3     3     2    2
     4     2     1    1
     5     6     1    1
     6     6     7    1
     7     7     9    2
     8     7     8    1
     9     9    11    1
    10     8    10    2
    11    11    12    2
    12    10    12    1
