@<TRIPOS>MOLECULE
/home/cewinharhar/GITHUB/reincatalyze/data/processed/docking_pred/2023-Apr-25-1829_maxeplen10_maxtrainstep200_exh32_gamma099_lrac3e-4_lrcr1e-3/7ac8f9624e71b352d93dccd4dc48cb56e96c53c0_ligand_2.pdbqt
 12 12 0 0 0
SMALL
GASTEIGER

@<TRIPOS>ATOM
      1  C          8.1900    0.2510   -2.1050 C.3     1  UNL1        0.1270
      2  C          9.3570    0.3610   -1.2130 C.2     1  UNL1        0.3030
      3  O          9.4440   -0.4150   -0.2310 O.2     1  UNL1       -0.2520
      4  O         10.3510    1.2940   -1.4380 O.3     1  UNL1       -0.4810
      5  H         10.1650    2.2610   -1.7640 H       1  UNL1        0.2960
      6  C          7.1810   -0.6580   -1.4130 C.3     1  UNL1        0.0470
      7  C          6.3520    0.0720   -0.4380 C.2     1  UNL1       -0.0470
      8  C          6.0890   -0.5380    0.7830 C.2     1  UNL1        0.0040
      9  C          5.8100    1.3140   -0.6420 C.2     1  UNL1        0.0040
     10  C          5.3030    0.1180    1.7290 C.2     1  UNL1        0.0000
     11  C          5.0290    1.9900    0.2740 C.2     1  UNL1        0.0000
     12  C          4.7830    1.3580    1.4780 C.2     1  UNL1        0.0000
@<TRIPOS>BOND
     1     1     6    1
     2     1     2    1
     3     5     4    1
     4     4     2    1
     5     6     7    1
     6     2     3    2
     7     9     7    2
     8     9    11    1
     9     7     8    1
    10    11    12    2
    11     8    10    2
    12    12    10    1
