@<TRIPOS>MOLECULE
/home/cewinharhar/GITHUB/reincatalyze/data/processed/docking_pred/2023-Apr-25-1829_maxeplen10_maxtrainstep200_exh32_gamma099_lrac3e-4_lrcr1e-3/7ac8f9624e71b352d93dccd4dc48cb56e96c53c0_ligand_2.pdbqt
 12 12 0 0 0
SMALL
GASTEIGER

@<TRIPOS>ATOM
      1  C          8.4140   -0.6870   -2.0520 C.3     1  UNL1        0.1270
      2  C          8.3810   -1.9160   -2.8640 C.2     1  UNL1        0.3030
      3  O          7.2720   -2.3710   -3.2280 O.2     1  UNL1       -0.2520
      4  O          9.5430   -2.5680   -3.2300 O.3     1  UNL1       -0.4810
      5  H          9.6770   -3.5930   -3.1410 H       1  UNL1        0.2960
      6  C          7.0050   -0.1040   -2.0630 C.3     1  UNL1        0.0470
      7  C          6.4310   -0.0120   -0.7090 C.2     1  UNL1       -0.0470
      8  C          5.7950    1.1700   -0.3490 C.2     1  UNL1        0.0040
      9  C          6.4800   -1.0050    0.2340 C.2     1  UNL1        0.0040
     10  C          5.2460    1.2980    0.9260 C.2     1  UNL1        0.0000
     11  C          5.9450   -0.9090    1.5030 C.2     1  UNL1        0.0000
     12  C          5.3200    0.2780    1.8330 C.2     1  UNL1        0.0000
@<TRIPOS>BOND
     1     4     5    1
     2     4     2    1
     3     3     2    2
     4     2     1    1
     5     6     1    1
     6     6     7    1
     7     7     8    2
     8     7     9    1
     9     8    10    1
    10     9    11    2
    11    10    12    2
    12    11    12    1
