@<TRIPOS>MOLECULE
/home/cewinharhar/GITHUB/reincatalyze/data/processed/docking_pred/2023-Apr-25-1829_maxeplen10_maxtrainstep200_exh32_gamma099_lrac3e-4_lrcr1e-3/7ac8f9624e71b352d93dccd4dc48cb56e96c53c0_ligand_2.pdbqt
 12 12 0 0 0
SMALL
GASTEIGER

@<TRIPOS>ATOM
      1  C          5.4800    2.9030   -0.0470 C.3     1  UNL1        0.1270
      2  C          6.2430    3.8450    0.7910 C.2     1  UNL1        0.3030
      3  O          6.8750    4.7740    0.2350 O.2     1  UNL1       -0.2520
      4  O          6.2720    3.7230    2.1670 O.3     1  UNL1       -0.4810
      5  H          7.1450    3.7410    2.7260 H       1  UNL1        0.2960
      6  C          4.8470    1.8810    0.8900 C.3     1  UNL1        0.0470
      7  C          5.6200    0.6270    0.9490 C.2     1  UNL1       -0.0470
      8  C          6.2040    0.1640   -0.2230 C.2     1  UNL1        0.0040
      9  C          5.8040   -0.1290    2.0780 C.2     1  UNL1        0.0040
     10  C          6.9370   -1.0210   -0.2090 C.2     1  UNL1        0.0000
     11  C          6.5250   -1.3060    2.1240 C.2     1  UNL1        0.0000
     12  C          7.0930   -1.7420    0.9440 C.2     1  UNL1        0.0000
@<TRIPOS>BOND
     1     8    10    1
     2     8     7    2
     3    10    12    2
     4     1     2    1
     5     1     6    1
     6     3     2    2
     7     2     4    1
     8     6     7    1
     9    12    11    1
    10     7     9    1
    11     9    11    2
    12     4     5    1
