@<TRIPOS>MOLECULE
/home/cewinharhar/GITHUB/reincatalyze/data/processed/docking_pred/2023-Apr-25-1829_maxeplen10_maxtrainstep200_exh32_gamma099_lrac3e-4_lrcr1e-3/7ac8f9624e71b352d93dccd4dc48cb56e96c53c0_ligand_2.pdbqt
 12 12 0 0 0
SMALL
GASTEIGER

@<TRIPOS>ATOM
      1  C          4.9410    1.7190    0.6850 C.3     1  UNL1        0.1270
      2  C          4.4470    1.0850    1.9200 C.2     1  UNL1        0.3030
      3  O          5.1490    0.2030    2.4700 O.2     1  UNL1       -0.2520
      4  O          3.2360    1.4440    2.4790 O.3     1  UNL1       -0.4810
      5  H          3.1030    2.2890    3.0660 H       1  UNL1        0.2960
      6  C          6.4600    1.7880    0.7940 C.3     1  UNL1        0.0470
      7  C          7.1290    1.0600   -0.2990 C.2     1  UNL1       -0.0470
      8  C          6.3760    0.1570   -1.0400 C.2     1  UNL1        0.0040
      9  C          8.4490    1.1990   -0.6430 C.2     1  UNL1        0.0040
     10  C          6.9740   -0.5550   -2.0780 C.2     1  UNL1        0.0000
     11  C          9.0700    0.5090   -1.6650 C.2     1  UNL1        0.0000
     12  C          8.2960   -0.3820   -2.3830 C.2     1  UNL1        0.0000
@<TRIPOS>BOND
     1    12    10    2
     2    12    11    1
     3    10     8    1
     4    11     9    2
     5     8     7    2
     6     9     7    1
     7     7     6    1
     8     1     6    1
     9     1     2    1
    10     2     3    2
    11     2     4    1
    12     4     5    1
