MODEL 1
REMARK VINA RESULT:      -7.3      0.000      0.000
REMARK SMILES O=C(O)CCc1ccccc1
REMARK SMILES IDX 4 1 2 2 1 3 3 4 5 6 6 7 7 8 11 9 8 10 10 11 9 12
REMARK H PARENT 3 5
REMARK Flexibility Score: inf
ROOT
ATOM      1  C   UNL     1       8.462  -0.668  -2.083  1.00  0.00     0.127 C 
ENDROOT
BRANCH   1   2
ATOM      2  C   UNL     1       8.476  -1.910  -2.875  1.00  0.00     0.303 C 
ATOM      3  O   UNL     1       9.571  -2.487  -3.077  1.00  0.00    -0.252 OA
BRANCH   2   4
ATOM      4  O   UNL     1       7.313  -2.447  -3.393  1.00  0.00    -0.481 OA
ATOM      5  H   UNL     1       6.419  -2.491  -2.869  1.00  0.00     0.296 HD
ENDBRANCH   2   4
ENDBRANCH   1   2
BRANCH   1   6
ATOM      6  C   UNL     1       7.047  -0.104  -2.160  1.00  0.00     0.047 C 
BRANCH   6   7
ATOM      7  C   UNL     1       6.450   0.082  -0.826  1.00  0.00    -0.047 A 
ATOM      8  C   UNL     1       6.547  -0.964   0.085  1.00  0.00     0.004 A 
ATOM      9  C   UNL     1       5.794   1.211  -0.409  1.00  0.00     0.004 A 
ATOM     10  C   UNL     1       5.989  -0.829   1.355  1.00  0.00     0.000 A 
ATOM     11  C   UNL     1       5.232   1.376   0.841  1.00  0.00     0.000 A 
ATOM     12  C   UNL     1       5.343   0.319   1.725  1.00  0.00     0.000 A 
ENDBRANCH   6   7
ENDBRANCH   1   6
TORSDOF 4
ENDMDL
MODEL 2
REMARK VINA RESULT:      -7.3      0.136      1.730
REMARK SMILES O=C(O)CCc1ccccc1
REMARK SMILES IDX 4 1 2 2 1 3 3 4 5 6 6 7 7 8 11 9 8 10 10 11 9 12
REMARK H PARENT 3 5
REMARK Flexibility Score: inf
ROOT
ATOM      1  C   UNL     1       8.414  -0.687  -2.052  1.00  0.00     0.127 C 
ENDROOT
BRANCH   1   2
ATOM      2  C   UNL     1       8.381  -1.916  -2.864  1.00  0.00     0.303 C 
ATOM      3  O   UNL     1       7.272  -2.371  -3.228  1.00  0.00    -0.252 OA
BRANCH   2   4
ATOM      4  O   UNL     1       9.543  -2.568  -3.230  1.00  0.00    -0.481 OA
ATOM      5  H   UNL     1       9.677  -3.593  -3.141  1.00  0.00     0.296 HD
ENDBRANCH   2   4
ENDBRANCH   1   2
BRANCH   1   6
ATOM      6  C   UNL     1       7.005  -0.104  -2.063  1.00  0.00     0.047 C 
BRANCH   6   7
ATOM      7  C   UNL     1       6.431  -0.012  -0.709  1.00  0.00    -0.047 A 
ATOM      8  C   UNL     1       5.795   1.170  -0.349  1.00  0.00     0.004 A 
ATOM      9  C   UNL     1       6.480  -1.005   0.234  1.00  0.00     0.004 A 
ATOM     10  C   UNL     1       5.246   1.298   0.926  1.00  0.00     0.000 A 
ATOM     11  C   UNL     1       5.945  -0.909   1.503  1.00  0.00     0.000 A 
ATOM     12  C   UNL     1       5.320   0.278   1.833  1.00  0.00     0.000 A 
ENDBRANCH   6   7
ENDBRANCH   1   6
TORSDOF 4
ENDMDL
MODEL 3
REMARK VINA RESULT:      -6.9      3.372      5.067
REMARK SMILES O=C(O)CCc1ccccc1
REMARK SMILES IDX 4 1 2 2 1 3 3 4 5 6 6 7 7 8 11 9 8 10 10 11 9 12
REMARK H PARENT 3 5
REMARK Flexibility Score: inf
ROOT
ATOM      1  C   UNL     1       4.941   1.719   0.685  1.00  0.00     0.127 C 
ENDROOT
BRANCH   1   2
ATOM      2  C   UNL     1       4.447   1.085   1.920  1.00  0.00     0.303 C 
ATOM      3  O   UNL     1       5.149   0.203   2.470  1.00  0.00    -0.252 OA
BRANCH   2   4
ATOM      4  O   UNL     1       3.236   1.444   2.479  1.00  0.00    -0.481 OA
ATOM      5  H   UNL     1       3.103   2.289   3.066  1.00  0.00     0.296 HD
ENDBRANCH   2   4
ENDBRANCH   1   2
BRANCH   1   6
ATOM      6  C   UNL     1       6.460   1.788   0.794  1.00  0.00     0.047 C 
BRANCH   6   7
ATOM      7  C   UNL     1       7.129   1.060  -0.299  1.00  0.00    -0.047 A 
ATOM      8  C   UNL     1       6.376   0.157  -1.040  1.00  0.00     0.004 A 
ATOM      9  C   UNL     1       8.449   1.199  -0.643  1.00  0.00     0.004 A 
ATOM     10  C   UNL     1       6.974  -0.555  -2.078  1.00  0.00     0.000 A 
ATOM     11  C   UNL     1       9.070   0.509  -1.665  1.00  0.00     0.000 A 
ATOM     12  C   UNL     1       8.296  -0.382  -2.383  1.00  0.00     0.000 A 
ENDBRANCH   6   7
ENDBRANCH   1   6
TORSDOF 4
ENDMDL
MODEL 4
REMARK VINA RESULT:      -6.6      3.828      4.971
REMARK SMILES O=C(O)CCc1ccccc1
REMARK SMILES IDX 4 1 2 2 1 3 3 4 5 6 6 7 7 8 11 9 8 10 10 11 9 12
REMARK H PARENT 3 5
REMARK Flexibility Score: inf
ROOT
ATOM      1  C   UNL     1       5.480   2.903  -0.047  1.00  0.00     0.127 C 
ENDROOT
BRANCH   1   2
ATOM      2  C   UNL     1       6.243   3.845   0.791  1.00  0.00     0.303 C 
ATOM      3  O   UNL     1       6.875   4.774   0.235  1.00  0.00    -0.252 OA
BRANCH   2   4
ATOM      4  O   UNL     1       6.272   3.723   2.167  1.00  0.00    -0.481 OA
ATOM      5  H   UNL     1       7.145   3.741   2.726  1.00  0.00     0.296 HD
ENDBRANCH   2   4
ENDBRANCH   1   2
BRANCH   1   6
ATOM      6  C   UNL     1       4.847   1.881   0.890  1.00  0.00     0.047 C 
BRANCH   6   7
ATOM      7  C   UNL     1       5.620   0.627   0.949  1.00  0.00    -0.047 A 
ATOM      8  C   UNL     1       6.204   0.164  -0.223  1.00  0.00     0.004 A 
ATOM      9  C   UNL     1       5.804  -0.129   2.078  1.00  0.00     0.004 A 
ATOM     10  C   UNL     1       6.937  -1.021  -0.209  1.00  0.00     0.000 A 
ATOM     11  C   UNL     1       6.525  -1.306   2.124  1.00  0.00     0.000 A 
ATOM     12  C   UNL     1       7.093  -1.742   0.944  1.00  0.00     0.000 A 
ENDBRANCH   6   7
ENDBRANCH   1   6
TORSDOF 4
ENDMDL
MODEL 5
REMARK VINA RESULT:      -6.6      1.916      2.231
REMARK SMILES O=C(O)CCc1ccccc1
REMARK SMILES IDX 4 1 2 2 1 3 3 4 5 6 6 7 7 8 11 9 8 10 10 11 9 12
REMARK H PARENT 3 5
REMARK Flexibility Score: inf
ROOT
ATOM      1  C   UNL     1       8.190   0.251  -2.105  1.00  0.00     0.127 C 
ENDROOT
BRANCH   1   2
ATOM      2  C   UNL     1       9.357   0.361  -1.213  1.00  0.00     0.303 C 
ATOM      3  O   UNL     1       9.444  -0.415  -0.231  1.00  0.00    -0.252 OA
BRANCH   2   4
ATOM      4  O   UNL     1      10.351   1.294  -1.438  1.00  0.00    -0.481 OA
ATOM      5  H   UNL     1      10.165   2.261  -1.764  1.00  0.00     0.296 HD
ENDBRANCH   2   4
ENDBRANCH   1   2
BRANCH   1   6
ATOM      6  C   UNL     1       7.181  -0.658  -1.413  1.00  0.00     0.047 C 
BRANCH   6   7
ATOM      7  C   UNL     1       6.352   0.072  -0.438  1.00  0.00    -0.047 A 
ATOM      8  C   UNL     1       6.089  -0.538   0.783  1.00  0.00     0.004 A 
ATOM      9  C   UNL     1       5.810   1.314  -0.642  1.00  0.00     0.004 A 
ATOM     10  C   UNL     1       5.303   0.118   1.729  1.00  0.00     0.000 A 
ATOM     11  C   UNL     1       5.029   1.990   0.274  1.00  0.00     0.000 A 
ATOM     12  C   UNL     1       4.783   1.358   1.478  1.00  0.00     0.000 A 
ENDBRANCH   6   7
ENDBRANCH   1   6
TORSDOF 4
ENDMDL
