@<TRIPOS>MOLECULE
/home/cewinharhar/GITHUB/reincatalyze/data/processed/docking_pred/2023-Apr-25-1829_maxeplen10_maxtrainstep200_exh32_gamma099_lrac3e-4_lrcr1e-3/7d60c2a66717a3f4b6d307e9593656cfb0aaeeb8_ligand_2.pdbqt
 12 12 0 0 0
SMALL
GASTEIGER

@<TRIPOS>ATOM
      1  C          8.4590   -0.7610   -2.0150 C.3     1  UNL1        0.1270
      2  C          8.4590   -1.9470   -2.8910 C.2     1  UNL1        0.3030
      3  O          9.5400   -2.5450   -3.0990 O.2     1  UNL1       -0.2520
      4  O          7.2960   -2.4070   -3.4790 O.3     1  UNL1       -0.4810
      5  H          7.2280   -3.3110   -3.9820 H       1  UNL1        0.2960
      6  C          7.0640   -0.1500   -2.0890 C.3     1  UNL1        0.0470
      7  C          6.4790    0.0620   -0.7530 C.2     1  UNL1       -0.0470
      8  C          6.6190   -0.9490    0.1900 C.2     1  UNL1        0.0040
      9  C          5.7970    1.1860   -0.3640 C.2     1  UNL1        0.0040
     10  C          6.0730   -0.7890    1.4620 C.2     1  UNL1        0.0000
     11  C          5.2460    1.3750    0.8880 C.2     1  UNL1        0.0000
     12  C          5.4000    0.3520    1.8030 C.2     1  UNL1        0.0000
@<TRIPOS>BOND
     1     5     4    1
     2     4     2    1
     3     3     2    2
     4     2     1    1
     5     6     1    1
     6     6     7    1
     7     7     9    2
     8     7     8    1
     9     9    11    1
    10     8    10    2
    11    11    12    2
    12    10    12    1
