@<TRIPOS>MOLECULE
/home/cewinharhar/GITHUB/reincatalyze/data/processed/docking_pred/2023-Apr-25-1829_maxeplen10_maxtrainstep200_exh32_gamma099_lrac3e-4_lrcr1e-3/7d60c2a66717a3f4b6d307e9593656cfb0aaeeb8_ligand_2.pdbqt
 12 12 0 0 0
SMALL
GASTEIGER

@<TRIPOS>ATOM
      1  C          4.9720    1.7630    0.6850 C.3     1  UNL1        0.1270
      2  C          4.4710    1.1210    1.9120 C.2     1  UNL1        0.3030
      3  O          5.1750    0.2450    2.4680 O.2     1  UNL1       -0.2520
      4  O          3.2480    1.4650    2.4570 O.3     1  UNL1       -0.4810
      5  H          2.3520    1.0240    2.1780 H       1  UNL1        0.2960
      6  C          6.4910    1.8200    0.7970 C.3     1  UNL1        0.0470
      7  C          7.1570    1.0990   -0.3030 C.2     1  UNL1       -0.0470
      8  C          6.3920    0.2310   -1.0730 C.2     1  UNL1        0.0040
      9  C          8.4840    1.2120   -0.6260 C.2     1  UNL1        0.0040
     10  C          6.9870   -0.4730   -2.1180 C.2     1  UNL1        0.0000
     11  C          9.1030    0.5290   -1.6540 C.2     1  UNL1        0.0000
     12  C          8.3170   -0.3270   -2.4020 C.2     1  UNL1        0.0000
@<TRIPOS>BOND
     1    12    10    2
     2    12    11    1
     3    10     8    1
     4    11     9    2
     5     8     7    2
     6     9     7    1
     7     7     6    1
     8     1     6    1
     9     1     2    1
    10     2     4    1
    11     2     3    2
    12     5     4    1
