@<TRIPOS>MOLECULE
/home/cewinharhar/GITHUB/reincatalyze/data/processed/docking_pred/2023-Apr-25-1829_maxeplen10_maxtrainstep200_exh32_gamma099_lrac3e-4_lrcr1e-3/7d60c2a66717a3f4b6d307e9593656cfb0aaeeb8_ligand_2.pdbqt
 12 12 0 0 0
SMALL
GASTEIGER

@<TRIPOS>ATOM
      1  C          8.4560   -0.6840   -2.0640 C.3     1  UNL1        0.1270
      2  C          8.4110   -1.9180   -2.8680 C.2     1  UNL1        0.3030
      3  O          7.2950   -2.3820   -3.2020 O.2     1  UNL1       -0.2520
      4  O          9.5670   -2.5650   -3.2580 O.3     1  UNL1       -0.4810
      5  H          9.7050   -2.9750   -4.2010 H       1  UNL1        0.2960
      6  C          7.0550   -0.0820   -2.0880 C.3     1  UNL1        0.0470
      7  C          6.4820    0.0470   -0.7360 C.2     1  UNL1       -0.0470
      8  C          5.8280    1.2300   -0.4140 C.2     1  UNL1        0.0040
      9  C          6.5490   -0.9140    0.2400 C.2     1  UNL1        0.0040
     10  C          5.2790    1.3920    0.8570 C.2     1  UNL1        0.0000
     11  C          6.0150   -0.7830    1.5070 C.2     1  UNL1        0.0000
     12  C          5.3720    0.4030    1.7980 C.2     1  UNL1        0.0000
@<TRIPOS>BOND
     1     5     4    1
     2     4     2    1
     3     3     2    2
     4     2     1    1
     5     6     1    1
     6     6     7    1
     7     7     8    2
     8     7     9    1
     9     8    10    1
    10     9    11    2
    11    10    12    2
    12    11    12    1
