@<TRIPOS>MOLECULE
/home/cewinharhar/GITHUB/reincatalyze/data/processed/docking_pred/2023-Apr-25-1829_maxeplen10_maxtrainstep200_exh32_gamma099_lrac3e-4_lrcr1e-3/7d60c2a66717a3f4b6d307e9593656cfb0aaeeb8_ligand_2.pdbqt
 12 12 0 0 0
SMALL
GASTEIGER

@<TRIPOS>ATOM
      1  C          8.2260    0.2480   -2.2620 C.3     1  UNL1        0.1270
      2  C          9.3380    0.3460   -1.3000 C.2     1  UNL1        0.3030
      3  O          9.3810   -0.4590   -0.3400 O.2     1  UNL1       -0.2520
      4  O         10.3260    1.3020   -1.4370 O.3     1  UNL1       -0.4810
      5  H         10.2980    2.0570   -2.1470 H       1  UNL1        0.2960
      6  C          7.1020   -0.5170   -1.5710 C.3     1  UNL1        0.0470
      7  C          6.3220    0.3410   -0.6630 C.2     1  UNL1       -0.0470
      8  C          6.0950   -0.1130    0.6310 C.2     1  UNL1        0.0040
      9  C          5.7920    1.5610   -0.9970 C.2     1  UNL1        0.0040
     10  C          5.3550    0.6680    1.5180 C.2     1  UNL1        0.0000
     11  C          5.0570    2.3570   -0.1420 C.2     1  UNL1        0.0000
     12  C          4.8460    1.8800    1.1370 C.2     1  UNL1        0.0000
@<TRIPOS>BOND
     1     1     6    1
     2     1     2    1
     3     5     4    1
     4     6     7    1
     5     4     2    1
     6     2     3    2
     7     9     7    2
     8     9    11    1
     9     7     8    1
    10    11    12    2
    11     8    10    2
    12    12    10    1
