@<TRIPOS>MOLECULE
/home/cewinharhar/GITHUB/reincatalyze/data/processed/docking_pred/2023-Apr-25-1829_maxeplen10_maxtrainstep200_exh32_gamma099_lrac3e-4_lrcr1e-3/7d60c2a66717a3f4b6d307e9593656cfb0aaeeb8_ligand_2.pdbqt
 12 12 0 0 0
SMALL
GASTEIGER

@<TRIPOS>ATOM
      1  C          8.0340   -2.1820    0.8210 C.3     1  UNL1        0.1270
      2  C          8.7710   -3.3500    0.3080 C.2     1  UNL1        0.3030
      3  O          9.6090   -3.9120    1.0520 O.2     1  UNL1       -0.2520
      4  O          8.5570   -3.8320   -0.9690 O.3     1  UNL1       -0.4810
      5  H          7.6560   -3.7380   -1.4740 H       1  UNL1        0.2960
      6  C          7.4690   -1.4430   -0.3860 C.3     1  UNL1        0.0470
      7  C          6.6050   -0.3150    0.0070 C.2     1  UNL1       -0.0470
      8  C          6.0770   -0.3130    1.2930 C.2     1  UNL1        0.0040
      9  C          6.2730    0.7400   -0.8040 C.2     1  UNL1        0.0040
     10  C          5.2510    0.7320    1.6990 C.2     1  UNL1        0.0000
     11  C          5.4580    1.7900   -0.4300 C.2     1  UNL1        0.0000
     12  C          4.9470    1.7640    0.8530 C.2     1  UNL1        0.0000
@<TRIPOS>BOND
     1     5     4    1
     2     4     2    1
     3     9    11    1
     4     9     7    2
     5    11    12    2
     6     6     7    1
     7     6     1    1
     8     7     8    1
     9     2     1    1
    10     2     3    2
    11    12    10    1
    12     8    10    2
