@<TRIPOS>MOLECULE
/home/cewinharhar/GITHUB/reincatalyze/data/processed/docking_pred/2023-Apr-25-1829_maxeplen10_maxtrainstep200_exh32_gamma099_lrac3e-4_lrcr1e-3/7e2b2812a39c1bf8d23d6aab3a18bb39f1acac0e_ligand_2.pdbqt
 12 12 0 0 0
SMALL
GASTEIGER

@<TRIPOS>ATOM
      1  C          4.9760    1.7460    0.7270 C.3     1  UNL1        0.1270
      2  C          4.4520    1.0960    1.9410 C.2     1  UNL1        0.3030
      3  O          5.1350    0.2000    2.4900 O.2     1  UNL1       -0.2520
      4  O          3.2310    1.4550    2.4790 O.3     1  UNL1       -0.4810
      5  H          2.4470    1.8370    1.9180 H       1  UNL1        0.2960
      6  C          6.4960    1.7660    0.8490 C.3     1  UNL1        0.0470
      7  C          7.1530    1.0750   -0.2740 C.2     1  UNL1       -0.0470
      8  C          6.3900    0.2030   -1.0420 C.2     1  UNL1        0.0040
      9  C          8.4710    1.2200   -0.6220 C.2     1  UNL1        0.0040
     10  C          6.9770   -0.4740   -2.1090 C.2     1  UNL1        0.0000
     11  C          9.0810    0.5640   -1.6730 C.2     1  UNL1        0.0000
     12  C          8.2980   -0.2960   -2.4180 C.2     1  UNL1        0.0000
@<TRIPOS>BOND
     1    12    10    2
     2    12    11    1
     3    10     8    1
     4    11     9    2
     5     8     7    2
     6     9     7    1
     7     7     6    1
     8     1     6    1
     9     1     2    1
    10     5     4    1
    11     2     4    1
    12     2     3    2
