@<TRIPOS>MOLECULE
/home/cewinharhar/GITHUB/reincatalyze/data/processed/docking_pred/2023-Apr-25-1829_maxeplen10_maxtrainstep200_exh32_gamma099_lrac3e-4_lrcr1e-3/7e2b2812a39c1bf8d23d6aab3a18bb39f1acac0e_ligand_2.pdbqt
 12 12 0 0 0
SMALL
GASTEIGER

@<TRIPOS>ATOM
      1  C          5.4710    2.9020   -0.0230 C.3     1  UNL1        0.1270
      2  C          6.2460    3.8510    0.7940 C.2     1  UNL1        0.3030
      3  O          6.8710    4.7740    0.2200 O.2     1  UNL1       -0.2520
      4  O          6.2950    3.7430    2.1710 O.3     1  UNL1       -0.4810
      5  H          5.4790    3.9120    2.7880 H       1  UNL1        0.2960
      6  C          4.9210    1.8410    0.9230 C.3     1  UNL1        0.0470
      7  C          5.7210    0.6040    0.8970 C.2     1  UNL1       -0.0470
      8  C          5.7890   -0.1550    2.0590 C.2     1  UNL1        0.0040
      9  C          6.4160    0.1410   -0.1900 C.2     1  UNL1        0.0040
     10  C          6.5410   -1.3280    2.0760 C.2     1  UNL1        0.0000
     11  C          7.1690   -1.0170   -0.2050 C.2     1  UNL1        0.0000
     12  C          7.2180   -1.7500    0.9650 C.2     1  UNL1        0.0000
@<TRIPOS>BOND
     1    11     9    1
     2    11    12    2
     3     9     7    2
     4     1     2    1
     5     1     6    1
     6     3     2    2
     7     2     4    1
     8     7     6    1
     9     7     8    1
    10    12    10    1
    11     8    10    2
    12     4     5    1
