@<TRIPOS>MOLECULE
/home/cewinharhar/GITHUB/reincatalyze/data/processed/docking_pred/2023-Apr-25-1829_maxeplen10_maxtrainstep200_exh32_gamma099_lrac3e-4_lrcr1e-3/7e2b2812a39c1bf8d23d6aab3a18bb39f1acac0e_ligand_2.pdbqt
 12 12 0 0 0
SMALL
GASTEIGER

@<TRIPOS>ATOM
      1  C          8.4930   -0.6730   -2.1000 C.3     1  UNL1        0.1270
      2  C          8.4850   -1.9010   -2.9130 C.2     1  UNL1        0.3030
      3  O          9.5680   -2.4970   -3.1220 O.2     1  UNL1       -0.2520
      4  O          7.3130   -2.4050   -3.4440 O.3     1  UNL1       -0.4810
      5  H          7.2610   -2.8950   -4.3560 H       1  UNL1        0.2960
      6  C          7.0940   -0.0730   -2.1800 C.3     1  UNL1        0.0470
      7  C          6.5010    0.1330   -0.8470 C.2     1  UNL1       -0.0470
      8  C          6.6480   -0.8760    0.0970 C.2     1  UNL1        0.0040
      9  C          5.8040    1.2490   -0.4620 C.2     1  UNL1        0.0040
     10  C          6.0950   -0.7210    1.3670 C.2     1  UNL1        0.0000
     11  C          5.2450    1.4330    0.7880 C.2     1  UNL1        0.0000
     12  C          5.4070    0.4120    1.7050 C.2     1  UNL1        0.0000
@<TRIPOS>BOND
     1     5     4    1
     2     4     2    1
     3     3     2    2
     4     2     1    1
     5     6     1    1
     6     6     7    1
     7     7     9    2
     8     7     8    1
     9     9    11    1
    10     8    10    2
    11    11    12    2
    12    10    12    1
