MODEL 1
REMARK VINA RESULT:      -7.3      0.000      0.000
REMARK SMILES O=C(O)CCc1ccccc1
REMARK SMILES IDX 4 1 2 2 1 3 3 4 5 6 6 7 7 8 11 9 8 10 10 11 9 12
REMARK H PARENT 3 5
REMARK Flexibility Score: inf
ROOT
ATOM      1  C   UNL     1       8.493  -0.673  -2.100  1.00  0.00     0.127 C 
ENDROOT
BRANCH   1   2
ATOM      2  C   UNL     1       8.485  -1.901  -2.913  1.00  0.00     0.303 C 
ATOM      3  O   UNL     1       9.568  -2.497  -3.122  1.00  0.00    -0.252 OA
BRANCH   2   4
ATOM      4  O   UNL     1       7.313  -2.405  -3.444  1.00  0.00    -0.481 OA
ATOM      5  H   UNL     1       7.261  -2.895  -4.356  1.00  0.00     0.296 HD
ENDBRANCH   2   4
ENDBRANCH   1   2
BRANCH   1   6
ATOM      6  C   UNL     1       7.094  -0.073  -2.180  1.00  0.00     0.047 C 
BRANCH   6   7
ATOM      7  C   UNL     1       6.501   0.133  -0.847  1.00  0.00    -0.047 A 
ATOM      8  C   UNL     1       6.648  -0.876   0.097  1.00  0.00     0.004 A 
ATOM      9  C   UNL     1       5.804   1.249  -0.462  1.00  0.00     0.004 A 
ATOM     10  C   UNL     1       6.095  -0.721   1.367  1.00  0.00     0.000 A 
ATOM     11  C   UNL     1       5.245   1.433   0.788  1.00  0.00     0.000 A 
ATOM     12  C   UNL     1       5.407   0.412   1.705  1.00  0.00     0.000 A 
ENDBRANCH   6   7
ENDBRANCH   1   6
TORSDOF 4
ENDMDL
MODEL 2
REMARK VINA RESULT:      -7.3      0.131      1.435
REMARK SMILES O=C(O)CCc1ccccc1
REMARK SMILES IDX 4 1 2 2 1 3 3 4 5 6 6 7 7 8 11 9 8 10 10 11 9 12
REMARK H PARENT 3 5
REMARK Flexibility Score: inf
ROOT
ATOM      1  C   UNL     1       8.449  -0.571  -2.231  1.00  0.00     0.127 C 
ENDROOT
BRANCH   1   2
ATOM      2  C   UNL     1       8.475  -1.864  -2.937  1.00  0.00     0.303 C 
ATOM      3  O   UNL     1       9.569  -2.461  -3.068  1.00  0.00    -0.252 OA
BRANCH   2   4
ATOM      4  O   UNL     1       7.322  -2.426  -3.451  1.00  0.00    -0.481 OA
ATOM      5  H   UNL     1       7.138  -3.446  -3.463  1.00  0.00     0.296 HD
ENDBRANCH   2   4
ENDBRANCH   1   2
BRANCH   1   6
ATOM      6  C   UNL     1       6.995  -0.115  -2.182  1.00  0.00     0.047 C 
BRANCH   6   7
ATOM      7  C   UNL     1       6.493  -0.007  -0.801  1.00  0.00    -0.047 A 
ATOM      8  C   UNL     1       5.839   1.163  -0.433  1.00  0.00     0.004 A 
ATOM      9  C   UNL     1       6.625  -0.975   0.160  1.00  0.00     0.004 A 
ATOM     10  C   UNL     1       5.356   1.305   0.866  1.00  0.00     0.000 A 
ATOM     11  C   UNL     1       6.157  -0.864   1.454  1.00  0.00     0.000 A 
ATOM     12  C   UNL     1       5.513   0.310   1.791  1.00  0.00     0.000 A 
ENDBRANCH   6   7
ENDBRANCH   1   6
TORSDOF 4
ENDMDL
MODEL 3
REMARK VINA RESULT:      -7.2      0.624      1.085
REMARK SMILES O=C(O)CCc1ccccc1
REMARK SMILES IDX 4 1 2 2 1 3 3 4 5 6 6 7 7 8 11 9 8 10 10 11 9 12
REMARK H PARENT 3 5
REMARK Flexibility Score: inf
ROOT
ATOM      1  C   UNL     1       8.319  -0.957  -1.840  1.00  0.00     0.127 C 
ENDROOT
BRANCH   1   2
ATOM      2  C   UNL     1       8.405  -2.030  -2.845  1.00  0.00     0.303 C 
ATOM      3  O   UNL     1       9.529  -2.511  -3.123  1.00  0.00    -0.252 OA
BRANCH   2   4
ATOM      4  O   UNL     1       7.277  -2.513  -3.481  1.00  0.00    -0.481 OA
ATOM      5  H   UNL     1       7.241  -3.428  -3.967  1.00  0.00     0.296 HD
ENDBRANCH   2   4
ENDBRANCH   1   2
BRANCH   1   6
ATOM      6  C   UNL     1       7.369  -1.439  -0.749  1.00  0.00     0.047 C 
BRANCH   6   7
ATOM      7  C   UNL     1       6.563  -0.340  -0.189  1.00  0.00    -0.047 A 
ATOM      8  C   UNL     1       6.125  -0.455   1.125  1.00  0.00     0.004 A 
ATOM      9  C   UNL     1       6.202   0.795  -0.868  1.00  0.00     0.004 A 
ATOM     10  C   UNL     1       5.355   0.560   1.689  1.00  0.00     0.000 A 
ATOM     11  C   UNL     1       5.441   1.817  -0.338  1.00  0.00     0.000 A 
ATOM     12  C   UNL     1       5.020   1.675   0.970  1.00  0.00     0.000 A 
ENDBRANCH   6   7
ENDBRANCH   1   6
TORSDOF 4
ENDMDL
MODEL 4
REMARK VINA RESULT:      -6.8      3.384      5.086
REMARK SMILES O=C(O)CCc1ccccc1
REMARK SMILES IDX 4 1 2 2 1 3 3 4 5 6 6 7 7 8 11 9 8 10 10 11 9 12
REMARK H PARENT 3 5
REMARK Flexibility Score: inf
ROOT
ATOM      1  C   UNL     1       4.976   1.746   0.727  1.00  0.00     0.127 C 
ENDROOT
BRANCH   1   2
ATOM      2  C   UNL     1       4.452   1.096   1.941  1.00  0.00     0.303 C 
ATOM      3  O   UNL     1       5.135   0.200   2.490  1.00  0.00    -0.252 OA
BRANCH   2   4
ATOM      4  O   UNL     1       3.231   1.455   2.479  1.00  0.00    -0.481 OA
ATOM      5  H   UNL     1       2.447   1.837   1.918  1.00  0.00     0.296 HD
ENDBRANCH   2   4
ENDBRANCH   1   2
BRANCH   1   6
ATOM      6  C   UNL     1       6.496   1.766   0.849  1.00  0.00     0.047 C 
BRANCH   6   7
ATOM      7  C   UNL     1       7.153   1.075  -0.274  1.00  0.00    -0.047 A 
ATOM      8  C   UNL     1       6.390   0.203  -1.042  1.00  0.00     0.004 A 
ATOM      9  C   UNL     1       8.471   1.220  -0.622  1.00  0.00     0.004 A 
ATOM     10  C   UNL     1       6.977  -0.474  -2.109  1.00  0.00     0.000 A 
ATOM     11  C   UNL     1       9.081   0.564  -1.673  1.00  0.00     0.000 A 
ATOM     12  C   UNL     1       8.298  -0.296  -2.418  1.00  0.00     0.000 A 
ENDBRANCH   6   7
ENDBRANCH   1   6
TORSDOF 4
ENDMDL
MODEL 5
REMARK VINA RESULT:      -6.7      3.820      4.942
REMARK SMILES O=C(O)CCc1ccccc1
REMARK SMILES IDX 4 1 2 2 1 3 3 4 5 6 6 7 7 8 11 9 8 10 10 11 9 12
REMARK H PARENT 3 5
REMARK Flexibility Score: inf
ROOT
ATOM      1  C   UNL     1       5.471   2.902  -0.023  1.00  0.00     0.127 C 
ENDROOT
BRANCH   1   2
ATOM      2  C   UNL     1       6.246   3.851   0.794  1.00  0.00     0.303 C 
ATOM      3  O   UNL     1       6.871   4.774   0.220  1.00  0.00    -0.252 OA
BRANCH   2   4
ATOM      4  O   UNL     1       6.295   3.743   2.171  1.00  0.00    -0.481 OA
ATOM      5  H   UNL     1       5.479   3.912   2.788  1.00  0.00     0.296 HD
ENDBRANCH   2   4
ENDBRANCH   1   2
BRANCH   1   6
ATOM      6  C   UNL     1       4.921   1.841   0.923  1.00  0.00     0.047 C 
BRANCH   6   7
ATOM      7  C   UNL     1       5.721   0.604   0.897  1.00  0.00    -0.047 A 
ATOM      8  C   UNL     1       5.789  -0.155   2.059  1.00  0.00     0.004 A 
ATOM      9  C   UNL     1       6.416   0.141  -0.190  1.00  0.00     0.004 A 
ATOM     10  C   UNL     1       6.541  -1.328   2.076  1.00  0.00     0.000 A 
ATOM     11  C   UNL     1       7.169  -1.017  -0.205  1.00  0.00     0.000 A 
ATOM     12  C   UNL     1       7.218  -1.750   0.965  1.00  0.00     0.000 A 
ENDBRANCH   6   7
ENDBRANCH   1   6
TORSDOF 4
ENDMDL
