@<TRIPOS>MOLECULE
/home/cewinharhar/GITHUB/reincatalyze/data/processed/docking_pred/2023-Apr-25-1829_maxeplen10_maxtrainstep200_exh32_gamma099_lrac3e-4_lrcr1e-3/7e2b2812a39c1bf8d23d6aab3a18bb39f1acac0e_ligand_2.pdbqt
 12 12 0 0 0
SMALL
GASTEIGER

@<TRIPOS>ATOM
      1  C          8.3190   -0.9570   -1.8400 C.3     1  UNL1        0.1270
      2  C          8.4050   -2.0300   -2.8450 C.2     1  UNL1        0.3030
      3  O          9.5290   -2.5110   -3.1230 O.2     1  UNL1       -0.2520
      4  O          7.2770   -2.5130   -3.4810 O.3     1  UNL1       -0.4810
      5  H          7.2410   -3.4280   -3.9670 H       1  UNL1        0.2960
      6  C          7.3690   -1.4390   -0.7490 C.3     1  UNL1        0.0470
      7  C          6.5630   -0.3400   -0.1890 C.2     1  UNL1       -0.0470
      8  C          6.1250   -0.4550    1.1250 C.2     1  UNL1        0.0040
      9  C          6.2020    0.7950   -0.8680 C.2     1  UNL1        0.0040
     10  C          5.3550    0.5600    1.6890 C.2     1  UNL1        0.0000
     11  C          5.4410    1.8170   -0.3380 C.2     1  UNL1        0.0000
     12  C          5.0200    1.6750    0.9700 C.2     1  UNL1        0.0000
@<TRIPOS>BOND
     1     5     4    1
     2     4     2    1
     3     3     2    2
     4     2     1    1
     5     1     6    1
     6     9    11    1
     7     9     7    2
     8     6     7    1
     9    11    12    2
    10     7     8    1
    11    12    10    1
    12     8    10    2
