@<TRIPOS>MOLECULE
/home/cewinharhar/GITHUB/reincatalyze/data/processed/docking_pred/2023-Apr-25-1829_maxeplen10_maxtrainstep200_exh32_gamma099_lrac3e-4_lrcr1e-3/80ffcc0cdcaea1df7ad243f542ab1163fa4dc1ce_ligand_2.pdbqt
 12 12 0 0 0
SMALL
GASTEIGER

@<TRIPOS>ATOM
      1  C          8.0840   -2.1440    0.8130 C.3     1  UNL1        0.1270
      2  C          8.7850   -3.3410    0.3160 C.2     1  UNL1        0.3030
      3  O          9.6030   -3.9190    1.0700 O.2     1  UNL1       -0.2520
      4  O          8.5570   -3.8330   -0.9550 O.3     1  UNL1       -0.4810
      5  H          8.3850   -4.8350   -1.1590 H       1  UNL1        0.2960
      6  C          7.3960   -1.4980   -0.3840 C.3     1  UNL1        0.0470
      7  C          6.5650   -0.3460    0.0070 C.2     1  UNL1       -0.0470
      8  C          6.0350   -0.3290    1.2910 C.2     1  UNL1        0.0040
      9  C          6.2650    0.7170   -0.8050 C.2     1  UNL1        0.0040
     10  C          5.2380    0.7410    1.6960 C.2     1  UNL1        0.0000
     11  C          5.4800    1.7900   -0.4330 C.2     1  UNL1        0.0000
     12  C          4.9660    1.7800    0.8490 C.2     1  UNL1        0.0000
@<TRIPOS>BOND
     1     5     4    1
     2     4     2    1
     3     9    11    1
     4     9     7    2
     5    11    12    2
     6     6     7    1
     7     6     1    1
     8     7     8    1
     9     2     1    1
    10     2     3    2
    11    12    10    1
    12     8    10    2
