MODEL 1
REMARK VINA RESULT:      -7.3      0.000      0.000
REMARK SMILES O=C(O)CCc1ccccc1
REMARK SMILES IDX 4 1 2 2 1 3 3 4 5 6 6 7 7 8 11 9 8 10 10 11 9 12
REMARK H PARENT 3 5
REMARK Flexibility Score: inf
ROOT
ATOM      1  C   UNL     1       8.474  -0.601  -2.200  1.00  0.00     0.127 C 
ENDROOT
BRANCH   1   2
ATOM      2  C   UNL     1       8.470  -1.884  -2.925  1.00  0.00     0.303 C 
ATOM      3  O   UNL     1       9.555  -2.491  -3.085  1.00  0.00    -0.252 OA
BRANCH   2   4
ATOM      4  O   UNL     1       7.302  -2.425  -3.425  1.00  0.00    -0.481 OA
ATOM      5  H   UNL     1       6.962  -2.262  -4.391  1.00  0.00     0.296 HD
ENDBRANCH   2   4
ENDBRANCH   1   2
BRANCH   1   6
ATOM      6  C   UNL     1       7.036  -0.093  -2.180  1.00  0.00     0.047 C 
BRANCH   6   7
ATOM      7  C   UNL     1       6.507   0.022  -0.810  1.00  0.00    -0.047 A 
ATOM      8  C   UNL     1       5.891   1.213  -0.445  1.00  0.00     0.004 A 
ATOM      9  C   UNL     1       6.580  -0.960   0.145  1.00  0.00     0.004 A 
ATOM     10  C   UNL     1       5.383   1.362   0.844  1.00  0.00     0.000 A 
ATOM     11  C   UNL     1       6.086  -0.842   1.429  1.00  0.00     0.000 A 
ATOM     12  C   UNL     1       5.480   0.353   1.763  1.00  0.00     0.000 A 
ENDBRANCH   6   7
ENDBRANCH   1   6
TORSDOF 4
ENDMDL
MODEL 2
REMARK VINA RESULT:      -7.3      0.179      1.733
REMARK SMILES O=C(O)CCc1ccccc1
REMARK SMILES IDX 4 1 2 2 1 3 3 4 5 6 6 7 7 8 11 9 8 10 10 11 9 12
REMARK H PARENT 3 5
REMARK Flexibility Score: inf
ROOT
ATOM      1  C   UNL     1       8.413  -0.695  -2.073  1.00  0.00     0.127 C 
ENDROOT
BRANCH   1   2
ATOM      2  C   UNL     1       8.395  -1.926  -2.883  1.00  0.00     0.303 C 
ATOM      3  O   UNL     1       7.290  -2.398  -3.242  1.00  0.00    -0.252 OA
BRANCH   2   4
ATOM      4  O   UNL     1       9.564  -2.563  -3.251  1.00  0.00    -0.481 OA
ATOM      5  H   UNL     1       9.854  -2.703  -4.237  1.00  0.00     0.296 HD
ENDBRANCH   2   4
ENDBRANCH   1   2
BRANCH   1   6
ATOM      6  C   UNL     1       7.020  -0.081  -2.159  1.00  0.00     0.047 C 
BRANCH   6   7
ATOM      7  C   UNL     1       6.441   0.170  -0.828  1.00  0.00    -0.047 A 
ATOM      8  C   UNL     1       6.598  -0.806   0.148  1.00  0.00     0.004 A 
ATOM      9  C   UNL     1       5.747   1.298  -0.474  1.00  0.00     0.004 A 
ATOM     10  C   UNL     1       6.058  -0.608   1.418  1.00  0.00     0.000 A 
ATOM     11  C   UNL     1       5.201   1.524   0.774  1.00  0.00     0.000 A 
ATOM     12  C   UNL     1       5.372   0.536   1.723  1.00  0.00     0.000 A 
ENDBRANCH   6   7
ENDBRANCH   1   6
TORSDOF 4
ENDMDL
MODEL 3
REMARK VINA RESULT:      -6.8      3.381      5.091
REMARK SMILES O=C(O)CCc1ccccc1
REMARK SMILES IDX 4 1 2 2 1 3 3 4 5 6 6 7 7 8 11 9 8 10 10 11 9 12
REMARK H PARENT 3 5
REMARK Flexibility Score: inf
ROOT
ATOM      1  C   UNL     1       4.966   1.792   0.714  1.00  0.00     0.127 C 
ENDROOT
BRANCH   1   2
ATOM      2  C   UNL     1       4.463   1.124   1.927  1.00  0.00     0.303 C 
ATOM      3  O   UNL     1       5.169   0.241   2.468  1.00  0.00    -0.252 OA
BRANCH   2   4
ATOM      4  O   UNL     1       3.238   1.453   2.475  1.00  0.00    -0.481 OA
ATOM      5  H   UNL     1       3.092   2.260   3.108  1.00  0.00     0.296 HD
ENDBRANCH   2   4
ENDBRANCH   1   2
BRANCH   1   6
ATOM      6  C   UNL     1       6.485   1.841   0.825  1.00  0.00     0.047 C 
BRANCH   6   7
ATOM      7  C   UNL     1       7.147   1.138  -0.288  1.00  0.00    -0.047 A 
ATOM      8  C   UNL     1       6.371   0.316  -1.096  1.00  0.00     0.004 A 
ATOM      9  C   UNL     1       8.482   1.227  -0.590  1.00  0.00     0.004 A 
ATOM     10  C   UNL     1       6.962  -0.370  -2.155  1.00  0.00     0.000 A 
ATOM     11  C   UNL     1       9.096   0.560  -1.631  1.00  0.00     0.000 A 
ATOM     12  C   UNL     1       8.300  -0.250  -2.416  1.00  0.00     0.000 A 
ENDBRANCH   6   7
ENDBRANCH   1   6
TORSDOF 4
ENDMDL
MODEL 4
REMARK VINA RESULT:      -6.6      1.893      2.652
REMARK SMILES O=C(O)CCc1ccccc1
REMARK SMILES IDX 4 1 2 2 1 3 3 4 5 6 6 7 7 8 11 9 8 10 10 11 9 12
REMARK H PARENT 3 5
REMARK Flexibility Score: inf
ROOT
ATOM      1  C   UNL     1       8.237   0.245  -2.272  1.00  0.00     0.127 C 
ENDROOT
BRANCH   1   2
ATOM      2  C   UNL     1       9.348   0.341  -1.309  1.00  0.00     0.303 C 
ATOM      3  O   UNL     1       9.382  -0.459  -0.344  1.00  0.00    -0.252 OA
BRANCH   2   4
ATOM      4  O   UNL     1      10.345   1.287  -1.451  1.00  0.00    -0.481 OA
ATOM      5  H   UNL     1      10.705   1.862  -0.667  1.00  0.00     0.296 HD
ENDBRANCH   2   4
ENDBRANCH   1   2
BRANCH   1   6
ATOM      6  C   UNL     1       7.112  -0.521  -1.585  1.00  0.00     0.047 C 
BRANCH   6   7
ATOM      7  C   UNL     1       6.332   0.335  -0.674  1.00  0.00    -0.047 A 
ATOM      8  C   UNL     1       6.113  -0.117   0.621  1.00  0.00     0.004 A 
ATOM      9  C   UNL     1       5.795   1.552  -1.008  1.00  0.00     0.004 A 
ATOM     10  C   UNL     1       5.374   0.661   1.510  1.00  0.00     0.000 A 
ATOM     11  C   UNL     1       5.059   2.346  -0.150  1.00  0.00     0.000 A 
ATOM     12  C   UNL     1       4.857   1.870   1.130  1.00  0.00     0.000 A 
ENDBRANCH   6   7
ENDBRANCH   1   6
TORSDOF 4
ENDMDL
MODEL 5
REMARK VINA RESULT:      -6.6      2.018      2.758
REMARK SMILES O=C(O)CCc1ccccc1
REMARK SMILES IDX 4 1 2 2 1 3 3 4 5 6 6 7 7 8 11 9 8 10 10 11 9 12
REMARK H PARENT 3 5
REMARK Flexibility Score: inf
ROOT
ATOM      1  C   UNL     1       8.084  -2.144   0.813  1.00  0.00     0.127 C 
ENDROOT
BRANCH   1   2
ATOM      2  C   UNL     1       8.785  -3.341   0.316  1.00  0.00     0.303 C 
ATOM      3  O   UNL     1       9.603  -3.919   1.070  1.00  0.00    -0.252 OA
BRANCH   2   4
ATOM      4  O   UNL     1       8.557  -3.833  -0.955  1.00  0.00    -0.481 OA
ATOM      5  H   UNL     1       8.385  -4.835  -1.159  1.00  0.00     0.296 HD
ENDBRANCH   2   4
ENDBRANCH   1   2
BRANCH   1   6
ATOM      6  C   UNL     1       7.396  -1.498  -0.384  1.00  0.00     0.047 C 
BRANCH   6   7
ATOM      7  C   UNL     1       6.565  -0.346   0.007  1.00  0.00    -0.047 A 
ATOM      8  C   UNL     1       6.035  -0.329   1.291  1.00  0.00     0.004 A 
ATOM      9  C   UNL     1       6.265   0.717  -0.805  1.00  0.00     0.004 A 
ATOM     10  C   UNL     1       5.238   0.741   1.696  1.00  0.00     0.000 A 
ATOM     11  C   UNL     1       5.480   1.790  -0.433  1.00  0.00     0.000 A 
ATOM     12  C   UNL     1       4.966   1.780   0.849  1.00  0.00     0.000 A 
ENDBRANCH   6   7
ENDBRANCH   1   6
TORSDOF 4
ENDMDL
