@<TRIPOS>MOLECULE
/home/cewinharhar/GITHUB/reincatalyze/data/processed/docking_pred/2023-Apr-25-1829_maxeplen10_maxtrainstep200_exh32_gamma099_lrac3e-4_lrcr1e-3/80ffcc0cdcaea1df7ad243f542ab1163fa4dc1ce_ligand_2.pdbqt
 12 12 0 0 0
SMALL
GASTEIGER

@<TRIPOS>ATOM
      1  C          4.9660    1.7920    0.7140 C.3     1  UNL1        0.1270
      2  C          4.4630    1.1240    1.9270 C.2     1  UNL1        0.3030
      3  O          5.1690    0.2410    2.4680 O.2     1  UNL1       -0.2520
      4  O          3.2380    1.4530    2.4750 O.3     1  UNL1       -0.4810
      5  H          3.0920    2.2600    3.1080 H       1  UNL1        0.2960
      6  C          6.4850    1.8410    0.8250 C.3     1  UNL1        0.0470
      7  C          7.1470    1.1380   -0.2880 C.2     1  UNL1       -0.0470
      8  C          6.3710    0.3160   -1.0960 C.2     1  UNL1        0.0040
      9  C          8.4820    1.2270   -0.5900 C.2     1  UNL1        0.0040
     10  C          6.9620   -0.3700   -2.1550 C.2     1  UNL1        0.0000
     11  C          9.0960    0.5600   -1.6310 C.2     1  UNL1        0.0000
     12  C          8.3000   -0.2500   -2.4160 C.2     1  UNL1        0.0000
@<TRIPOS>BOND
     1    12    10    2
     2    12    11    1
     3    10     8    1
     4    11     9    2
     5     8     7    2
     6     9     7    1
     7     7     6    1
     8     1     6    1
     9     1     2    1
    10     2     3    2
    11     2     4    1
    12     4     5    1
