@<TRIPOS>MOLECULE
/home/cewinharhar/GITHUB/reincatalyze/data/processed/docking_pred/2023-Apr-25-1829_maxeplen10_maxtrainstep200_exh32_gamma099_lrac3e-4_lrcr1e-3/80ffcc0cdcaea1df7ad243f542ab1163fa4dc1ce_ligand_2.pdbqt
 12 12 0 0 0
SMALL
GASTEIGER

@<TRIPOS>ATOM
      1  C          8.4740   -0.6010   -2.2000 C.3     1  UNL1        0.1270
      2  C          8.4700   -1.8840   -2.9250 C.2     1  UNL1        0.3030
      3  O          9.5550   -2.4910   -3.0850 O.2     1  UNL1       -0.2520
      4  O          7.3020   -2.4250   -3.4250 O.3     1  UNL1       -0.4810
      5  H          6.9620   -2.2620   -4.3910 H       1  UNL1        0.2960
      6  C          7.0360   -0.0930   -2.1800 C.3     1  UNL1        0.0470
      7  C          6.5070    0.0220   -0.8100 C.2     1  UNL1       -0.0470
      8  C          5.8910    1.2130   -0.4450 C.2     1  UNL1        0.0040
      9  C          6.5800   -0.9600    0.1450 C.2     1  UNL1        0.0040
     10  C          5.3830    1.3620    0.8440 C.2     1  UNL1        0.0000
     11  C          6.0860   -0.8420    1.4290 C.2     1  UNL1        0.0000
     12  C          5.4800    0.3530    1.7630 C.2     1  UNL1        0.0000
@<TRIPOS>BOND
     1     5     4    1
     2     4     2    1
     3     3     2    2
     4     2     1    1
     5     1     6    1
     6     6     7    1
     7     7     8    2
     8     7     9    1
     9     8    10    1
    10     9    11    2
    11    10    12    2
    12    11    12    1
