@<TRIPOS>MOLECULE
/home/cewinharhar/GITHUB/reincatalyze/data/processed/docking_pred/2023-Apr-25-1829_maxeplen10_maxtrainstep200_exh32_gamma099_lrac3e-4_lrcr1e-3/80ffcc0cdcaea1df7ad243f542ab1163fa4dc1ce_ligand_2.pdbqt
 12 12 0 0 0
SMALL
GASTEIGER

@<TRIPOS>ATOM
      1  C          8.2370    0.2450   -2.2720 C.3     1  UNL1        0.1270
      2  C          9.3480    0.3410   -1.3090 C.2     1  UNL1        0.3030
      3  O          9.3820   -0.4590   -0.3440 O.2     1  UNL1       -0.2520
      4  O         10.3450    1.2870   -1.4510 O.3     1  UNL1       -0.4810
      5  H         10.7050    1.8620   -0.6670 H       1  UNL1        0.2960
      6  C          7.1120   -0.5210   -1.5850 C.3     1  UNL1        0.0470
      7  C          6.3320    0.3350   -0.6740 C.2     1  UNL1       -0.0470
      8  C          6.1130   -0.1170    0.6210 C.2     1  UNL1        0.0040
      9  C          5.7950    1.5520   -1.0080 C.2     1  UNL1        0.0040
     10  C          5.3740    0.6610    1.5100 C.2     1  UNL1        0.0000
     11  C          5.0590    2.3460   -0.1500 C.2     1  UNL1        0.0000
     12  C          4.8570    1.8700    1.1300 C.2     1  UNL1        0.0000
@<TRIPOS>BOND
     1     1     6    1
     2     1     2    1
     3     6     7    1
     4     4     2    1
     5     4     5    1
     6     2     3    2
     7     9     7    2
     8     9    11    1
     9     7     8    1
    10    11    12    2
    11     8    10    2
    12    12    10    1
