@<TRIPOS>MOLECULE
/home/cewinharhar/GITHUB/reincatalyze/data/processed/docking_pred/2023-Apr-25-1829_maxeplen10_maxtrainstep200_exh32_gamma099_lrac3e-4_lrcr1e-3/82066193004a6cdbe54a2a950d109d8cafa96b54_ligand_2.pdbqt
 12 12 0 0 0
SMALL
GASTEIGER

@<TRIPOS>ATOM
      1  C          8.4340   -0.6170   -2.1530 C.3     1  UNL1        0.1270
      2  C          8.4090   -1.8900   -2.8940 C.2     1  UNL1        0.3030
      3  O          7.3010   -2.3910   -3.1990 O.2     1  UNL1       -0.2520
      4  O          9.5760   -2.5350   -3.2570 O.3     1  UNL1       -0.4810
      5  H          9.8700   -2.6760   -4.2410 H       1  UNL1        0.2960
      6  C          7.0070   -0.0800   -2.1360 C.3     1  UNL1        0.0470
      7  C          6.4710    0.0290   -0.7670 C.2     1  UNL1       -0.0470
      8  C          5.8380    1.2120   -0.4060 C.2     1  UNL1        0.0040
      9  C          6.5540   -0.9500    0.1890 C.2     1  UNL1        0.0040
     10  C          5.3230    1.3560    0.8810 C.2     1  UNL1        0.0000
     11  C          6.0550   -0.8380    1.4710 C.2     1  UNL1        0.0000
     12  C          5.4310    0.3490    1.8010 C.2     1  UNL1        0.0000
@<TRIPOS>BOND
     1     5     4    1
     2     4     2    1
     3     3     2    2
     4     2     1    1
     5     1     6    1
     6     6     7    1
     7     7     8    2
     8     7     9    1
     9     8    10    1
    10     9    11    2
    11    10    12    2
    12    11    12    1
