@<TRIPOS>MOLECULE
/home/cewinharhar/GITHUB/reincatalyze/data/processed/docking_pred/2023-Apr-25-1829_maxeplen10_maxtrainstep200_exh32_gamma099_lrac3e-4_lrcr1e-3/82066193004a6cdbe54a2a950d109d8cafa96b54_ligand_2.pdbqt
 12 12 0 0 0
SMALL
GASTEIGER

@<TRIPOS>ATOM
      1  C          4.9730    1.7870    0.6960 C.3     1  UNL1        0.1270
      2  C          4.4750    1.1250    1.9140 C.2     1  UNL1        0.3030
      3  O          5.1840    0.2470    2.4590 O.2     1  UNL1       -0.2520
      4  O          3.2500    1.4550    2.4630 O.3     1  UNL1       -0.4810
      5  H          2.7600    0.8690    3.1640 H       1  UNL1        0.2960
      6  C          6.4950    1.7790    0.7720 C.3     1  UNL1        0.0470
      7  C          7.1020    1.0040   -0.3250 C.2     1  UNL1       -0.0470
      8  C          8.4410    1.2300   -0.6220 C.2     1  UNL1        0.0040
      9  C          6.4440    0.0720   -1.0850 C.2     1  UNL1        0.0040
     10  C          9.0480    0.5200   -1.6570 C.2     1  UNL1        0.0000
     11  C          7.0180   -0.6470   -2.1150 C.2     1  UNL1        0.0000
     12  C          8.3490   -0.4000   -2.3890 C.2     1  UNL1        0.0000
@<TRIPOS>BOND
     1    12    11    2
     2    12    10    1
     3    11     9    1
     4    10     8    2
     5     9     7    2
     6     8     7    1
     7     7     6    1
     8     1     6    1
     9     1     2    1
    10     2     3    2
    11     2     4    1
    12     4     5    1
