@<TRIPOS>MOLECULE
/home/cewinharhar/GITHUB/reincatalyze/data/processed/docking_pred/2023-Apr-25-1829_maxeplen10_maxtrainstep200_exh32_gamma099_lrac3e-4_lrcr1e-3/82066193004a6cdbe54a2a950d109d8cafa96b54_ligand_2.pdbqt
 12 12 0 0 0
SMALL
GASTEIGER

@<TRIPOS>ATOM
      1  C          8.2830   -0.8790   -1.9150 C.3     1  UNL1        0.1270
      2  C          8.4170   -1.9960   -2.8670 C.2     1  UNL1        0.3030
      3  O          9.5580   -2.4610   -3.0980 O.2     1  UNL1       -0.2520
      4  O          7.3150   -2.5360   -3.5010 O.3     1  UNL1       -0.4810
      5  H          7.1150   -3.5530   -3.5350 H       1  UNL1        0.2960
      6  C          7.4070   -1.3700   -0.7680 C.3     1  UNL1        0.0470
      7  C          6.5780   -0.2910   -0.2020 C.2     1  UNL1       -0.0470
      8  C          6.1570   -0.4140    1.1170 C.2     1  UNL1        0.0040
      9  C          6.1800    0.8320   -0.8800 C.2     1  UNL1        0.0040
     10  C          5.3660    0.5830    1.6860 C.2     1  UNL1        0.0000
     11  C          5.3980    1.8360   -0.3450 C.2     1  UNL1        0.0000
     12  C          4.9940    1.6860    0.9680 C.2     1  UNL1        0.0000
@<TRIPOS>BOND
     1     5     4    1
     2     4     2    1
     3     3     2    2
     4     2     1    1
     5     1     6    1
     6     9    11    1
     7     9     7    2
     8     6     7    1
     9    11    12    2
    10     7     8    1
    11    12    10    1
    12     8    10    2
