@<TRIPOS>MOLECULE
/home/cewinharhar/GITHUB/reincatalyze/data/processed/docking_pred/2023-Apr-25-1829_maxeplen10_maxtrainstep200_exh32_gamma099_lrac3e-4_lrcr1e-3/82066193004a6cdbe54a2a950d109d8cafa96b54_ligand_2.pdbqt
 12 12 0 0 0
SMALL
GASTEIGER

@<TRIPOS>ATOM
      1  C          5.4840    2.7540   -0.0480 C.3     1  UNL1        0.1270
      2  C          6.1970    3.7430    0.7790 C.2     1  UNL1        0.3030
      3  O          6.1450    3.6390    2.0270 O.2     1  UNL1       -0.2520
      4  O          6.9160    4.7740    0.2060 O.3     1  UNL1       -0.4810
      5  H          6.5880    5.7570    0.1800 H       1  UNL1        0.2960
      6  C          4.9280    1.6960    0.8990 C.3     1  UNL1        0.0470
      7  C          5.7580    0.4780    0.9210 C.2     1  UNL1       -0.0470
      8  C          5.7370   -0.3070    2.0670 C.2     1  UNL1        0.0040
      9  C          6.5600    0.0570   -0.1080 C.2     1  UNL1        0.0040
     10  C          6.5120   -1.4630    2.1270 C.2     1  UNL1        0.0000
     11  C          7.3400   -1.0820   -0.0780 C.2     1  UNL1        0.0000
     12  C          7.2990   -1.8420    1.0740 C.2     1  UNL1        0.0000
@<TRIPOS>BOND
     1     9    11    1
     2     9     7    2
     3    11    12    2
     4     1     2    1
     5     1     6    1
     6     5     4    1
     7     4     2    1
     8     2     3    2
     9     6     7    1
    10     7     8    1
    11    12    10    1
    12     8    10    2
