MODEL 1
REMARK VINA RESULT:      -7.3      0.000      0.000
REMARK SMILES O=C(O)CCc1ccccc1
REMARK SMILES IDX 4 1 2 2 1 3 3 4 5 6 6 7 7 8 11 9 8 10 10 11 9 12
REMARK H PARENT 3 5
REMARK Flexibility Score: inf
ROOT
ATOM      1  C   UNL     1       8.449  -0.642  -2.127  1.00  0.00     0.127 C 
ENDROOT
BRANCH   1   2
ATOM      2  C   UNL     1       8.473  -1.895  -2.901  1.00  0.00     0.303 C 
ATOM      3  O   UNL     1       9.572  -2.467  -3.093  1.00  0.00    -0.252 OA
BRANCH   2   4
ATOM      4  O   UNL     1       7.315  -2.448  -3.413  1.00  0.00    -0.481 OA
ATOM      5  H   UNL     1       6.619  -1.912  -3.964  1.00  0.00     0.296 HD
ENDBRANCH   2   4
ENDBRANCH   1   2
BRANCH   1   6
ATOM      6  C   UNL     1       7.016  -0.123  -2.160  1.00  0.00     0.047 C 
BRANCH   6   7
ATOM      7  C   UNL     1       6.473   0.094  -0.807  1.00  0.00    -0.047 A 
ATOM      8  C   UNL     1       6.606  -0.930   0.123  1.00  0.00     0.004 A 
ATOM      9  C   UNL     1       5.835   1.234  -0.390  1.00  0.00     0.004 A 
ATOM     10  C   UNL     1       6.099  -0.766   1.410  1.00  0.00     0.000 A 
ATOM     11  C   UNL     1       5.323   1.427   0.877  1.00  0.00     0.000 A 
ATOM     12  C   UNL     1       5.469   0.392   1.779  1.00  0.00     0.000 A 
ENDBRANCH   6   7
ENDBRANCH   1   6
TORSDOF 4
ENDMDL
MODEL 2
REMARK VINA RESULT:      -7.2      0.633      1.086
REMARK SMILES O=C(O)CCc1ccccc1
REMARK SMILES IDX 4 1 2 2 1 3 3 4 5 6 6 7 7 8 11 9 8 10 10 11 9 12
REMARK H PARENT 3 5
REMARK Flexibility Score: inf
ROOT
ATOM      1  C   UNL     1       8.283  -0.879  -1.915  1.00  0.00     0.127 C 
ENDROOT
BRANCH   1   2
ATOM      2  C   UNL     1       8.417  -1.996  -2.867  1.00  0.00     0.303 C 
ATOM      3  O   UNL     1       9.558  -2.461  -3.098  1.00  0.00    -0.252 OA
BRANCH   2   4
ATOM      4  O   UNL     1       7.315  -2.536  -3.501  1.00  0.00    -0.481 OA
ATOM      5  H   UNL     1       7.115  -3.553  -3.535  1.00  0.00     0.296 HD
ENDBRANCH   2   4
ENDBRANCH   1   2
BRANCH   1   6
ATOM      6  C   UNL     1       7.407  -1.370  -0.768  1.00  0.00     0.047 C 
BRANCH   6   7
ATOM      7  C   UNL     1       6.578  -0.291  -0.202  1.00  0.00    -0.047 A 
ATOM      8  C   UNL     1       6.157  -0.414   1.117  1.00  0.00     0.004 A 
ATOM      9  C   UNL     1       6.180   0.832  -0.880  1.00  0.00     0.004 A 
ATOM     10  C   UNL     1       5.366   0.583   1.686  1.00  0.00     0.000 A 
ATOM     11  C   UNL     1       5.398   1.836  -0.345  1.00  0.00     0.000 A 
ATOM     12  C   UNL     1       4.994   1.686   0.968  1.00  0.00     0.000 A 
ENDBRANCH   6   7
ENDBRANCH   1   6
TORSDOF 4
ENDMDL
MODEL 3
REMARK VINA RESULT:      -7.2      0.106      1.727
REMARK SMILES O=C(O)CCc1ccccc1
REMARK SMILES IDX 4 1 2 2 1 3 3 4 5 6 6 7 7 8 11 9 8 10 10 11 9 12
REMARK H PARENT 3 5
REMARK Flexibility Score: inf
ROOT
ATOM      1  C   UNL     1       8.434  -0.617  -2.153  1.00  0.00     0.127 C 
ENDROOT
BRANCH   1   2
ATOM      2  C   UNL     1       8.409  -1.890  -2.894  1.00  0.00     0.303 C 
ATOM      3  O   UNL     1       7.301  -2.391  -3.199  1.00  0.00    -0.252 OA
BRANCH   2   4
ATOM      4  O   UNL     1       9.576  -2.535  -3.257  1.00  0.00    -0.481 OA
ATOM      5  H   UNL     1       9.870  -2.676  -4.241  1.00  0.00     0.296 HD
ENDBRANCH   2   4
ENDBRANCH   1   2
BRANCH   1   6
ATOM      6  C   UNL     1       7.007  -0.080  -2.136  1.00  0.00     0.047 C 
BRANCH   6   7
ATOM      7  C   UNL     1       6.471   0.029  -0.767  1.00  0.00    -0.047 A 
ATOM      8  C   UNL     1       5.838   1.212  -0.406  1.00  0.00     0.004 A 
ATOM      9  C   UNL     1       6.554  -0.950   0.189  1.00  0.00     0.004 A 
ATOM     10  C   UNL     1       5.323   1.356   0.881  1.00  0.00     0.000 A 
ATOM     11  C   UNL     1       6.055  -0.838   1.471  1.00  0.00     0.000 A 
ATOM     12  C   UNL     1       5.431   0.349   1.801  1.00  0.00     0.000 A 
ENDBRANCH   6   7
ENDBRANCH   1   6
TORSDOF 4
ENDMDL
MODEL 4
REMARK VINA RESULT:      -6.8      3.371      5.089
REMARK SMILES O=C(O)CCc1ccccc1
REMARK SMILES IDX 4 1 2 2 1 3 3 4 5 6 6 7 7 8 11 9 8 10 10 11 9 12
REMARK H PARENT 3 5
REMARK Flexibility Score: inf
ROOT
ATOM      1  C   UNL     1       4.973   1.787   0.696  1.00  0.00     0.127 C 
ENDROOT
BRANCH   1   2
ATOM      2  C   UNL     1       4.475   1.125   1.914  1.00  0.00     0.303 C 
ATOM      3  O   UNL     1       5.184   0.247   2.459  1.00  0.00    -0.252 OA
BRANCH   2   4
ATOM      4  O   UNL     1       3.250   1.455   2.463  1.00  0.00    -0.481 OA
ATOM      5  H   UNL     1       2.760   0.869   3.164  1.00  0.00     0.296 HD
ENDBRANCH   2   4
ENDBRANCH   1   2
BRANCH   1   6
ATOM      6  C   UNL     1       6.495   1.779   0.772  1.00  0.00     0.047 C 
BRANCH   6   7
ATOM      7  C   UNL     1       7.102   1.004  -0.325  1.00  0.00    -0.047 A 
ATOM      8  C   UNL     1       8.441   1.230  -0.622  1.00  0.00     0.004 A 
ATOM      9  C   UNL     1       6.444   0.072  -1.085  1.00  0.00     0.004 A 
ATOM     10  C   UNL     1       9.048   0.520  -1.657  1.00  0.00     0.000 A 
ATOM     11  C   UNL     1       7.018  -0.647  -2.115  1.00  0.00     0.000 A 
ATOM     12  C   UNL     1       8.349  -0.400  -2.389  1.00  0.00     0.000 A 
ENDBRANCH   6   7
ENDBRANCH   1   6
TORSDOF 4
ENDMDL
MODEL 5
REMARK VINA RESULT:      -6.6      3.820      4.905
REMARK SMILES O=C(O)CCc1ccccc1
REMARK SMILES IDX 4 1 2 2 1 3 3 4 5 6 6 7 7 8 11 9 8 10 10 11 9 12
REMARK H PARENT 3 5
REMARK Flexibility Score: inf
ROOT
ATOM      1  C   UNL     1       5.484   2.754  -0.048  1.00  0.00     0.127 C 
ENDROOT
BRANCH   1   2
ATOM      2  C   UNL     1       6.197   3.743   0.779  1.00  0.00     0.303 C 
ATOM      3  O   UNL     1       6.145   3.639   2.027  1.00  0.00    -0.252 OA
BRANCH   2   4
ATOM      4  O   UNL     1       6.916   4.774   0.206  1.00  0.00    -0.481 OA
ATOM      5  H   UNL     1       6.588   5.757   0.180  1.00  0.00     0.296 HD
ENDBRANCH   2   4
ENDBRANCH   1   2
BRANCH   1   6
ATOM      6  C   UNL     1       4.928   1.696   0.899  1.00  0.00     0.047 C 
BRANCH   6   7
ATOM      7  C   UNL     1       5.758   0.478   0.921  1.00  0.00    -0.047 A 
ATOM      8  C   UNL     1       5.737  -0.307   2.067  1.00  0.00     0.004 A 
ATOM      9  C   UNL     1       6.560   0.057  -0.108  1.00  0.00     0.004 A 
ATOM     10  C   UNL     1       6.512  -1.463   2.127  1.00  0.00     0.000 A 
ATOM     11  C   UNL     1       7.340  -1.082  -0.078  1.00  0.00     0.000 A 
ATOM     12  C   UNL     1       7.299  -1.842   1.074  1.00  0.00     0.000 A 
ENDBRANCH   6   7
ENDBRANCH   1   6
TORSDOF 4
ENDMDL
