@<TRIPOS>MOLECULE
/home/cewinharhar/GITHUB/reincatalyze/data/processed/docking_pred/2023-Apr-25-1829_maxeplen10_maxtrainstep200_exh32_gamma099_lrac3e-4_lrcr1e-3/82066193004a6cdbe54a2a950d109d8cafa96b54_ligand_2.pdbqt
 12 12 0 0 0
SMALL
GASTEIGER

@<TRIPOS>ATOM
      1  C          8.4490   -0.6420   -2.1270 C.3     1  UNL1        0.1270
      2  C          8.4730   -1.8950   -2.9010 C.2     1  UNL1        0.3030
      3  O          9.5720   -2.4670   -3.0930 O.2     1  UNL1       -0.2520
      4  O          7.3150   -2.4480   -3.4130 O.3     1  UNL1       -0.4810
      5  H          6.6190   -1.9120   -3.9640 H       1  UNL1        0.2960
      6  C          7.0160   -0.1230   -2.1600 C.3     1  UNL1        0.0470
      7  C          6.4730    0.0940   -0.8070 C.2     1  UNL1       -0.0470
      8  C          6.6060   -0.9300    0.1230 C.2     1  UNL1        0.0040
      9  C          5.8350    1.2340   -0.3900 C.2     1  UNL1        0.0040
     10  C          6.0990   -0.7660    1.4100 C.2     1  UNL1        0.0000
     11  C          5.3230    1.4270    0.8770 C.2     1  UNL1        0.0000
     12  C          5.4690    0.3920    1.7790 C.2     1  UNL1        0.0000
@<TRIPOS>BOND
     1     5     4    1
     2     4     2    1
     3     3     2    2
     4     2     1    1
     5     6     1    1
     6     6     7    1
     7     7     9    2
     8     7     8    1
     9     9    11    1
    10     8    10    2
    11    11    12    2
    12    10    12    1
