@<TRIPOS>MOLECULE
/home/cewinharhar/GITHUB/reincatalyze/data/processed/docking_pred/2023-Apr-25-1829_maxeplen10_maxtrainstep200_exh32_gamma099_lrac3e-4_lrcr1e-3/84f6a015bafc2578e701aafee66be27aa4cb1192_ligand_2.pdbqt
 12 12 0 0 0
SMALL
GASTEIGER

@<TRIPOS>ATOM
      1  C          4.9840    1.7850    0.7090 C.3     1  UNL1        0.1270
      2  C          4.4720    1.1190    1.9190 C.2     1  UNL1        0.3030
      3  O          5.1700    0.2290    2.4610 O.2     1  UNL1       -0.2520
      4  O          3.2480    1.4560    2.4640 O.3     1  UNL1       -0.4810
      5  H          3.0940    1.6040    3.4790 H       1  UNL1        0.2960
      6  C          6.5060    1.7520    0.7880 C.3     1  UNL1        0.0470
      7  C          7.1030    0.9790   -0.3160 C.2     1  UNL1       -0.0470
      8  C          8.4300    1.2270   -0.6430 C.2     1  UNL1        0.0040
      9  C          6.4450    0.0310   -1.0560 C.2     1  UNL1        0.0040
     10  C          9.0280    0.5210   -1.6850 C.2     1  UNL1        0.0000
     11  C          7.0090   -0.6840   -2.0930 C.2     1  UNL1        0.0000
     12  C          8.3300   -0.4160   -2.3970 C.2     1  UNL1        0.0000
@<TRIPOS>BOND
     1    12    11    2
     2    12    10    1
     3    11     9    1
     4    10     8    2
     5     9     7    2
     6     8     7    1
     7     7     6    1
     8     1     6    1
     9     1     2    1
    10     2     3    2
    11     2     4    1
    12     4     5    1
