@<TRIPOS>MOLECULE
/home/cewinharhar/GITHUB/reincatalyze/data/processed/docking_pred/2023-Apr-25-1829_maxeplen10_maxtrainstep200_exh32_gamma099_lrac3e-4_lrcr1e-3/84f6a015bafc2578e701aafee66be27aa4cb1192_ligand_2.pdbqt
 12 12 0 0 0
SMALL
GASTEIGER

@<TRIPOS>ATOM
      1  C          8.4380   -0.6630   -2.1120 C.3     1  UNL1        0.1270
      2  C          8.4360   -1.9120   -2.8940 C.2     1  UNL1        0.3030
      3  O          9.5230   -2.5080   -3.0850 O.2     1  UNL1       -0.2520
      4  O          7.2680   -2.4350   -3.4140 O.3     1  UNL1       -0.4810
      5  H          6.6960   -1.9550   -4.1340 H       1  UNL1        0.2960
      6  C          7.0040   -0.1450   -2.0930 C.3     1  UNL1        0.0470
      7  C          6.4730   -0.0310   -0.7230 C.2     1  UNL1       -0.0470
      8  C          5.8440    1.1540   -0.3620 C.2     1  UNL1        0.0040
      9  C          6.5570   -1.0080    0.2350 C.2     1  UNL1        0.0040
     10  C          5.3340    1.3020    0.9270 C.2     1  UNL1        0.0000
     11  C          6.0620   -0.8920    1.5190 C.2     1  UNL1        0.0000
     12  C          5.4420    0.2970    1.8490 C.2     1  UNL1        0.0000
@<TRIPOS>BOND
     1     5     4    1
     2     4     2    1
     3     3     2    2
     4     2     1    1
     5     1     6    1
     6     6     7    1
     7     7     8    2
     8     7     9    1
     9     8    10    1
    10     9    11    2
    11    10    12    2
    12    11    12    1
