@<TRIPOS>MOLECULE
/home/cewinharhar/GITHUB/reincatalyze/data/processed/docking_pred/2023-Apr-25-1829_maxeplen10_maxtrainstep200_exh32_gamma099_lrac3e-4_lrcr1e-3/84f6a015bafc2578e701aafee66be27aa4cb1192_ligand_2.pdbqt
 12 12 0 0 0
SMALL
GASTEIGER

@<TRIPOS>ATOM
      1  C          8.1620   -0.8230   -1.9960 C.3     1  UNL1        0.1270
      2  C          8.3410   -1.9620   -2.9120 C.2     1  UNL1        0.3030
      3  O          9.4960   -2.4140   -3.0980 O.2     1  UNL1       -0.2520
      4  O          7.2670   -2.5370   -3.5640 O.3     1  UNL1       -0.4810
      5  H          6.8000   -2.1110   -4.3850 H       1  UNL1        0.2960
      6  C          7.3290   -1.3200   -0.8200 C.3     1  UNL1        0.0470
      7  C          6.5240   -0.2440   -0.2150 C.2     1  UNL1       -0.0470
      8  C          6.1280   -0.3900    1.1090 C.2     1  UNL1        0.0040
      9  C          6.1260    0.8970   -0.8620 C.2     1  UNL1        0.0040
     10  C          5.3610    0.6030    1.7150 C.2     1  UNL1        0.0000
     11  C          5.3660    1.8980   -0.2900 C.2     1  UNL1        0.0000
     12  C          4.9870    1.7260    1.0270 C.2     1  UNL1        0.0000
@<TRIPOS>BOND
     1     5     4    1
     2     4     2    1
     3     3     2    2
     4     2     1    1
     5     1     6    1
     6     9    11    1
     7     9     7    2
     8     6     7    1
     9    11    12    2
    10     7     8    1
    11    12    10    1
    12     8    10    2
