MODEL 1
REMARK VINA RESULT:      -7.3      0.000      0.000
REMARK SMILES O=C(O)CCc1ccccc1
REMARK SMILES IDX 4 1 2 2 1 3 3 4 5 6 6 7 7 8 11 9 8 10 10 11 9 12
REMARK H PARENT 3 5
REMARK Flexibility Score: inf
ROOT
ATOM      1  C   UNL     1       8.438  -0.663  -2.112  1.00  0.00     0.127 C 
ENDROOT
BRANCH   1   2
ATOM      2  C   UNL     1       8.436  -1.912  -2.894  1.00  0.00     0.303 C 
ATOM      3  O   UNL     1       9.523  -2.508  -3.085  1.00  0.00    -0.252 OA
BRANCH   2   4
ATOM      4  O   UNL     1       7.268  -2.435  -3.414  1.00  0.00    -0.481 OA
ATOM      5  H   UNL     1       6.696  -1.955  -4.134  1.00  0.00     0.296 HD
ENDBRANCH   2   4
ENDBRANCH   1   2
BRANCH   1   6
ATOM      6  C   UNL     1       7.004  -0.145  -2.093  1.00  0.00     0.047 C 
BRANCH   6   7
ATOM      7  C   UNL     1       6.473  -0.031  -0.723  1.00  0.00    -0.047 A 
ATOM      8  C   UNL     1       5.844   1.154  -0.362  1.00  0.00     0.004 A 
ATOM      9  C   UNL     1       6.557  -1.008   0.235  1.00  0.00     0.004 A 
ATOM     10  C   UNL     1       5.334   1.302   0.927  1.00  0.00     0.000 A 
ATOM     11  C   UNL     1       6.062  -0.892   1.519  1.00  0.00     0.000 A 
ATOM     12  C   UNL     1       5.442   0.297   1.849  1.00  0.00     0.000 A 
ENDBRANCH   6   7
ENDBRANCH   1   6
TORSDOF 4
ENDMDL
MODEL 2
REMARK VINA RESULT:      -7.3      0.123      1.434
REMARK SMILES O=C(O)CCc1ccccc1
REMARK SMILES IDX 4 1 2 2 1 3 3 4 5 6 6 7 7 8 11 9 8 10 10 11 9 12
REMARK H PARENT 3 5
REMARK Flexibility Score: inf
ROOT
ATOM      1  C   UNL     1       8.469  -0.692  -2.082  1.00  0.00     0.127 C 
ENDROOT
BRANCH   1   2
ATOM      2  C   UNL     1       8.472  -1.922  -2.893  1.00  0.00     0.303 C 
ATOM      3  O   UNL     1       9.561  -2.507  -3.102  1.00  0.00    -0.252 OA
BRANCH   2   4
ATOM      4  O   UNL     1       7.304  -2.439  -3.420  1.00  0.00    -0.481 OA
ATOM      5  H   UNL     1       7.199  -3.426  -3.722  1.00  0.00     0.296 HD
ENDBRANCH   2   4
ENDBRANCH   1   2
BRANCH   1   6
ATOM      6  C   UNL     1       7.061  -0.114  -2.149  1.00  0.00     0.047 C 
BRANCH   6   7
ATOM      7  C   UNL     1       6.486   0.107  -0.811  1.00  0.00    -0.047 A 
ATOM      8  C   UNL     1       6.609  -0.908   0.130  1.00  0.00     0.004 A 
ATOM      9  C   UNL     1       5.828   1.244  -0.417  1.00  0.00     0.004 A 
ATOM     10  C   UNL     1       6.073  -0.739   1.405  1.00  0.00     0.000 A 
ATOM     11  C   UNL     1       5.286   1.442   0.838  1.00  0.00     0.000 A 
ATOM     12  C   UNL     1       5.424   0.414   1.751  1.00  0.00     0.000 A 
ENDBRANCH   6   7
ENDBRANCH   1   6
TORSDOF 4
ENDMDL
MODEL 3
REMARK VINA RESULT:      -7.2      0.627      1.618
REMARK SMILES O=C(O)CCc1ccccc1
REMARK SMILES IDX 4 1 2 2 1 3 3 4 5 6 6 7 7 8 11 9 8 10 10 11 9 12
REMARK H PARENT 3 5
REMARK Flexibility Score: inf
ROOT
ATOM      1  C   UNL     1       8.162  -0.823  -1.996  1.00  0.00     0.127 C 
ENDROOT
BRANCH   1   2
ATOM      2  C   UNL     1       8.341  -1.962  -2.912  1.00  0.00     0.303 C 
ATOM      3  O   UNL     1       9.496  -2.414  -3.098  1.00  0.00    -0.252 OA
BRANCH   2   4
ATOM      4  O   UNL     1       7.267  -2.537  -3.564  1.00  0.00    -0.481 OA
ATOM      5  H   UNL     1       6.800  -2.111  -4.385  1.00  0.00     0.296 HD
ENDBRANCH   2   4
ENDBRANCH   1   2
BRANCH   1   6
ATOM      6  C   UNL     1       7.329  -1.320  -0.820  1.00  0.00     0.047 C 
BRANCH   6   7
ATOM      7  C   UNL     1       6.524  -0.244  -0.215  1.00  0.00    -0.047 A 
ATOM      8  C   UNL     1       6.128  -0.390   1.109  1.00  0.00     0.004 A 
ATOM      9  C   UNL     1       6.126   0.897  -0.862  1.00  0.00     0.004 A 
ATOM     10  C   UNL     1       5.361   0.603   1.715  1.00  0.00     0.000 A 
ATOM     11  C   UNL     1       5.366   1.898  -0.290  1.00  0.00     0.000 A 
ATOM     12  C   UNL     1       4.987   1.726   1.027  1.00  0.00     0.000 A 
ENDBRANCH   6   7
ENDBRANCH   1   6
TORSDOF 4
ENDMDL
MODEL 4
REMARK VINA RESULT:      -6.8      3.388      5.111
REMARK SMILES O=C(O)CCc1ccccc1
REMARK SMILES IDX 4 1 2 2 1 3 3 4 5 6 6 7 7 8 11 9 8 10 10 11 9 12
REMARK H PARENT 3 5
REMARK Flexibility Score: inf
ROOT
ATOM      1  C   UNL     1       5.017   1.801   0.769  1.00  0.00     0.127 C 
ENDROOT
BRANCH   1   2
ATOM      2  C   UNL     1       4.456   1.120   1.950  1.00  0.00     0.303 C 
ATOM      3  O   UNL     1       5.119   0.205   2.492  1.00  0.00    -0.252 OA
BRANCH   2   4
ATOM      4  O   UNL     1       3.224   1.473   2.467  1.00  0.00    -0.481 OA
ATOM      5  H   UNL     1       2.692   2.307   2.160  1.00  0.00     0.296 HD
ENDBRANCH   2   4
ENDBRANCH   1   2
BRANCH   1   6
ATOM      6  C   UNL     1       6.535   1.735   0.893  1.00  0.00     0.047 C 
BRANCH   6   7
ATOM      7  C   UNL     1       7.158   1.062  -0.261  1.00  0.00    -0.047 A 
ATOM      8  C   UNL     1       6.375   0.194  -1.012  1.00  0.00     0.004 A 
ATOM      9  C   UNL     1       8.462   1.222  -0.652  1.00  0.00     0.004 A 
ATOM     10  C   UNL     1       6.930  -0.465  -2.107  1.00  0.00     0.000 A 
ATOM     11  C   UNL     1       9.040   0.583  -1.731  1.00  0.00     0.000 A 
ATOM     12  C   UNL     1       8.238  -0.274  -2.459  1.00  0.00     0.000 A 
ENDBRANCH   6   7
ENDBRANCH   1   6
TORSDOF 4
ENDMDL
MODEL 5
REMARK VINA RESULT:      -6.8      3.371      5.065
REMARK SMILES O=C(O)CCc1ccccc1
REMARK SMILES IDX 4 1 2 2 1 3 3 4 5 6 6 7 7 8 11 9 8 10 10 11 9 12
REMARK H PARENT 3 5
REMARK Flexibility Score: inf
ROOT
ATOM      1  C   UNL     1       4.984   1.785   0.709  1.00  0.00     0.127 C 
ENDROOT
BRANCH   1   2
ATOM      2  C   UNL     1       4.472   1.119   1.919  1.00  0.00     0.303 C 
ATOM      3  O   UNL     1       5.170   0.229   2.461  1.00  0.00    -0.252 OA
BRANCH   2   4
ATOM      4  O   UNL     1       3.248   1.456   2.464  1.00  0.00    -0.481 OA
ATOM      5  H   UNL     1       3.094   1.604   3.479  1.00  0.00     0.296 HD
ENDBRANCH   2   4
ENDBRANCH   1   2
BRANCH   1   6
ATOM      6  C   UNL     1       6.506   1.752   0.788  1.00  0.00     0.047 C 
BRANCH   6   7
ATOM      7  C   UNL     1       7.103   0.979  -0.316  1.00  0.00    -0.047 A 
ATOM      8  C   UNL     1       8.430   1.227  -0.643  1.00  0.00     0.004 A 
ATOM      9  C   UNL     1       6.445   0.031  -1.056  1.00  0.00     0.004 A 
ATOM     10  C   UNL     1       9.028   0.521  -1.685  1.00  0.00     0.000 A 
ATOM     11  C   UNL     1       7.009  -0.684  -2.093  1.00  0.00     0.000 A 
ATOM     12  C   UNL     1       8.330  -0.416  -2.397  1.00  0.00     0.000 A 
ENDBRANCH   6   7
ENDBRANCH   1   6
TORSDOF 4
ENDMDL
