@<TRIPOS>MOLECULE
/home/cewinharhar/GITHUB/reincatalyze/data/processed/docking_pred/2023-Apr-25-1829_maxeplen10_maxtrainstep200_exh32_gamma099_lrac3e-4_lrcr1e-3/84f6a015bafc2578e701aafee66be27aa4cb1192_ligand_2.pdbqt
 12 12 0 0 0
SMALL
GASTEIGER

@<TRIPOS>ATOM
      1  C          5.0170    1.8010    0.7690 C.3     1  UNL1        0.1270
      2  C          4.4560    1.1200    1.9500 C.2     1  UNL1        0.3030
      3  O          5.1190    0.2050    2.4920 O.2     1  UNL1       -0.2520
      4  O          3.2240    1.4730    2.4670 O.3     1  UNL1       -0.4810
      5  H          2.6920    2.3070    2.1600 H       1  UNL1        0.2960
      6  C          6.5350    1.7350    0.8930 C.3     1  UNL1        0.0470
      7  C          7.1580    1.0620   -0.2610 C.2     1  UNL1       -0.0470
      8  C          6.3750    0.1940   -1.0120 C.2     1  UNL1        0.0040
      9  C          8.4620    1.2220   -0.6520 C.2     1  UNL1        0.0040
     10  C          6.9300   -0.4650   -2.1070 C.2     1  UNL1        0.0000
     11  C          9.0400    0.5830   -1.7310 C.2     1  UNL1        0.0000
     12  C          8.2380   -0.2740   -2.4590 C.2     1  UNL1        0.0000
@<TRIPOS>BOND
     1    12    10    2
     2    12    11    1
     3    10     8    1
     4    11     9    2
     5     8     7    2
     6     9     7    1
     7     7     6    1
     8     1     6    1
     9     1     2    1
    10     2     4    1
    11     2     3    2
    12     5     4    1
