@<TRIPOS>MOLECULE
/home/cewinharhar/GITHUB/reincatalyze/data/processed/docking_pred/2023-Apr-25-1829_maxeplen10_maxtrainstep200_exh32_gamma099_lrac3e-4_lrcr1e-3/84f6a015bafc2578e701aafee66be27aa4cb1192_ligand_2.pdbqt
 12 12 0 0 0
SMALL
GASTEIGER

@<TRIPOS>ATOM
      1  C          8.4690   -0.6920   -2.0820 C.3     1  UNL1        0.1270
      2  C          8.4720   -1.9220   -2.8930 C.2     1  UNL1        0.3030
      3  O          9.5610   -2.5070   -3.1020 O.2     1  UNL1       -0.2520
      4  O          7.3040   -2.4390   -3.4200 O.3     1  UNL1       -0.4810
      5  H          7.1990   -3.4260   -3.7220 H       1  UNL1        0.2960
      6  C          7.0610   -0.1140   -2.1490 C.3     1  UNL1        0.0470
      7  C          6.4860    0.1070   -0.8110 C.2     1  UNL1       -0.0470
      8  C          6.6090   -0.9080    0.1300 C.2     1  UNL1        0.0040
      9  C          5.8280    1.2440   -0.4170 C.2     1  UNL1        0.0040
     10  C          6.0730   -0.7390    1.4050 C.2     1  UNL1        0.0000
     11  C          5.2860    1.4420    0.8380 C.2     1  UNL1        0.0000
     12  C          5.4240    0.4140    1.7510 C.2     1  UNL1        0.0000
@<TRIPOS>BOND
     1     5     4    1
     2     4     2    1
     3     3     2    2
     4     2     1    1
     5     6     1    1
     6     6     7    1
     7     7     9    2
     8     7     8    1
     9     9    11    1
    10     8    10    2
    11    11    12    2
    12    10    12    1
