MODEL 1
REMARK VINA RESULT:      -7.3      0.000      0.000
REMARK SMILES O=C(O)CCc1ccccc1
REMARK SMILES IDX 4 1 2 2 1 3 3 4 5 6 6 7 7 8 11 9 8 10 10 11 9 12
REMARK H PARENT 3 5
REMARK Flexibility Score: inf
ROOT
ATOM      1  C   UNL     1       8.462  -0.590  -2.232  1.00  0.00     0.127 C 
ENDROOT
BRANCH   1   2
ATOM      2  C   UNL     1       8.479  -1.890  -2.927  1.00  0.00     0.303 C 
ATOM      3  O   UNL     1       9.571  -2.492  -3.057  1.00  0.00    -0.252 OA
BRANCH   2   4
ATOM      4  O   UNL     1       7.322  -2.452  -3.430  1.00  0.00    -0.481 OA
ATOM      5  H   UNL     1       7.012  -3.417  -3.214  1.00  0.00     0.296 HD
ENDBRANCH   2   4
ENDBRANCH   1   2
BRANCH   1   6
ATOM      6  C   UNL     1       7.011  -0.124  -2.189  1.00  0.00     0.047 C 
BRANCH   6   7
ATOM      7  C   UNL     1       6.502  -0.019  -0.810  1.00  0.00    -0.047 A 
ATOM      8  C   UNL     1       5.886   1.167  -0.429  1.00  0.00     0.004 A 
ATOM      9  C   UNL     1       6.594  -1.005   0.138  1.00  0.00     0.004 A 
ATOM     10  C   UNL     1       5.398   1.306   0.869  1.00  0.00     0.000 A 
ATOM     11  C   UNL     1       6.120  -0.898   1.431  1.00  0.00     0.000 A 
ATOM     12  C   UNL     1       5.514   0.293   1.781  1.00  0.00     0.000 A 
ENDBRANCH   6   7
ENDBRANCH   1   6
TORSDOF 4
ENDMDL
MODEL 2
REMARK VINA RESULT:      -7.3      0.063      1.430
REMARK SMILES O=C(O)CCc1ccccc1
REMARK SMILES IDX 4 1 2 2 1 3 3 4 5 6 6 7 7 8 11 9 8 10 10 11 9 12
REMARK H PARENT 3 5
REMARK Flexibility Score: inf
ROOT
ATOM      1  C   UNL     1       8.435  -0.592  -2.201  1.00  0.00     0.127 C 
ENDROOT
BRANCH   1   2
ATOM      2  C   UNL     1       8.464  -1.888  -2.900  1.00  0.00     0.303 C 
ATOM      3  O   UNL     1       9.561  -2.482  -3.029  1.00  0.00    -0.252 OA
BRANCH   2   4
ATOM      4  O   UNL     1       7.313  -2.457  -3.411  1.00  0.00    -0.481 OA
ATOM      5  H   UNL     1       6.482  -2.685  -2.834  1.00  0.00     0.296 HD
ENDBRANCH   2   4
ENDBRANCH   1   2
BRANCH   1   6
ATOM      6  C   UNL     1       6.986  -0.117  -2.199  1.00  0.00     0.047 C 
BRANCH   6   7
ATOM      7  C   UNL     1       6.465   0.073  -0.834  1.00  0.00    -0.047 A 
ATOM      8  C   UNL     1       6.604  -0.973   0.070  1.00  0.00     0.004 A 
ATOM      9  C   UNL     1       5.843   1.208  -0.382  1.00  0.00     0.004 A 
ATOM     10  C   UNL     1       6.118  -0.835   1.368  1.00  0.00     0.000 A 
ATOM     11  C   UNL     1       5.351   1.376   0.898  1.00  0.00     0.000 A 
ATOM     12  C   UNL     1       5.503   0.318   1.773  1.00  0.00     0.000 A 
ENDBRANCH   6   7
ENDBRANCH   1   6
TORSDOF 4
ENDMDL
MODEL 3
REMARK VINA RESULT:      -6.9      0.673      1.885
REMARK SMILES O=C(O)CCc1ccccc1
REMARK SMILES IDX 4 1 2 2 1 3 3 4 5 6 6 7 7 8 11 9 8 10 10 11 9 12
REMARK H PARENT 3 5
REMARK Flexibility Score: inf
ROOT
ATOM      1  C   UNL     1       8.241  -0.650  -2.188  1.00  0.00     0.127 C 
ENDROOT
BRANCH   1   2
ATOM      2  C   UNL     1       8.307  -1.904  -2.959  1.00  0.00     0.303 C 
ATOM      3  O   UNL     1       7.240  -2.427  -3.358  1.00  0.00    -0.252 OA
BRANCH   2   4
ATOM      4  O   UNL     1       9.516  -2.508  -3.248  1.00  0.00    -0.481 OA
ATOM      5  H   UNL     1       9.876  -3.339  -2.744  1.00  0.00     0.296 HD
ENDBRANCH   2   4
ENDBRANCH   1   2
BRANCH   1   6
ATOM      6  C   UNL     1       7.900  -1.025  -0.750  1.00  0.00     0.047 C 
BRANCH   6   7
ATOM      7  C   UNL     1       6.889  -0.127  -0.166  1.00  0.00    -0.047 A 
ATOM      8  C   UNL     1       6.430  -0.404   1.116  1.00  0.00     0.004 A 
ATOM      9  C   UNL     1       6.354   0.968  -0.795  1.00  0.00     0.004 A 
ATOM     10  C   UNL     1       5.469   0.419   1.700  1.00  0.00     0.000 A 
ATOM     11  C   UNL     1       5.402   1.802  -0.244  1.00  0.00     0.000 A 
ATOM     12  C   UNL     1       4.965   1.501   1.031  1.00  0.00     0.000 A 
ENDBRANCH   6   7
ENDBRANCH   1   6
TORSDOF 4
ENDMDL
MODEL 4
REMARK VINA RESULT:      -6.8      3.394      5.096
REMARK SMILES O=C(O)CCc1ccccc1
REMARK SMILES IDX 4 1 2 2 1 3 3 4 5 6 6 7 7 8 11 9 8 10 10 11 9 12
REMARK H PARENT 3 5
REMARK Flexibility Score: inf
ROOT
ATOM      1  C   UNL     1       4.977   1.800   0.728  1.00  0.00     0.127 C 
ENDROOT
BRANCH   1   2
ATOM      2  C   UNL     1       4.463   1.122   1.930  1.00  0.00     0.303 C 
ATOM      3  O   UNL     1       5.159   0.227   2.465  1.00  0.00    -0.252 OA
BRANCH   2   4
ATOM      4  O   UNL     1       3.237   1.453   2.475  1.00  0.00    -0.481 OA
ATOM      5  H   UNL     1       2.413   0.824   2.456  1.00  0.00     0.296 HD
ENDBRANCH   2   4
ENDBRANCH   1   2
BRANCH   1   6
ATOM      6  C   UNL     1       6.497   1.823   0.842  1.00  0.00     0.047 C 
BRANCH   6   7
ATOM      7  C   UNL     1       7.149   1.121  -0.278  1.00  0.00    -0.047 A 
ATOM      8  C   UNL     1       6.370   0.282  -1.066  1.00  0.00     0.004 A 
ATOM      9  C   UNL     1       8.477   1.226  -0.605  1.00  0.00     0.004 A 
ATOM     10  C   UNL     1       6.952  -0.404  -2.131  1.00  0.00     0.000 A 
ATOM     11  C   UNL     1       9.082   0.560  -1.652  1.00  0.00     0.000 A 
ATOM     12  C   UNL     1       8.283  -0.267  -2.417  1.00  0.00     0.000 A 
ENDBRANCH   6   7
ENDBRANCH   1   6
TORSDOF 4
ENDMDL
MODEL 5
REMARK VINA RESULT:      -6.7      3.831      4.966
REMARK SMILES O=C(O)CCc1ccccc1
REMARK SMILES IDX 4 1 2 2 1 3 3 4 5 6 6 7 7 8 11 9 8 10 10 11 9 12
REMARK H PARENT 3 5
REMARK Flexibility Score: inf
ROOT
ATOM      1  C   UNL     1       5.575   2.884  -0.043  1.00  0.00     0.127 C 
ENDROOT
BRANCH   1   2
ATOM      2  C   UNL     1       6.283   3.870   0.793  1.00  0.00     0.303 C 
ATOM      3  O   UNL     1       6.945   4.775   0.232  1.00  0.00    -0.252 OA
BRANCH   2   4
ATOM      4  O   UNL     1       6.229   3.815   2.172  1.00  0.00    -0.481 OA
ATOM      5  H   UNL     1       5.897   4.599   2.764  1.00  0.00     0.296 HD
ENDBRANCH   2   4
ENDBRANCH   1   2
BRANCH   1   6
ATOM      6  C   UNL     1       4.967   1.852   0.900  1.00  0.00     0.047 C 
BRANCH   6   7
ATOM      7  C   UNL     1       5.732   0.592   0.913  1.00  0.00    -0.047 A 
ATOM      8  C   UNL     1       5.764  -0.140   2.094  1.00  0.00     0.004 A 
ATOM      9  C   UNL     1       6.425   0.084  -0.154  1.00  0.00     0.004 A 
ATOM     10  C   UNL     1       6.482  -1.333   2.148  1.00  0.00     0.000 A 
ATOM     11  C   UNL     1       7.145  -1.095  -0.132  1.00  0.00     0.000 A 
ATOM     12  C   UNL     1       7.159  -1.800   1.055  1.00  0.00     0.000 A 
ENDBRANCH   6   7
ENDBRANCH   1   6
TORSDOF 4
ENDMDL
