@<TRIPOS>MOLECULE
/home/cewinharhar/GITHUB/reincatalyze/data/processed/docking_pred/2023-Apr-25-1829_maxeplen10_maxtrainstep200_exh32_gamma099_lrac3e-4_lrcr1e-3/8651a6b7cbc4b018fd9bb7015a505d05e6fdae34_ligand_2.pdbqt
 12 12 0 0 0
SMALL
GASTEIGER

@<TRIPOS>ATOM
      1  C          4.9770    1.8000    0.7280 C.3     1  UNL1        0.1270
      2  C          4.4630    1.1220    1.9300 C.2     1  UNL1        0.3030
      3  O          5.1590    0.2270    2.4650 O.2     1  UNL1       -0.2520
      4  O          3.2370    1.4530    2.4750 O.3     1  UNL1       -0.4810
      5  H          2.4130    0.8240    2.4560 H       1  UNL1        0.2960
      6  C          6.4970    1.8230    0.8420 C.3     1  UNL1        0.0470
      7  C          7.1490    1.1210   -0.2780 C.2     1  UNL1       -0.0470
      8  C          6.3700    0.2820   -1.0660 C.2     1  UNL1        0.0040
      9  C          8.4770    1.2260   -0.6050 C.2     1  UNL1        0.0040
     10  C          6.9520   -0.4040   -2.1310 C.2     1  UNL1        0.0000
     11  C          9.0820    0.5600   -1.6520 C.2     1  UNL1        0.0000
     12  C          8.2830   -0.2670   -2.4170 C.2     1  UNL1        0.0000
@<TRIPOS>BOND
     1    12    10    2
     2    12    11    1
     3    10     8    1
     4    11     9    2
     5     8     7    2
     6     9     7    1
     7     7     6    1
     8     1     6    1
     9     1     2    1
    10     2     3    2
    11     2     4    1
    12     5     4    1
