@<TRIPOS>MOLECULE
/home/cewinharhar/GITHUB/reincatalyze/data/processed/docking_pred/2023-Apr-25-1829_maxeplen10_maxtrainstep200_exh32_gamma099_lrac3e-4_lrcr1e-3/8651a6b7cbc4b018fd9bb7015a505d05e6fdae34_ligand_2.pdbqt
 12 12 0 0 0
SMALL
GASTEIGER

@<TRIPOS>ATOM
      1  C          8.4620   -0.5900   -2.2320 C.3     1  UNL1        0.1270
      2  C          8.4790   -1.8900   -2.9270 C.2     1  UNL1        0.3030
      3  O          9.5710   -2.4920   -3.0570 O.2     1  UNL1       -0.2520
      4  O          7.3220   -2.4520   -3.4300 O.3     1  UNL1       -0.4810
      5  H          7.0120   -3.4170   -3.2140 H       1  UNL1        0.2960
      6  C          7.0110   -0.1240   -2.1890 C.3     1  UNL1        0.0470
      7  C          6.5020   -0.0190   -0.8100 C.2     1  UNL1       -0.0470
      8  C          5.8860    1.1670   -0.4290 C.2     1  UNL1        0.0040
      9  C          6.5940   -1.0050    0.1380 C.2     1  UNL1        0.0040
     10  C          5.3980    1.3060    0.8690 C.2     1  UNL1        0.0000
     11  C          6.1200   -0.8980    1.4310 C.2     1  UNL1        0.0000
     12  C          5.5140    0.2930    1.7810 C.2     1  UNL1        0.0000
@<TRIPOS>BOND
     1     4     5    1
     2     4     2    1
     3     3     2    2
     4     2     1    1
     5     1     6    1
     6     6     7    1
     7     7     8    2
     8     7     9    1
     9     8    10    1
    10     9    11    2
    11    10    12    2
    12    11    12    1
