@<TRIPOS>MOLECULE
/home/cewinharhar/GITHUB/reincatalyze/data/processed/docking_pred/2023-Apr-25-1829_maxeplen10_maxtrainstep200_exh32_gamma099_lrac3e-4_lrcr1e-3/8651a6b7cbc4b018fd9bb7015a505d05e6fdae34_ligand_2.pdbqt
 12 12 0 0 0
SMALL
GASTEIGER

@<TRIPOS>ATOM
      1  C          5.5750    2.8840   -0.0430 C.3     1  UNL1        0.1270
      2  C          6.2830    3.8700    0.7930 C.2     1  UNL1        0.3030
      3  O          6.9450    4.7750    0.2320 O.2     1  UNL1       -0.2520
      4  O          6.2290    3.8150    2.1720 O.3     1  UNL1       -0.4810
      5  H          5.8970    4.5990    2.7640 H       1  UNL1        0.2960
      6  C          4.9670    1.8520    0.9000 C.3     1  UNL1        0.0470
      7  C          5.7320    0.5920    0.9130 C.2     1  UNL1       -0.0470
      8  C          5.7640   -0.1400    2.0940 C.2     1  UNL1        0.0040
      9  C          6.4250    0.0840   -0.1540 C.2     1  UNL1        0.0040
     10  C          6.4820   -1.3330    2.1480 C.2     1  UNL1        0.0000
     11  C          7.1450   -1.0950   -0.1320 C.2     1  UNL1        0.0000
     12  C          7.1590   -1.8000    1.0550 C.2     1  UNL1        0.0000
@<TRIPOS>BOND
     1     9    11    1
     2     9     7    2
     3    11    12    2
     4     1     2    1
     5     1     6    1
     6     3     2    2
     7     2     4    1
     8     6     7    1
     9     7     8    1
    10    12    10    1
    11     8    10    2
    12     4     5    1
