@<TRIPOS>MOLECULE
/home/cewinharhar/GITHUB/reincatalyze/data/processed/docking_pred/2023-Apr-25-1829_maxeplen10_maxtrainstep200_exh32_gamma099_lrac3e-4_lrcr1e-3/8651a6b7cbc4b018fd9bb7015a505d05e6fdae34_ligand_2.pdbqt
 12 12 0 0 0
SMALL
GASTEIGER

@<TRIPOS>ATOM
      1  C          8.2410   -0.6500   -2.1880 C.3     1  UNL1        0.1270
      2  C          8.3070   -1.9040   -2.9590 C.2     1  UNL1        0.3030
      3  O          7.2400   -2.4270   -3.3580 O.2     1  UNL1       -0.2520
      4  O          9.5160   -2.5080   -3.2480 O.3     1  UNL1       -0.4810
      5  H          9.8760   -3.3390   -2.7440 H       1  UNL1        0.2960
      6  C          7.9000   -1.0250   -0.7500 C.3     1  UNL1        0.0470
      7  C          6.8890   -0.1270   -0.1660 C.2     1  UNL1       -0.0470
      8  C          6.4300   -0.4040    1.1160 C.2     1  UNL1        0.0040
      9  C          6.3540    0.9680   -0.7950 C.2     1  UNL1        0.0040
     10  C          5.4690    0.4190    1.7000 C.2     1  UNL1        0.0000
     11  C          5.4020    1.8020   -0.2440 C.2     1  UNL1        0.0000
     12  C          4.9650    1.5010    1.0310 C.2     1  UNL1        0.0000
@<TRIPOS>BOND
     1     3     2    2
     2     4     2    1
     3     4     5    1
     4     2     1    1
     5     1     6    1
     6     9    11    1
     7     9     7    2
     8     6     7    1
     9    11    12    2
    10     7     8    1
    11    12    10    1
    12     8    10    2
