@<TRIPOS>MOLECULE
/home/cewinharhar/GITHUB/reincatalyze/data/processed/docking_pred/2023-Apr-25-1829_maxeplen10_maxtrainstep200_exh32_gamma099_lrac3e-4_lrcr1e-3/87c24324279ed01ab1d4888e5c128f335f215516_ligand_2.pdbqt
 12 12 0 0 0
SMALL
GASTEIGER

@<TRIPOS>ATOM
      1  C          8.4430   -0.7290   -2.0310 C.3     1  UNL1        0.1270
      2  C          8.4590   -1.9460   -2.8600 C.2     1  UNL1        0.3030
      3  O          9.5530   -2.5210   -3.0700 O.2     1  UNL1       -0.2520
      4  O          7.2980   -2.4610   -3.4050 O.3     1  UNL1       -0.4810
      5  H          6.3730   -2.4060   -2.9410 H       1  UNL1        0.2960
      6  C          7.0300   -0.1600   -2.0970 C.3     1  UNL1        0.0470
      7  C          6.4610    0.0730   -0.7570 C.2     1  UNL1       -0.0470
      8  C          6.5800   -0.9380    0.1880 C.2     1  UNL1        0.0040
      9  C          5.8140    1.2170   -0.3680 C.2     1  UNL1        0.0040
     10  C          6.0490   -0.7570    1.4640 C.2     1  UNL1        0.0000
     11  C          5.2780    1.4270    0.8880 C.2     1  UNL1        0.0000
     12  C          5.4100    0.4030    1.8060 C.2     1  UNL1        0.0000
@<TRIPOS>BOND
     1     4     5    1
     2     4     2    1
     3     3     2    2
     4     2     1    1
     5     6     1    1
     6     6     7    1
     7     7     9    2
     8     7     8    1
     9     9    11    1
    10     8    10    2
    11    11    12    2
    12    10    12    1
