@<TRIPOS>MOLECULE
/home/cewinharhar/GITHUB/reincatalyze/data/processed/docking_pred/2023-Apr-25-1829_maxeplen10_maxtrainstep200_exh32_gamma099_lrac3e-4_lrcr1e-3/87c24324279ed01ab1d4888e5c128f335f215516_ligand_2.pdbqt
 12 12 0 0 0
SMALL
GASTEIGER

@<TRIPOS>ATOM
      1  C          8.2820    0.3370   -2.1060 C.3     1  UNL1        0.1270
      2  C          9.4330    0.3980   -1.1880 C.2     1  UNL1        0.3030
      3  O          9.4740   -0.3930   -0.2160 O.2     1  UNL1       -0.2520
      4  O         10.4590    1.3030   -1.3800 O.3     1  UNL1       -0.4810
      5  H         11.3420    1.2920   -0.8350 H       1  UNL1        0.2960
      6  C          7.2360   -0.5610   -1.4540 C.3     1  UNL1        0.0470
      7  C          6.4110    0.1680   -0.4750 C.2     1  UNL1       -0.0470
      8  C          5.8670    1.3880   -0.8570 C.2     1  UNL1        0.0040
      9  C          6.1400   -0.2620    0.7990 C.2     1  UNL1        0.0040
     10  C          5.0860    2.1100    0.0440 C.2     1  UNL1        0.0000
     11  C          5.3710    0.4290    1.7130 C.2     1  UNL1        0.0000
     12  C          4.8440    1.6390    1.3050 C.2     1  UNL1        0.0000
@<TRIPOS>BOND
     1     1     6    1
     2     1     2    1
     3     6     7    1
     4     4     2    1
     5     4     5    1
     6     2     3    2
     7     8     7    2
     8     8    10    1
     9     7     9    1
    10    10    12    2
    11     9    11    2
    12    12    11    1
