@<TRIPOS>MOLECULE
/home/cewinharhar/GITHUB/reincatalyze/data/processed/docking_pred/2023-Apr-25-1829_maxeplen10_maxtrainstep200_exh32_gamma099_lrac3e-4_lrcr1e-3/87c24324279ed01ab1d4888e5c128f335f215516_ligand_2.pdbqt
 12 12 0 0 0
SMALL
GASTEIGER

@<TRIPOS>ATOM
      1  C          7.3160   -1.4150   -2.1160 C.3     1  UNL1        0.1270
      2  C          8.7410   -1.3890   -2.4890 C.2     1  UNL1        0.3030
      3  O          9.1970   -2.3140   -3.2020 O.2     1  UNL1       -0.2520
      4  O          9.5770   -0.3710   -2.0720 O.3     1  UNL1       -0.4810
      5  H          9.6840    0.5270   -2.5790 H       1  UNL1        0.2960
      6  C          7.2510   -1.4040   -0.5930 C.3     1  UNL1        0.0470
      7  C          6.4560   -0.2760   -0.0780 C.2     1  UNL1       -0.0470
      8  C          5.9580   -0.3640    1.2160 C.2     1  UNL1        0.0040
      9  C          6.1620    0.8630   -0.7830 C.2     1  UNL1        0.0040
     10  C          5.1960    0.6810    1.7360 C.2     1  UNL1        0.0000
     11  C          5.4110    1.9150   -0.2950 C.2     1  UNL1        0.0000
     12  C          4.9280    1.7980    0.9930 C.2     1  UNL1        0.0000
@<TRIPOS>BOND
     1     3     2    2
     2     5     4    1
     3     2     1    1
     4     2     4    1
     5     1     6    1
     6     9    11    1
     7     9     7    2
     8     6     7    1
     9    11    12    2
    10     7     8    1
    11    12    10    1
    12     8    10    2
