MODEL 1
REMARK VINA RESULT:      -7.3      0.000      0.000
REMARK SMILES O=C(O)CCc1ccccc1
REMARK SMILES IDX 4 1 2 2 1 3 3 4 5 6 6 7 7 8 11 9 8 10 10 11 9 12
REMARK H PARENT 3 5
REMARK Flexibility Score: inf
ROOT
ATOM      1  C   UNL     1       8.443  -0.729  -2.031  1.00  0.00     0.127 C 
ENDROOT
BRANCH   1   2
ATOM      2  C   UNL     1       8.459  -1.946  -2.860  1.00  0.00     0.303 C 
ATOM      3  O   UNL     1       9.553  -2.521  -3.070  1.00  0.00    -0.252 OA
BRANCH   2   4
ATOM      4  O   UNL     1       7.298  -2.461  -3.405  1.00  0.00    -0.481 OA
ATOM      5  H   UNL     1       6.373  -2.406  -2.941  1.00  0.00     0.296 HD
ENDBRANCH   2   4
ENDBRANCH   1   2
BRANCH   1   6
ATOM      6  C   UNL     1       7.030  -0.160  -2.097  1.00  0.00     0.047 C 
BRANCH   6   7
ATOM      7  C   UNL     1       6.461   0.073  -0.757  1.00  0.00    -0.047 A 
ATOM      8  C   UNL     1       6.580  -0.938   0.188  1.00  0.00     0.004 A 
ATOM      9  C   UNL     1       5.814   1.217  -0.368  1.00  0.00     0.004 A 
ATOM     10  C   UNL     1       6.049  -0.757   1.464  1.00  0.00     0.000 A 
ATOM     11  C   UNL     1       5.278   1.427   0.888  1.00  0.00     0.000 A 
ATOM     12  C   UNL     1       5.410   0.403   1.806  1.00  0.00     0.000 A 
ENDBRANCH   6   7
ENDBRANCH   1   6
TORSDOF 4
ENDMDL
MODEL 2
REMARK VINA RESULT:      -7.3      0.130      1.435
REMARK SMILES O=C(O)CCc1ccccc1
REMARK SMILES IDX 4 1 2 2 1 3 3 4 5 6 6 7 7 8 11 9 8 10 10 11 9 12
REMARK H PARENT 3 5
REMARK Flexibility Score: inf
ROOT
ATOM      1  C   UNL     1       8.457  -0.587  -2.234  1.00  0.00     0.127 C 
ENDROOT
BRANCH   1   2
ATOM      2  C   UNL     1       8.477  -1.894  -2.915  1.00  0.00     0.303 C 
ATOM      3  O   UNL     1       9.570  -2.494  -3.040  1.00  0.00    -0.252 OA
BRANCH   2   4
ATOM      4  O   UNL     1       7.321  -2.464  -3.411  1.00  0.00    -0.481 OA
ATOM      5  H   UNL     1       7.271  -2.962  -4.320  1.00  0.00     0.296 HD
ENDBRANCH   2   4
ENDBRANCH   1   2
BRANCH   1   6
ATOM      6  C   UNL     1       7.004  -0.127  -2.188  1.00  0.00     0.047 C 
BRANCH   6   7
ATOM      7  C   UNL     1       6.498  -0.020  -0.809  1.00  0.00    -0.047 A 
ATOM      8  C   UNL     1       5.877   1.163  -0.430  1.00  0.00     0.004 A 
ATOM      9  C   UNL     1       6.597  -1.003   0.142  1.00  0.00     0.004 A 
ATOM     10  C   UNL     1       5.391   1.305   0.868  1.00  0.00     0.000 A 
ATOM     11  C   UNL     1       6.125  -0.894   1.435  1.00  0.00     0.000 A 
ATOM     12  C   UNL     1       5.514   0.295   1.783  1.00  0.00     0.000 A 
ENDBRANCH   6   7
ENDBRANCH   1   6
TORSDOF 4
ENDMDL
MODEL 3
REMARK VINA RESULT:      -6.8      1.022      1.590
REMARK SMILES O=C(O)CCc1ccccc1
REMARK SMILES IDX 4 1 2 2 1 3 3 4 5 6 6 7 7 8 11 9 8 10 10 11 9 12
REMARK H PARENT 3 5
REMARK Flexibility Score: inf
ROOT
ATOM      1  C   UNL     1       7.316  -1.415  -2.116  1.00  0.00     0.127 C 
ENDROOT
BRANCH   1   2
ATOM      2  C   UNL     1       8.741  -1.389  -2.489  1.00  0.00     0.303 C 
ATOM      3  O   UNL     1       9.197  -2.314  -3.202  1.00  0.00    -0.252 OA
BRANCH   2   4
ATOM      4  O   UNL     1       9.577  -0.371  -2.072  1.00  0.00    -0.481 OA
ATOM      5  H   UNL     1       9.684   0.527  -2.579  1.00  0.00     0.296 HD
ENDBRANCH   2   4
ENDBRANCH   1   2
BRANCH   1   6
ATOM      6  C   UNL     1       7.251  -1.404  -0.593  1.00  0.00     0.047 C 
BRANCH   6   7
ATOM      7  C   UNL     1       6.456  -0.276  -0.078  1.00  0.00    -0.047 A 
ATOM      8  C   UNL     1       5.958  -0.364   1.216  1.00  0.00     0.004 A 
ATOM      9  C   UNL     1       6.162   0.863  -0.783  1.00  0.00     0.004 A 
ATOM     10  C   UNL     1       5.196   0.681   1.736  1.00  0.00     0.000 A 
ATOM     11  C   UNL     1       5.411   1.915  -0.295  1.00  0.00     0.000 A 
ATOM     12  C   UNL     1       4.928   1.798   0.993  1.00  0.00     0.000 A 
ENDBRANCH   6   7
ENDBRANCH   1   6
TORSDOF 4
ENDMDL
MODEL 4
REMARK VINA RESULT:      -6.8      3.377      5.080
REMARK SMILES O=C(O)CCc1ccccc1
REMARK SMILES IDX 4 1 2 2 1 3 3 4 5 6 6 7 7 8 11 9 8 10 10 11 9 12
REMARK H PARENT 3 5
REMARK Flexibility Score: inf
ROOT
ATOM      1  C   UNL     1       4.984   1.774   0.704  1.00  0.00     0.127 C 
ENDROOT
BRANCH   1   2
ATOM      2  C   UNL     1       4.468   1.117   1.917  1.00  0.00     0.303 C 
ATOM      3  O   UNL     1       5.161   0.226   2.464  1.00  0.00    -0.252 OA
BRANCH   2   4
ATOM      4  O   UNL     1       3.245   1.463   2.459  1.00  0.00    -0.481 OA
ATOM      5  H   UNL     1       3.056   1.485   3.478  1.00  0.00     0.296 HD
ENDBRANCH   2   4
ENDBRANCH   1   2
BRANCH   1   6
ATOM      6  C   UNL     1       6.504   1.797   0.819  1.00  0.00     0.047 C 
BRANCH   6   7
ATOM      7  C   UNL     1       7.156   1.079  -0.291  1.00  0.00    -0.047 A 
ATOM      8  C   UNL     1       6.386   0.203  -1.045  1.00  0.00     0.004 A 
ATOM      9  C   UNL     1       8.477   1.204  -0.638  1.00  0.00     0.004 A 
ATOM     10  C   UNL     1       6.968  -0.499  -2.098  1.00  0.00     0.000 A 
ATOM     11  C   UNL     1       9.083   0.523  -1.675  1.00  0.00     0.000 A 
ATOM     12  C   UNL     1       8.292  -0.342  -2.406  1.00  0.00     0.000 A 
ENDBRANCH   6   7
ENDBRANCH   1   6
TORSDOF 4
ENDMDL
MODEL 5
REMARK VINA RESULT:      -6.6      1.943      2.657
REMARK SMILES O=C(O)CCc1ccccc1
REMARK SMILES IDX 4 1 2 2 1 3 3 4 5 6 6 7 7 8 11 9 8 10 10 11 9 12
REMARK H PARENT 3 5
REMARK Flexibility Score: inf
ROOT
ATOM      1  C   UNL     1       8.282   0.337  -2.106  1.00  0.00     0.127 C 
ENDROOT
BRANCH   1   2
ATOM      2  C   UNL     1       9.433   0.398  -1.188  1.00  0.00     0.303 C 
ATOM      3  O   UNL     1       9.474  -0.393  -0.216  1.00  0.00    -0.252 OA
BRANCH   2   4
ATOM      4  O   UNL     1      10.459   1.303  -1.380  1.00  0.00    -0.481 OA
ATOM      5  H   UNL     1      11.342   1.292  -0.835  1.00  0.00     0.296 HD
ENDBRANCH   2   4
ENDBRANCH   1   2
BRANCH   1   6
ATOM      6  C   UNL     1       7.236  -0.561  -1.454  1.00  0.00     0.047 C 
BRANCH   6   7
ATOM      7  C   UNL     1       6.411   0.168  -0.475  1.00  0.00    -0.047 A 
ATOM      8  C   UNL     1       5.867   1.388  -0.857  1.00  0.00     0.004 A 
ATOM      9  C   UNL     1       6.140  -0.262   0.799  1.00  0.00     0.004 A 
ATOM     10  C   UNL     1       5.086   2.110   0.044  1.00  0.00     0.000 A 
ATOM     11  C   UNL     1       5.371   0.429   1.713  1.00  0.00     0.000 A 
ATOM     12  C   UNL     1       4.844   1.639   1.305  1.00  0.00     0.000 A 
ENDBRANCH   6   7
ENDBRANCH   1   6
TORSDOF 4
ENDMDL
