@<TRIPOS>MOLECULE
/home/cewinharhar/GITHUB/reincatalyze/data/processed/docking_pred/2023-Apr-25-1829_maxeplen10_maxtrainstep200_exh32_gamma099_lrac3e-4_lrcr1e-3/87c24324279ed01ab1d4888e5c128f335f215516_ligand_2.pdbqt
 12 12 0 0 0
SMALL
GASTEIGER

@<TRIPOS>ATOM
      1  C          8.4570   -0.5870   -2.2340 C.3     1  UNL1        0.1270
      2  C          8.4770   -1.8940   -2.9150 C.2     1  UNL1        0.3030
      3  O          9.5700   -2.4940   -3.0400 O.2     1  UNL1       -0.2520
      4  O          7.3210   -2.4640   -3.4110 O.3     1  UNL1       -0.4810
      5  H          7.2710   -2.9620   -4.3200 H       1  UNL1        0.2960
      6  C          7.0040   -0.1270   -2.1880 C.3     1  UNL1        0.0470
      7  C          6.4980   -0.0200   -0.8090 C.2     1  UNL1       -0.0470
      8  C          5.8770    1.1630   -0.4300 C.2     1  UNL1        0.0040
      9  C          6.5970   -1.0030    0.1420 C.2     1  UNL1        0.0040
     10  C          5.3910    1.3050    0.8680 C.2     1  UNL1        0.0000
     11  C          6.1250   -0.8940    1.4350 C.2     1  UNL1        0.0000
     12  C          5.5140    0.2950    1.7830 C.2     1  UNL1        0.0000
@<TRIPOS>BOND
     1     5     4    1
     2     4     2    1
     3     3     2    2
     4     2     1    1
     5     1     6    1
     6     6     7    1
     7     7     8    2
     8     7     9    1
     9     8    10    1
    10     9    11    2
    11    10    12    2
    12    11    12    1
