@<TRIPOS>MOLECULE
/home/cewinharhar/GITHUB/reincatalyze/data/processed/docking_pred/2023-Apr-25-1829_maxeplen10_maxtrainstep200_exh32_gamma099_lrac3e-4_lrcr1e-3/87c24324279ed01ab1d4888e5c128f335f215516_ligand_2.pdbqt
 12 12 0 0 0
SMALL
GASTEIGER

@<TRIPOS>ATOM
      1  C          4.9840    1.7740    0.7040 C.3     1  UNL1        0.1270
      2  C          4.4680    1.1170    1.9170 C.2     1  UNL1        0.3030
      3  O          5.1610    0.2260    2.4640 O.2     1  UNL1       -0.2520
      4  O          3.2450    1.4630    2.4590 O.3     1  UNL1       -0.4810
      5  H          3.0560    1.4850    3.4780 H       1  UNL1        0.2960
      6  C          6.5040    1.7970    0.8190 C.3     1  UNL1        0.0470
      7  C          7.1560    1.0790   -0.2910 C.2     1  UNL1       -0.0470
      8  C          6.3860    0.2030   -1.0450 C.2     1  UNL1        0.0040
      9  C          8.4770    1.2040   -0.6380 C.2     1  UNL1        0.0040
     10  C          6.9680   -0.4990   -2.0980 C.2     1  UNL1        0.0000
     11  C          9.0830    0.5230   -1.6750 C.2     1  UNL1        0.0000
     12  C          8.2920   -0.3420   -2.4060 C.2     1  UNL1        0.0000
@<TRIPOS>BOND
     1    12    10    2
     2    12    11    1
     3    10     8    1
     4    11     9    2
     5     8     7    2
     6     9     7    1
     7     7     6    1
     8     1     6    1
     9     1     2    1
    10     2     4    1
    11     2     3    2
    12     4     5    1
