@<TRIPOS>MOLECULE
/home/cewinharhar/GITHUB/reincatalyze/data/processed/docking_pred/2023-Apr-25-1829_maxeplen10_maxtrainstep200_exh32_gamma099_lrac3e-4_lrcr1e-3/895ea28dab147140afd805a2e235fc395d2e1c3a_ligand_2.pdbqt
 12 12 0 0 0
SMALL
GASTEIGER

@<TRIPOS>ATOM
      1  C          4.9870    1.7480    0.7000 C.3     1  UNL1        0.1270
      2  C          4.5570    1.0560    1.9280 C.2     1  UNL1        0.3030
      3  O          3.4370    1.3320    2.4170 O.2     1  UNL1       -0.2520
      4  O          5.3610    0.1160    2.5430 O.3     1  UNL1       -0.4810
      5  H          5.7170   -0.7330    2.0660 H       1  UNL1        0.2960
      6  C          6.5100    1.8050    0.7280 C.3     1  UNL1        0.0470
      7  C          7.1160    1.0050   -0.3520 C.2     1  UNL1       -0.0470
      8  C          8.4540    1.2220   -0.6550 C.2     1  UNL1        0.0040
      9  C          6.4560    0.0570   -1.0910 C.2     1  UNL1        0.0040
     10  C          9.0610    0.4900   -1.6730 C.2     1  UNL1        0.0000
     11  C          7.0280   -0.6840   -2.1050 C.2     1  UNL1        0.0000
     12  C          8.3600   -0.4460   -2.3850 C.2     1  UNL1        0.0000
@<TRIPOS>BOND
     1    12    11    2
     2    12    10    1
     3    11     9    1
     4    10     8    2
     5     9     7    2
     6     8     7    1
     7     7     6    1
     8     1     6    1
     9     1     2    1
    10     2     3    2
    11     2     4    1
    12     5     4    1
