MODEL 1
REMARK VINA RESULT:      -7.4      0.000      0.000
REMARK SMILES O=C(O)CCc1ccccc1
REMARK SMILES IDX 4 1 2 2 1 3 3 4 5 6 6 7 7 8 11 9 8 10 10 11 9 12
REMARK H PARENT 3 5
REMARK Flexibility Score: inf
ROOT
ATOM      1  C   UNL     1       8.479  -0.710  -2.055  1.00  0.00     0.127 C 
ENDROOT
BRANCH   1   2
ATOM      2  C   UNL     1       8.475  -1.924  -2.889  1.00  0.00     0.303 C 
ATOM      3  O   UNL     1       9.560  -2.514  -3.104  1.00  0.00    -0.252 OA
BRANCH   2   4
ATOM      4  O   UNL     1       7.305  -2.421  -3.432  1.00  0.00    -0.481 OA
ATOM      5  H   UNL     1       7.194  -3.401  -3.753  1.00  0.00     0.296 HD
ENDBRANCH   2   4
ENDBRANCH   1   2
BRANCH   1   6
ATOM      6  C   UNL     1       7.087  -0.095  -2.152  1.00  0.00     0.047 C 
BRANCH   6   7
ATOM      7  C   UNL     1       6.486   0.131  -0.825  1.00  0.00    -0.047 A 
ATOM      8  C   UNL     1       6.621  -0.866   0.133  1.00  0.00     0.004 A 
ATOM      9  C   UNL     1       5.793   1.256  -0.459  1.00  0.00     0.004 A 
ATOM     10  C   UNL     1       6.062  -0.692   1.397  1.00  0.00     0.000 A 
ATOM     11  C   UNL     1       5.227   1.459   0.784  1.00  0.00     0.000 A 
ATOM     12  C   UNL     1       5.377   0.449   1.715  1.00  0.00     0.000 A 
ENDBRANCH   6   7
ENDBRANCH   1   6
TORSDOF 4
ENDMDL
MODEL 2
REMARK VINA RESULT:      -7.3      0.146      1.732
REMARK SMILES O=C(O)CCc1ccccc1
REMARK SMILES IDX 4 1 2 2 1 3 3 4 5 6 6 7 7 8 11 9 8 10 10 11 9 12
REMARK H PARENT 3 5
REMARK Flexibility Score: inf
ROOT
ATOM      1  C   UNL     1       8.413  -0.642  -2.144  1.00  0.00     0.127 C 
ENDROOT
BRANCH   1   2
ATOM      2  C   UNL     1       8.385  -1.910  -2.894  1.00  0.00     0.303 C 
ATOM      3  O   UNL     1       7.277  -2.383  -3.242  1.00  0.00    -0.252 OA
BRANCH   2   4
ATOM      4  O   UNL     1       9.548  -2.580  -3.220  1.00  0.00    -0.481 OA
ATOM      5  H   UNL     1      10.497  -2.209  -3.025  1.00  0.00     0.296 HD
ENDBRANCH   2   4
ENDBRANCH   1   2
BRANCH   1   6
ATOM      6  C   UNL     1       6.987  -0.104  -2.119  1.00  0.00     0.047 C 
BRANCH   6   7
ATOM      7  C   UNL     1       6.461   0.013  -0.747  1.00  0.00    -0.047 A 
ATOM      8  C   UNL     1       5.818   1.192  -0.392  1.00  0.00     0.004 A 
ATOM      9  C   UNL     1       6.563  -0.956   0.217  1.00  0.00     0.004 A 
ATOM     10  C   UNL     1       5.313   1.342   0.898  1.00  0.00     0.000 A 
ATOM     11  C   UNL     1       6.073  -0.837   1.503  1.00  0.00     0.000 A 
ATOM     12  C   UNL     1       5.439   0.346   1.827  1.00  0.00     0.000 A 
ENDBRANCH   6   7
ENDBRANCH   1   6
TORSDOF 4
ENDMDL
MODEL 3
REMARK VINA RESULT:      -7.3      0.583      1.578
REMARK SMILES O=C(O)CCc1ccccc1
REMARK SMILES IDX 4 1 2 2 1 3 3 4 5 6 6 7 7 8 11 9 8 10 10 11 9 12
REMARK H PARENT 3 5
REMARK Flexibility Score: inf
ROOT
ATOM      1  C   UNL     1       8.240  -0.919  -1.893  1.00  0.00     0.127 C 
ENDROOT
BRANCH   1   2
ATOM      2  C   UNL     1       8.386  -2.015  -2.867  1.00  0.00     0.303 C 
ATOM      3  O   UNL     1       9.531  -2.473  -3.095  1.00  0.00    -0.252 OA
BRANCH   2   4
ATOM      4  O   UNL     1       7.293  -2.543  -3.526  1.00  0.00    -0.481 OA
ATOM      5  H   UNL     1       6.532  -3.062  -3.050  1.00  0.00     0.296 HD
ENDBRANCH   2   4
ENDBRANCH   1   2
BRANCH   1   6
ATOM      6  C   UNL     1       7.355  -1.438  -0.765  1.00  0.00     0.047 C 
BRANCH   6   7
ATOM      7  C   UNL     1       6.547  -0.366  -0.156  1.00  0.00    -0.047 A 
ATOM      8  C   UNL     1       6.244   0.746  -0.932  1.00  0.00     0.004 A 
ATOM      9  C   UNL     1       6.070  -0.377   1.130  1.00  0.00     0.004 A 
ATOM     10  C   UNL     1       5.487   1.782  -0.389  1.00  0.00     0.000 A 
ATOM     11  C   UNL     1       5.318   0.634   1.696  1.00  0.00     0.000 A 
ATOM     12  C   UNL     1       5.034   1.727   0.900  1.00  0.00     0.000 A 
ENDBRANCH   6   7
ENDBRANCH   1   6
TORSDOF 4
ENDMDL
MODEL 4
REMARK VINA RESULT:      -6.8      3.377      5.086
REMARK SMILES O=C(O)CCc1ccccc1
REMARK SMILES IDX 4 1 2 2 1 3 3 4 5 6 6 7 7 8 11 9 8 10 10 11 9 12
REMARK H PARENT 3 5
REMARK Flexibility Score: inf
ROOT
ATOM      1  C   UNL     1       4.965   1.727   0.690  1.00  0.00     0.127 C 
ENDROOT
BRANCH   1   2
ATOM      2  C   UNL     1       4.460   1.096   1.923  1.00  0.00     0.303 C 
ATOM      3  O   UNL     1       5.157   0.217   2.482  1.00  0.00    -0.252 OA
BRANCH   2   4
ATOM      4  O   UNL     1       3.242   1.455   2.468  1.00  0.00    -0.481 OA
ATOM      5  H   UNL     1       3.062   1.499   3.488  1.00  0.00     0.296 HD
ENDBRANCH   2   4
ENDBRANCH   1   2
BRANCH   1   6
ATOM      6  C   UNL     1       6.484   1.786   0.808  1.00  0.00     0.047 C 
BRANCH   6   7
ATOM      7  C   UNL     1       7.155   1.082  -0.300  1.00  0.00    -0.047 A 
ATOM      8  C   UNL     1       6.393   0.228  -1.088  1.00  0.00     0.004 A 
ATOM      9  C   UNL     1       8.484   1.200  -0.614  1.00  0.00     0.004 A 
ATOM     10  C   UNL     1       6.993  -0.461  -2.141  1.00  0.00     0.000 A 
ATOM     11  C   UNL     1       9.107   0.532  -1.650  1.00  0.00     0.000 A 
ATOM     12  C   UNL     1       8.325  -0.311  -2.415  1.00  0.00     0.000 A 
ENDBRANCH   6   7
ENDBRANCH   1   6
TORSDOF 4
ENDMDL
MODEL 5
REMARK VINA RESULT:      -6.6      3.319      5.123
REMARK SMILES O=C(O)CCc1ccccc1
REMARK SMILES IDX 4 1 2 2 1 3 3 4 5 6 6 7 7 8 11 9 8 10 10 11 9 12
REMARK H PARENT 3 5
REMARK Flexibility Score: inf
ROOT
ATOM      1  C   UNL     1       4.987   1.748   0.700  1.00  0.00     0.127 C 
ENDROOT
BRANCH   1   2
ATOM      2  C   UNL     1       4.557   1.056   1.928  1.00  0.00     0.303 C 
ATOM      3  O   UNL     1       3.437   1.332   2.417  1.00  0.00    -0.252 OA
BRANCH   2   4
ATOM      4  O   UNL     1       5.361   0.116   2.543  1.00  0.00    -0.481 OA
ATOM      5  H   UNL     1       5.717  -0.733   2.066  1.00  0.00     0.296 HD
ENDBRANCH   2   4
ENDBRANCH   1   2
BRANCH   1   6
ATOM      6  C   UNL     1       6.510   1.805   0.728  1.00  0.00     0.047 C 
BRANCH   6   7
ATOM      7  C   UNL     1       7.116   1.005  -0.352  1.00  0.00    -0.047 A 
ATOM      8  C   UNL     1       8.454   1.222  -0.655  1.00  0.00     0.004 A 
ATOM      9  C   UNL     1       6.456   0.057  -1.091  1.00  0.00     0.004 A 
ATOM     10  C   UNL     1       9.061   0.490  -1.673  1.00  0.00     0.000 A 
ATOM     11  C   UNL     1       7.028  -0.684  -2.105  1.00  0.00     0.000 A 
ATOM     12  C   UNL     1       8.360  -0.446  -2.385  1.00  0.00     0.000 A 
ENDBRANCH   6   7
ENDBRANCH   1   6
TORSDOF 4
ENDMDL
