@<TRIPOS>MOLECULE
/home/cewinharhar/GITHUB/reincatalyze/data/processed/docking_pred/2023-Apr-25-1829_maxeplen10_maxtrainstep200_exh32_gamma099_lrac3e-4_lrcr1e-3/895ea28dab147140afd805a2e235fc395d2e1c3a_ligand_2.pdbqt
 12 12 0 0 0
SMALL
GASTEIGER

@<TRIPOS>ATOM
      1  C          4.9650    1.7270    0.6900 C.3     1  UNL1        0.1270
      2  C          4.4600    1.0960    1.9230 C.2     1  UNL1        0.3030
      3  O          5.1570    0.2170    2.4820 O.2     1  UNL1       -0.2520
      4  O          3.2420    1.4550    2.4680 O.3     1  UNL1       -0.4810
      5  H          3.0620    1.4990    3.4880 H       1  UNL1        0.2960
      6  C          6.4840    1.7860    0.8080 C.3     1  UNL1        0.0470
      7  C          7.1550    1.0820   -0.3000 C.2     1  UNL1       -0.0470
      8  C          6.3930    0.2280   -1.0880 C.2     1  UNL1        0.0040
      9  C          8.4840    1.2000   -0.6140 C.2     1  UNL1        0.0040
     10  C          6.9930   -0.4610   -2.1410 C.2     1  UNL1        0.0000
     11  C          9.1070    0.5320   -1.6500 C.2     1  UNL1        0.0000
     12  C          8.3250   -0.3110   -2.4150 C.2     1  UNL1        0.0000
@<TRIPOS>BOND
     1    12    10    2
     2    12    11    1
     3    10     8    1
     4    11     9    2
     5     8     7    2
     6     9     7    1
     7     7     6    1
     8     1     6    1
     9     1     2    1
    10     2     4    1
    11     2     3    2
    12     4     5    1
