@<TRIPOS>MOLECULE
/home/cewinharhar/GITHUB/reincatalyze/data/processed/docking_pred/2023-Apr-25-1829_maxeplen10_maxtrainstep200_exh32_gamma099_lrac3e-4_lrcr1e-3/895ea28dab147140afd805a2e235fc395d2e1c3a_ligand_2.pdbqt
 12 12 0 0 0
SMALL
GASTEIGER

@<TRIPOS>ATOM
      1  C          8.2400   -0.9190   -1.8930 C.3     1  UNL1        0.1270
      2  C          8.3860   -2.0150   -2.8670 C.2     1  UNL1        0.3030
      3  O          9.5310   -2.4730   -3.0950 O.2     1  UNL1       -0.2520
      4  O          7.2930   -2.5430   -3.5260 O.3     1  UNL1       -0.4810
      5  H          6.5320   -3.0620   -3.0500 H       1  UNL1        0.2960
      6  C          7.3550   -1.4380   -0.7650 C.3     1  UNL1        0.0470
      7  C          6.5470   -0.3660   -0.1560 C.2     1  UNL1       -0.0470
      8  C          6.2440    0.7460   -0.9320 C.2     1  UNL1        0.0040
      9  C          6.0700   -0.3770    1.1300 C.2     1  UNL1        0.0040
     10  C          5.4870    1.7820   -0.3890 C.2     1  UNL1        0.0000
     11  C          5.3180    0.6340    1.6960 C.2     1  UNL1        0.0000
     12  C          5.0340    1.7270    0.9000 C.2     1  UNL1        0.0000
@<TRIPOS>BOND
     1     4     5    1
     2     4     2    1
     3     3     2    2
     4     2     1    1
     5     1     6    1
     6     8    10    1
     7     8     7    2
     8     6     7    1
     9    10    12    2
    10     7     9    1
    11    12    11    1
    12     9    11    2
