@<TRIPOS>MOLECULE
/home/cewinharhar/GITHUB/reincatalyze/data/processed/docking_pred/2023-Apr-25-1829_maxeplen10_maxtrainstep200_exh32_gamma099_lrac3e-4_lrcr1e-3/895ea28dab147140afd805a2e235fc395d2e1c3a_ligand_2.pdbqt
 12 12 0 0 0
SMALL
GASTEIGER

@<TRIPOS>ATOM
      1  C          8.4790   -0.7100   -2.0550 C.3     1  UNL1        0.1270
      2  C          8.4750   -1.9240   -2.8890 C.2     1  UNL1        0.3030
      3  O          9.5600   -2.5140   -3.1040 O.2     1  UNL1       -0.2520
      4  O          7.3050   -2.4210   -3.4320 O.3     1  UNL1       -0.4810
      5  H          7.1940   -3.4010   -3.7530 H       1  UNL1        0.2960
      6  C          7.0870   -0.0950   -2.1520 C.3     1  UNL1        0.0470
      7  C          6.4860    0.1310   -0.8250 C.2     1  UNL1       -0.0470
      8  C          6.6210   -0.8660    0.1330 C.2     1  UNL1        0.0040
      9  C          5.7930    1.2560   -0.4590 C.2     1  UNL1        0.0040
     10  C          6.0620   -0.6920    1.3970 C.2     1  UNL1        0.0000
     11  C          5.2270    1.4590    0.7840 C.2     1  UNL1        0.0000
     12  C          5.3770    0.4490    1.7150 C.2     1  UNL1        0.0000
@<TRIPOS>BOND
     1     5     4    1
     2     4     2    1
     3     3     2    2
     4     2     1    1
     5     6     1    1
     6     6     7    1
     7     7     9    2
     8     7     8    1
     9     9    11    1
    10     8    10    2
    11    11    12    2
    12    10    12    1
