@<TRIPOS>MOLECULE
/home/cewinharhar/GITHUB/reincatalyze/data/processed/docking_pred/2023-Apr-25-1829_maxeplen10_maxtrainstep200_exh32_gamma099_lrac3e-4_lrcr1e-3/895ea28dab147140afd805a2e235fc395d2e1c3a_ligand_2.pdbqt
 12 12 0 0 0
SMALL
GASTEIGER

@<TRIPOS>ATOM
      1  C          8.4130   -0.6420   -2.1440 C.3     1  UNL1        0.1270
      2  C          8.3850   -1.9100   -2.8940 C.2     1  UNL1        0.3030
      3  O          7.2770   -2.3830   -3.2420 O.2     1  UNL1       -0.2520
      4  O          9.5480   -2.5800   -3.2200 O.3     1  UNL1       -0.4810
      5  H         10.4970   -2.2090   -3.0250 H       1  UNL1        0.2960
      6  C          6.9870   -0.1040   -2.1190 C.3     1  UNL1        0.0470
      7  C          6.4610    0.0130   -0.7470 C.2     1  UNL1       -0.0470
      8  C          5.8180    1.1920   -0.3920 C.2     1  UNL1        0.0040
      9  C          6.5630   -0.9560    0.2170 C.2     1  UNL1        0.0040
     10  C          5.3130    1.3420    0.8980 C.2     1  UNL1        0.0000
     11  C          6.0730   -0.8370    1.5030 C.2     1  UNL1        0.0000
     12  C          5.4390    0.3460    1.8270 C.2     1  UNL1        0.0000
@<TRIPOS>BOND
     1     3     2    2
     2     4     5    1
     3     4     2    1
     4     2     1    1
     5     1     6    1
     6     6     7    1
     7     7     8    2
     8     7     9    1
     9     8    10    1
    10     9    11    2
    11    10    12    2
    12    11    12    1
