@<TRIPOS>MOLECULE
/home/cewinharhar/GITHUB/reincatalyze/data/processed/docking_pred/2023-Apr-25-1829_maxeplen10_maxtrainstep200_exh32_gamma099_lrac3e-4_lrcr1e-3/8a11bcf53d23875e79cb17a52aa7b3de0dc85e7d_ligand_2.pdbqt
 12 12 0 0 0
SMALL
GASTEIGER

@<TRIPOS>ATOM
      1  C          8.4230   -0.9200   -1.8240 C.3     1  UNL1        0.1270
      2  C          8.3880   -2.0060   -2.8190 C.2     1  UNL1        0.3030
      3  O          7.2770   -2.4020   -3.2430 O.2     1  UNL1       -0.2520
      4  O          9.5490   -2.5890   -3.2900 O.3     1  UNL1       -0.4810
      5  H          9.7170   -2.8040   -4.2900 H       1  UNL1        0.2960
      6  C          7.2070   -0.0370   -2.0810 C.3     1  UNL1        0.0470
      7  C          6.6250    0.4840   -0.8320 C.2     1  UNL1       -0.0470
      8  C          7.0860   -0.0370    0.3720 C.2     1  UNL1        0.0040
      9  C          5.6510    1.4470   -0.7610 C.2     1  UNL1        0.0040
     10  C          6.5550    0.4260    1.5740 C.2     1  UNL1        0.0000
     11  C          5.1060    1.9260    0.4130 C.2     1  UNL1        0.0000
     12  C          5.5830    1.3890    1.5930 C.2     1  UNL1        0.0000
@<TRIPOS>BOND
     1     5     4    1
     2     4     2    1
     3     3     2    2
     4     2     1    1
     5     6     1    1
     6     6     7    1
     7     7     9    2
     8     7     8    1
     9     9    11    1
    10     8    10    2
    11    11    12    2
    12    10    12    1
