@<TRIPOS>MOLECULE
/home/cewinharhar/GITHUB/reincatalyze/data/processed/docking_pred/2023-Apr-25-1829_maxeplen10_maxtrainstep200_exh32_gamma099_lrac3e-4_lrcr1e-3/8a11bcf53d23875e79cb17a52aa7b3de0dc85e7d_ligand_2.pdbqt
 12 12 0 0 0
SMALL
GASTEIGER

@<TRIPOS>ATOM
      1  C          5.0070    1.7970    0.7010 C.3     1  UNL1        0.1270
      2  C          4.5620    1.1050    1.9240 C.2     1  UNL1        0.3030
      3  O          3.4290    1.3700    2.3910 O.2     1  UNL1       -0.2520
      4  O          5.3650    0.1780    2.5590 O.3     1  UNL1       -0.4810
      5  H          6.3910    0.1190    2.4220 H       1  UNL1        0.2960
      6  C          6.5310    1.8220    0.7300 C.3     1  UNL1        0.0470
      7  C          7.1200    1.0110   -0.3500 C.2     1  UNL1       -0.0470
      8  C          8.4520    1.2310   -0.6800 C.2     1  UNL1        0.0040
      9  C          6.4520    0.0510   -1.0650 C.2     1  UNL1        0.0040
     10  C          9.0440    0.4870   -1.7000 C.2     1  UNL1        0.0000
     11  C          7.0100   -0.7020   -2.0790 C.2     1  UNL1        0.0000
     12  C          8.3350   -0.4600   -2.3860 C.2     1  UNL1        0.0000
@<TRIPOS>BOND
     1    12    11    2
     2    12    10    1
     3    11     9    1
     4    10     8    2
     5     9     7    2
     6     8     7    1
     7     7     6    1
     8     1     6    1
     9     1     2    1
    10     2     3    2
    11     2     4    1
    12     5     4    1
