MODEL 1
REMARK VINA RESULT:      -7.2      0.000      0.000
REMARK SMILES O=C(O)CCc1ccccc1
REMARK SMILES IDX 4 1 2 2 1 3 3 4 5 6 6 7 7 8 11 9 8 10 10 11 9 12
REMARK H PARENT 3 5
REMARK Flexibility Score: inf
ROOT
ATOM      1  C   UNL     1       8.610  -0.572  -2.358  1.00  0.00     0.127 C 
ENDROOT
BRANCH   1   2
ATOM      2  C   UNL     1       8.544  -1.915  -2.959  1.00  0.00     0.303 C 
ATOM      3  O   UNL     1       9.600  -2.581  -3.069  1.00  0.00    -0.252 OA
BRANCH   2   4
ATOM      4  O   UNL     1       7.348  -2.449  -3.397  1.00  0.00    -0.481 OA
ATOM      5  H   UNL     1       6.842  -3.206  -2.901  1.00  0.00     0.296 HD
ENDBRANCH   2   4
ENDBRANCH   1   2
BRANCH   1   6
ATOM      6  C   UNL     1       7.178  -0.065  -2.234  1.00  0.00     0.047 C 
BRANCH   6   7
ATOM      7  C   UNL     1       6.808   0.222  -0.836  1.00  0.00    -0.047 A 
ATOM      8  C   UNL     1       5.803   1.153  -0.604  1.00  0.00     0.004 A 
ATOM      9  C   UNL     1       7.386  -0.358   0.263  1.00  0.00     0.004 A 
ATOM     10  C   UNL     1       5.430   1.455   0.705  1.00  0.00     0.000 A 
ATOM     11  C   UNL     1       7.039  -0.080   1.570  1.00  0.00     0.000 A 
ATOM     12  C   UNL     1       6.038   0.850   1.770  1.00  0.00     0.000 A 
ENDBRANCH   6   7
ENDBRANCH   1   6
TORSDOF 4
ENDMDL
MODEL 2
REMARK VINA RESULT:      -7.2      0.130      1.431
REMARK SMILES O=C(O)CCc1ccccc1
REMARK SMILES IDX 4 1 2 2 1 3 3 4 5 6 6 7 7 8 11 9 8 10 10 11 9 12
REMARK H PARENT 3 5
REMARK Flexibility Score: inf
ROOT
ATOM      1  C   UNL     1       8.479  -0.522  -2.427  1.00  0.00     0.127 C 
ENDROOT
BRANCH   1   2
ATOM      2  C   UNL     1       8.492  -1.873  -3.016  1.00  0.00     0.303 C 
ATOM      3  O   UNL     1       9.582  -2.486  -3.098  1.00  0.00    -0.252 OA
BRANCH   2   4
ATOM      4  O   UNL     1       7.333  -2.470  -3.473  1.00  0.00    -0.481 OA
ATOM      5  H   UNL     1       6.866  -3.260  -2.990  1.00  0.00     0.296 HD
ENDBRANCH   2   4
ENDBRANCH   1   2
BRANCH   1   6
ATOM      6  C   UNL     1       7.018  -0.125  -2.249  1.00  0.00     0.047 C 
BRANCH   6   7
ATOM      7  C   UNL     1       6.703   0.226  -0.853  1.00  0.00    -0.047 A 
ATOM      8  C   UNL     1       7.395  -0.431   0.158  1.00  0.00     0.004 A 
ATOM      9  C   UNL     1       5.769   1.153  -0.468  1.00  0.00     0.004 A 
ATOM     10  C   UNL     1       7.120  -0.131   1.491  1.00  0.00     0.000 A 
ATOM     11  C   UNL     1       5.475   1.472   0.843  1.00  0.00     0.000 A 
ATOM     12  C   UNL     1       6.177   0.803   1.826  1.00  0.00     0.000 A 
ENDBRANCH   6   7
ENDBRANCH   1   6
TORSDOF 4
ENDMDL
MODEL 3
REMARK VINA RESULT:      -7.0      0.474      1.784
REMARK SMILES O=C(O)CCc1ccccc1
REMARK SMILES IDX 4 1 2 2 1 3 3 4 5 6 6 7 7 8 11 9 8 10 10 11 9 12
REMARK H PARENT 3 5
REMARK Flexibility Score: inf
ROOT
ATOM      1  C   UNL     1       8.423  -0.920  -1.824  1.00  0.00     0.127 C 
ENDROOT
BRANCH   1   2
ATOM      2  C   UNL     1       8.388  -2.006  -2.819  1.00  0.00     0.303 C 
ATOM      3  O   UNL     1       7.277  -2.402  -3.243  1.00  0.00    -0.252 OA
BRANCH   2   4
ATOM      4  O   UNL     1       9.549  -2.589  -3.290  1.00  0.00    -0.481 OA
ATOM      5  H   UNL     1       9.717  -2.804  -4.290  1.00  0.00     0.296 HD
ENDBRANCH   2   4
ENDBRANCH   1   2
BRANCH   1   6
ATOM      6  C   UNL     1       7.207  -0.037  -2.081  1.00  0.00     0.047 C 
BRANCH   6   7
ATOM      7  C   UNL     1       6.625   0.484  -0.832  1.00  0.00    -0.047 A 
ATOM      8  C   UNL     1       7.086  -0.037   0.372  1.00  0.00     0.004 A 
ATOM      9  C   UNL     1       5.651   1.447  -0.761  1.00  0.00     0.004 A 
ATOM     10  C   UNL     1       6.555   0.426   1.574  1.00  0.00     0.000 A 
ATOM     11  C   UNL     1       5.106   1.926   0.413  1.00  0.00     0.000 A 
ATOM     12  C   UNL     1       5.583   1.389   1.593  1.00  0.00     0.000 A 
ENDBRANCH   6   7
ENDBRANCH   1   6
TORSDOF 4
ENDMDL
MODEL 4
REMARK VINA RESULT:      -6.9      3.315      5.116
REMARK SMILES O=C(O)CCc1ccccc1
REMARK SMILES IDX 4 1 2 2 1 3 3 4 5 6 6 7 7 8 11 9 8 10 10 11 9 12
REMARK H PARENT 3 5
REMARK Flexibility Score: inf
ROOT
ATOM      1  C   UNL     1       5.007   1.797   0.701  1.00  0.00     0.127 C 
ENDROOT
BRANCH   1   2
ATOM      2  C   UNL     1       4.562   1.105   1.924  1.00  0.00     0.303 C 
ATOM      3  O   UNL     1       3.429   1.370   2.391  1.00  0.00    -0.252 OA
BRANCH   2   4
ATOM      4  O   UNL     1       5.365   0.178   2.559  1.00  0.00    -0.481 OA
ATOM      5  H   UNL     1       6.391   0.119   2.422  1.00  0.00     0.296 HD
ENDBRANCH   2   4
ENDBRANCH   1   2
BRANCH   1   6
ATOM      6  C   UNL     1       6.531   1.822   0.730  1.00  0.00     0.047 C 
BRANCH   6   7
ATOM      7  C   UNL     1       7.120   1.011  -0.350  1.00  0.00    -0.047 A 
ATOM      8  C   UNL     1       8.452   1.231  -0.680  1.00  0.00     0.004 A 
ATOM      9  C   UNL     1       6.452   0.051  -1.065  1.00  0.00     0.004 A 
ATOM     10  C   UNL     1       9.044   0.487  -1.700  1.00  0.00     0.000 A 
ATOM     11  C   UNL     1       7.010  -0.702  -2.079  1.00  0.00     0.000 A 
ATOM     12  C   UNL     1       8.335  -0.460  -2.386  1.00  0.00     0.000 A 
ENDBRANCH   6   7
ENDBRANCH   1   6
TORSDOF 4
ENDMDL
MODEL 5
REMARK VINA RESULT:      -6.9      3.329      5.054
REMARK SMILES O=C(O)CCc1ccccc1
REMARK SMILES IDX 4 1 2 2 1 3 3 4 5 6 6 7 7 8 11 9 8 10 10 11 9 12
REMARK H PARENT 3 5
REMARK Flexibility Score: inf
ROOT
ATOM      1  C   UNL     1       5.011   1.780   0.712  1.00  0.00     0.127 C 
ENDROOT
BRANCH   1   2
ATOM      2  C   UNL     1       4.553   1.106   1.940  1.00  0.00     0.303 C 
ATOM      3  O   UNL     1       3.434   1.410   2.415  1.00  0.00    -0.252 OA
BRANCH   2   4
ATOM      4  O   UNL     1       5.330   0.152   2.569  1.00  0.00    -0.481 OA
ATOM      5  H   UNL     1       6.103  -0.357   2.102  1.00  0.00     0.296 HD
ENDBRANCH   2   4
ENDBRANCH   1   2
BRANCH   1   6
ATOM      6  C   UNL     1       6.532   1.857   0.783  1.00  0.00     0.047 C 
BRANCH   6   7
ATOM      7  C   UNL     1       7.178   1.100  -0.304  1.00  0.00    -0.047 A 
ATOM      8  C   UNL     1       6.408   0.184  -1.010  1.00  0.00     0.004 A 
ATOM      9  C   UNL     1       8.493   1.225  -0.674  1.00  0.00     0.004 A 
ATOM     10  C   UNL     1       6.985  -0.556  -2.041  1.00  0.00     0.000 A 
ATOM     11  C   UNL     1       9.093   0.507  -1.689  1.00  0.00     0.000 A 
ATOM     12  C   UNL     1       8.303  -0.396  -2.373  1.00  0.00     0.000 A 
ENDBRANCH   6   7
ENDBRANCH   1   6
TORSDOF 4
ENDMDL
