@<TRIPOS>MOLECULE
/home/cewinharhar/GITHUB/reincatalyze/data/processed/docking_pred/2023-Apr-25-1829_maxeplen10_maxtrainstep200_exh32_gamma099_lrac3e-4_lrcr1e-3/8a11bcf53d23875e79cb17a52aa7b3de0dc85e7d_ligand_2.pdbqt
 12 12 0 0 0
SMALL
GASTEIGER

@<TRIPOS>ATOM
      1  C          8.6100   -0.5720   -2.3580 C.3     1  UNL1        0.1270
      2  C          8.5440   -1.9150   -2.9590 C.2     1  UNL1        0.3030
      3  O          9.6000   -2.5810   -3.0690 O.2     1  UNL1       -0.2520
      4  O          7.3480   -2.4490   -3.3970 O.3     1  UNL1       -0.4810
      5  H          6.8420   -3.2060   -2.9010 H       1  UNL1        0.2960
      6  C          7.1780   -0.0650   -2.2340 C.3     1  UNL1        0.0470
      7  C          6.8080    0.2220   -0.8360 C.2     1  UNL1       -0.0470
      8  C          5.8030    1.1530   -0.6040 C.2     1  UNL1        0.0040
      9  C          7.3860   -0.3580    0.2630 C.2     1  UNL1        0.0040
     10  C          5.4300    1.4550    0.7050 C.2     1  UNL1        0.0000
     11  C          7.0390   -0.0800    1.5700 C.2     1  UNL1        0.0000
     12  C          6.0380    0.8500    1.7700 C.2     1  UNL1        0.0000
@<TRIPOS>BOND
     1     4     2    1
     2     4     5    1
     3     3     2    2
     4     2     1    1
     5     1     6    1
     6     6     7    1
     7     7     8    2
     8     7     9    1
     9     8    10    1
    10     9    11    2
    11    10    12    2
    12    11    12    1
