@<TRIPOS>MOLECULE
/home/cewinharhar/GITHUB/reincatalyze/data/processed/docking_pred/2023-Apr-25-1829_maxeplen10_maxtrainstep200_exh32_gamma099_lrac3e-4_lrcr1e-3/8a11bcf53d23875e79cb17a52aa7b3de0dc85e7d_ligand_2.pdbqt
 12 12 0 0 0
SMALL
GASTEIGER

@<TRIPOS>ATOM
      1  C          5.0110    1.7800    0.7120 C.3     1  UNL1        0.1270
      2  C          4.5530    1.1060    1.9400 C.2     1  UNL1        0.3030
      3  O          3.4340    1.4100    2.4150 O.2     1  UNL1       -0.2520
      4  O          5.3300    0.1520    2.5690 O.3     1  UNL1       -0.4810
      5  H          6.1030   -0.3570    2.1020 H       1  UNL1        0.2960
      6  C          6.5320    1.8570    0.7830 C.3     1  UNL1        0.0470
      7  C          7.1780    1.1000   -0.3040 C.2     1  UNL1       -0.0470
      8  C          6.4080    0.1840   -1.0100 C.2     1  UNL1        0.0040
      9  C          8.4930    1.2250   -0.6740 C.2     1  UNL1        0.0040
     10  C          6.9850   -0.5560   -2.0410 C.2     1  UNL1        0.0000
     11  C          9.0930    0.5070   -1.6890 C.2     1  UNL1        0.0000
     12  C          8.3030   -0.3960   -2.3730 C.2     1  UNL1        0.0000
@<TRIPOS>BOND
     1    12    10    2
     2    12    11    1
     3    10     8    1
     4    11     9    2
     5     8     7    2
     6     9     7    1
     7     7     6    1
     8     1     6    1
     9     1     2    1
    10     2     3    2
    11     2     4    1
    12     5     4    1
