@<TRIPOS>MOLECULE
/home/cewinharhar/GITHUB/reincatalyze/data/processed/docking_pred/2023-Apr-25-1829_maxeplen10_maxtrainstep200_exh32_gamma099_lrac3e-4_lrcr1e-3/8a11bcf53d23875e79cb17a52aa7b3de0dc85e7d_ligand_2.pdbqt
 12 12 0 0 0
SMALL
GASTEIGER

@<TRIPOS>ATOM
      1  C          8.4790   -0.5220   -2.4270 C.3     1  UNL1        0.1270
      2  C          8.4920   -1.8730   -3.0160 C.2     1  UNL1        0.3030
      3  O          9.5820   -2.4860   -3.0980 O.2     1  UNL1       -0.2520
      4  O          7.3330   -2.4700   -3.4730 O.3     1  UNL1       -0.4810
      5  H          6.8660   -3.2600   -2.9900 H       1  UNL1        0.2960
      6  C          7.0180   -0.1250   -2.2490 C.3     1  UNL1        0.0470
      7  C          6.7030    0.2260   -0.8530 C.2     1  UNL1       -0.0470
      8  C          7.3950   -0.4310    0.1580 C.2     1  UNL1        0.0040
      9  C          5.7690    1.1530   -0.4680 C.2     1  UNL1        0.0040
     10  C          7.1200   -0.1310    1.4910 C.2     1  UNL1        0.0000
     11  C          5.4750    1.4720    0.8430 C.2     1  UNL1        0.0000
     12  C          6.1770    0.8030    1.8260 C.2     1  UNL1        0.0000
@<TRIPOS>BOND
     1     4     2    1
     2     4     5    1
     3     3     2    2
     4     2     1    1
     5     1     6    1
     6     6     7    1
     7     7     9    2
     8     7     8    1
     9     9    11    1
    10     8    10    2
    11    11    12    2
    12    10    12    1
