MODEL 1
REMARK VINA RESULT:      -7.3      0.000      0.000
REMARK SMILES O=C(O)CCc1ccccc1
REMARK SMILES IDX 4 1 2 2 1 3 3 4 5 6 6 7 7 8 11 9 8 10 10 11 9 12
REMARK H PARENT 3 5
REMARK Flexibility Score: inf
ROOT
ATOM      1  C   UNL     1       8.458  -0.644  -2.129  1.00  0.00     0.127 C 
ENDROOT
BRANCH   1   2
ATOM      2  C   UNL     1       8.458  -1.910  -2.882  1.00  0.00     0.303 C 
ATOM      3  O   UNL     1       9.548  -2.497  -3.080  1.00  0.00    -0.252 OA
BRANCH   2   4
ATOM      4  O   UNL     1       7.287  -2.459  -3.368  1.00  0.00    -0.481 OA
ATOM      5  H   UNL     1       6.351  -2.260  -2.967  1.00  0.00     0.296 HD
ENDBRANCH   2   4
ENDBRANCH   1   2
BRANCH   1   6
ATOM      6  C   UNL     1       7.022  -0.132  -2.113  1.00  0.00     0.047 C 
BRANCH   6   7
ATOM      7  C   UNL     1       6.488  -0.017  -0.744  1.00  0.00    -0.047 A 
ATOM      8  C   UNL     1       5.871   1.173  -0.381  1.00  0.00     0.004 A 
ATOM      9  C   UNL     1       6.558  -0.999   0.211  1.00  0.00     0.004 A 
ATOM     10  C   UNL     1       5.359   1.322   0.907  1.00  0.00     0.000 A 
ATOM     11  C   UNL     1       6.060  -0.882   1.493  1.00  0.00     0.000 A 
ATOM     12  C   UNL     1       5.453   0.313   1.826  1.00  0.00     0.000 A 
ENDBRANCH   6   7
ENDBRANCH   1   6
TORSDOF 4
ENDMDL
MODEL 2
REMARK VINA RESULT:      -7.2      0.168      1.733
REMARK SMILES O=C(O)CCc1ccccc1
REMARK SMILES IDX 4 1 2 2 1 3 3 4 5 6 6 7 7 8 11 9 8 10 10 11 9 12
REMARK H PARENT 3 5
REMARK Flexibility Score: inf
ROOT
ATOM      1  C   UNL     1       8.433  -0.721  -2.022  1.00  0.00     0.127 C 
ENDROOT
BRANCH   1   2
ATOM      2  C   UNL     1       8.403  -1.933  -2.860  1.00  0.00     0.303 C 
ATOM      3  O   UNL     1       7.293  -2.396  -3.214  1.00  0.00    -0.252 OA
BRANCH   2   4
ATOM      4  O   UNL     1       9.567  -2.561  -3.259  1.00  0.00    -0.481 OA
ATOM      5  H   UNL     1      10.515  -2.199  -3.047  1.00  0.00     0.296 HD
ENDBRANCH   2   4
ENDBRANCH   1   2
BRANCH   1   6
ATOM      6  C   UNL     1       7.053  -0.079  -2.112  1.00  0.00     0.047 C 
BRANCH   6   7
ATOM      7  C   UNL     1       6.460   0.154  -0.783  1.00  0.00    -0.047 A 
ATOM      8  C   UNL     1       6.586  -0.847   0.173  1.00  0.00     0.004 A 
ATOM      9  C   UNL     1       5.784   1.287  -0.413  1.00  0.00     0.004 A 
ATOM     10  C   UNL     1       6.033  -0.666   1.439  1.00  0.00     0.000 A 
ATOM     11  C   UNL     1       5.226   1.496   0.833  1.00  0.00     0.000 A 
ATOM     12  C   UNL     1       5.366   0.484   1.762  1.00  0.00     0.000 A 
ENDBRANCH   6   7
ENDBRANCH   1   6
TORSDOF 4
ENDMDL
MODEL 3
REMARK VINA RESULT:      -6.7      3.357      5.057
REMARK SMILES O=C(O)CCc1ccccc1
REMARK SMILES IDX 4 1 2 2 1 3 3 4 5 6 6 7 7 8 11 9 8 10 10 11 9 12
REMARK H PARENT 3 5
REMARK Flexibility Score: inf
ROOT
ATOM      1  C   UNL     1       4.985   1.746   0.701  1.00  0.00     0.127 C 
ENDROOT
BRANCH   1   2
ATOM      2  C   UNL     1       4.478   1.096   1.923  1.00  0.00     0.303 C 
ATOM      3  O   UNL     1       5.177   0.213   2.473  1.00  0.00    -0.252 OA
BRANCH   2   4
ATOM      4  O   UNL     1       3.256   1.442   2.467  1.00  0.00    -0.481 OA
ATOM      5  H   UNL     1       2.346   1.160   2.058  1.00  0.00     0.296 HD
ENDBRANCH   2   4
ENDBRANCH   1   2
BRANCH   1   6
ATOM      6  C   UNL     1       6.508   1.726   0.783  1.00  0.00     0.047 C 
BRANCH   6   7
ATOM      7  C   UNL     1       7.113   0.961  -0.322  1.00  0.00    -0.047 A 
ATOM      8  C   UNL     1       8.444   1.209  -0.637  1.00  0.00     0.004 A 
ATOM      9  C   UNL     1       6.460   0.019  -1.075  1.00  0.00     0.004 A 
ATOM     10  C   UNL     1       9.050   0.510  -1.679  1.00  0.00     0.000 A 
ATOM     11  C   UNL     1       7.033  -0.690  -2.112  1.00  0.00     0.000 A 
ATOM     12  C   UNL     1       8.356  -0.421  -2.403  1.00  0.00     0.000 A 
ENDBRANCH   6   7
ENDBRANCH   1   6
TORSDOF 4
ENDMDL
MODEL 4
REMARK VINA RESULT:      -6.6      2.012      2.737
REMARK SMILES O=C(O)CCc1ccccc1
REMARK SMILES IDX 4 1 2 2 1 3 3 4 5 6 6 7 7 8 11 9 8 10 10 11 9 12
REMARK H PARENT 3 5
REMARK Flexibility Score: inf
ROOT
ATOM      1  C   UNL     1       8.003  -2.211   0.822  1.00  0.00     0.127 C 
ENDROOT
BRANCH   1   2
ATOM      2  C   UNL     1       8.769  -3.360   0.308  1.00  0.00     0.303 C 
ATOM      3  O   UNL     1       9.617  -3.904   1.053  1.00  0.00    -0.252 OA
BRANCH   2   4
ATOM      4  O   UNL     1       8.568  -3.844  -0.971  1.00  0.00    -0.481 OA
ATOM      5  H   UNL     1       7.653  -3.815  -1.458  1.00  0.00     0.296 HD
ENDBRANCH   2   4
ENDBRANCH   1   2
BRANCH   1   6
ATOM      6  C   UNL     1       7.424  -1.481  -0.385  1.00  0.00     0.047 C 
BRANCH   6   7
ATOM      7  C   UNL     1       6.581  -0.339   0.008  1.00  0.00    -0.047 A 
ATOM      8  C   UNL     1       6.049  -0.330   1.292  1.00  0.00     0.004 A 
ATOM      9  C   UNL     1       6.271   0.723  -0.801  1.00  0.00     0.004 A 
ATOM     10  C   UNL     1       5.241   0.730   1.699  1.00  0.00     0.000 A 
ATOM     11  C   UNL     1       5.474   1.788  -0.428  1.00  0.00     0.000 A 
ATOM     12  C   UNL     1       4.959   1.768   0.853  1.00  0.00     0.000 A 
ENDBRANCH   6   7
ENDBRANCH   1   6
TORSDOF 4
ENDMDL
MODEL 5
REMARK VINA RESULT:      -6.6      1.905      2.660
REMARK SMILES O=C(O)CCc1ccccc1
REMARK SMILES IDX 4 1 2 2 1 3 3 4 5 6 6 7 7 8 11 9 8 10 10 11 9 12
REMARK H PARENT 3 5
REMARK Flexibility Score: inf
ROOT
ATOM      1  C   UNL     1       8.252   0.223  -2.233  1.00  0.00     0.127 C 
ENDROOT
BRANCH   1   2
ATOM      2  C   UNL     1       9.366   0.348  -1.277  1.00  0.00     0.303 C 
ATOM      3  O   UNL     1       9.414  -0.435  -0.299  1.00  0.00    -0.252 OA
BRANCH   2   4
ATOM      4  O   UNL     1      10.350   1.303  -1.440  1.00  0.00    -0.481 OA
ATOM      5  H   UNL     1      11.162   1.404  -0.802  1.00  0.00     0.296 HD
ENDBRANCH   2   4
ENDBRANCH   1   2
BRANCH   1   6
ATOM      6  C   UNL     1       7.148  -0.563  -1.535  1.00  0.00     0.047 C 
BRANCH   6   7
ATOM      7  C   UNL     1       6.355   0.281  -0.624  1.00  0.00    -0.047 A 
ATOM      8  C   UNL     1       6.129  -0.181   0.666  1.00  0.00     0.004 A 
ATOM      9  C   UNL     1       5.812   1.497  -0.954  1.00  0.00     0.004 A 
ATOM     10  C   UNL     1       5.378   0.586   1.555  1.00  0.00     0.000 A 
ATOM     11  C   UNL     1       5.065   2.280  -0.097  1.00  0.00     0.000 A 
ATOM     12  C   UNL     1       4.856   1.794   1.179  1.00  0.00     0.000 A 
ENDBRANCH   6   7
ENDBRANCH   1   6
TORSDOF 4
ENDMDL
