@<TRIPOS>MOLECULE
/home/cewinharhar/GITHUB/reincatalyze/data/processed/docking_pred/2023-Apr-25-1829_maxeplen10_maxtrainstep200_exh32_gamma099_lrac3e-4_lrcr1e-3/8f3f3cc121b2e0b9b67c9595347d7d2b0dd21437_ligand_2.pdbqt
 12 12 0 0 0
SMALL
GASTEIGER

@<TRIPOS>ATOM
      1  C          8.0030   -2.2110    0.8220 C.3     1  UNL1        0.1270
      2  C          8.7690   -3.3600    0.3080 C.2     1  UNL1        0.3030
      3  O          9.6170   -3.9040    1.0530 O.2     1  UNL1       -0.2520
      4  O          8.5680   -3.8440   -0.9710 O.3     1  UNL1       -0.4810
      5  H          7.6530   -3.8150   -1.4580 H       1  UNL1        0.2960
      6  C          7.4240   -1.4810   -0.3850 C.3     1  UNL1        0.0470
      7  C          6.5810   -0.3390    0.0080 C.2     1  UNL1       -0.0470
      8  C          6.0490   -0.3300    1.2920 C.2     1  UNL1        0.0040
      9  C          6.2710    0.7230   -0.8010 C.2     1  UNL1        0.0040
     10  C          5.2410    0.7300    1.6990 C.2     1  UNL1        0.0000
     11  C          5.4740    1.7880   -0.4280 C.2     1  UNL1        0.0000
     12  C          4.9590    1.7680    0.8530 C.2     1  UNL1        0.0000
@<TRIPOS>BOND
     1     5     4    1
     2     4     2    1
     3     9    11    1
     4     9     7    2
     5    11    12    2
     6     6     7    1
     7     6     1    1
     8     7     8    1
     9     2     1    1
    10     2     3    2
    11    12    10    1
    12     8    10    2
