@<TRIPOS>MOLECULE
/home/cewinharhar/GITHUB/reincatalyze/data/processed/docking_pred/2023-Apr-25-1829_maxeplen10_maxtrainstep200_exh32_gamma099_lrac3e-4_lrcr1e-3/8f3f3cc121b2e0b9b67c9595347d7d2b0dd21437_ligand_2.pdbqt
 12 12 0 0 0
SMALL
GASTEIGER

@<TRIPOS>ATOM
      1  C          4.9850    1.7460    0.7010 C.3     1  UNL1        0.1270
      2  C          4.4780    1.0960    1.9230 C.2     1  UNL1        0.3030
      3  O          5.1770    0.2130    2.4730 O.2     1  UNL1       -0.2520
      4  O          3.2560    1.4420    2.4670 O.3     1  UNL1       -0.4810
      5  H          2.3460    1.1600    2.0580 H       1  UNL1        0.2960
      6  C          6.5080    1.7260    0.7830 C.3     1  UNL1        0.0470
      7  C          7.1130    0.9610   -0.3220 C.2     1  UNL1       -0.0470
      8  C          8.4440    1.2090   -0.6370 C.2     1  UNL1        0.0040
      9  C          6.4600    0.0190   -1.0750 C.2     1  UNL1        0.0040
     10  C          9.0500    0.5100   -1.6790 C.2     1  UNL1        0.0000
     11  C          7.0330   -0.6900   -2.1120 C.2     1  UNL1        0.0000
     12  C          8.3560   -0.4210   -2.4030 C.2     1  UNL1        0.0000
@<TRIPOS>BOND
     1    12    11    2
     2    12    10    1
     3    11     9    1
     4    10     8    2
     5     9     7    2
     6     8     7    1
     7     7     6    1
     8     1     6    1
     9     1     2    1
    10     2     4    1
    11     2     3    2
    12     5     4    1
