@<TRIPOS>MOLECULE
/home/cewinharhar/GITHUB/reincatalyze/data/processed/docking_pred/2023-Apr-25-1829_maxeplen10_maxtrainstep200_exh32_gamma099_lrac3e-4_lrcr1e-3/8f3f3cc121b2e0b9b67c9595347d7d2b0dd21437_ligand_2.pdbqt
 12 12 0 0 0
SMALL
GASTEIGER

@<TRIPOS>ATOM
      1  C          8.4330   -0.7210   -2.0220 C.3     1  UNL1        0.1270
      2  C          8.4030   -1.9330   -2.8600 C.2     1  UNL1        0.3030
      3  O          7.2930   -2.3960   -3.2140 O.2     1  UNL1       -0.2520
      4  O          9.5670   -2.5610   -3.2590 O.3     1  UNL1       -0.4810
      5  H         10.5150   -2.1990   -3.0470 H       1  UNL1        0.2960
      6  C          7.0530   -0.0790   -2.1120 C.3     1  UNL1        0.0470
      7  C          6.4600    0.1540   -0.7830 C.2     1  UNL1       -0.0470
      8  C          6.5860   -0.8470    0.1730 C.2     1  UNL1        0.0040
      9  C          5.7840    1.2870   -0.4130 C.2     1  UNL1        0.0040
     10  C          6.0330   -0.6660    1.4390 C.2     1  UNL1        0.0000
     11  C          5.2260    1.4960    0.8330 C.2     1  UNL1        0.0000
     12  C          5.3660    0.4840    1.7620 C.2     1  UNL1        0.0000
@<TRIPOS>BOND
     1     4     5    1
     2     4     2    1
     3     3     2    2
     4     2     1    1
     5     6     1    1
     6     6     7    1
     7     7     9    2
     8     7     8    1
     9     9    11    1
    10     8    10    2
    11    11    12    2
    12    10    12    1
