@<TRIPOS>MOLECULE
/home/cewinharhar/GITHUB/reincatalyze/data/processed/docking_pred/2023-Apr-25-1829_maxeplen10_maxtrainstep200_exh32_gamma099_lrac3e-4_lrcr1e-3/8f3f3cc121b2e0b9b67c9595347d7d2b0dd21437_ligand_2.pdbqt
 12 12 0 0 0
SMALL
GASTEIGER

@<TRIPOS>ATOM
      1  C          8.2520    0.2230   -2.2330 C.3     1  UNL1        0.1270
      2  C          9.3660    0.3480   -1.2770 C.2     1  UNL1        0.3030
      3  O          9.4140   -0.4350   -0.2990 O.2     1  UNL1       -0.2520
      4  O         10.3500    1.3030   -1.4400 O.3     1  UNL1       -0.4810
      5  H         11.1620    1.4040   -0.8020 H       1  UNL1        0.2960
      6  C          7.1480   -0.5630   -1.5350 C.3     1  UNL1        0.0470
      7  C          6.3550    0.2810   -0.6240 C.2     1  UNL1       -0.0470
      8  C          6.1290   -0.1810    0.6660 C.2     1  UNL1        0.0040
      9  C          5.8120    1.4970   -0.9540 C.2     1  UNL1        0.0040
     10  C          5.3780    0.5860    1.5550 C.2     1  UNL1        0.0000
     11  C          5.0650    2.2800   -0.0970 C.2     1  UNL1        0.0000
     12  C          4.8560    1.7940    1.1790 C.2     1  UNL1        0.0000
@<TRIPOS>BOND
     1     1     6    1
     2     1     2    1
     3     6     7    1
     4     4     2    1
     5     4     5    1
     6     2     3    2
     7     9     7    2
     8     9    11    1
     9     7     8    1
    10    11    12    2
    11     8    10    2
    12    12    10    1
