@<TRIPOS>MOLECULE
/home/cewinharhar/GITHUB/reincatalyze/data/processed/docking_pred/2023-Apr-25-1829_maxeplen10_maxtrainstep200_exh32_gamma099_lrac3e-4_lrcr1e-3/8f3f3cc121b2e0b9b67c9595347d7d2b0dd21437_ligand_2.pdbqt
 12 12 0 0 0
SMALL
GASTEIGER

@<TRIPOS>ATOM
      1  C          8.4580   -0.6440   -2.1290 C.3     1  UNL1        0.1270
      2  C          8.4580   -1.9100   -2.8820 C.2     1  UNL1        0.3030
      3  O          9.5480   -2.4970   -3.0800 O.2     1  UNL1       -0.2520
      4  O          7.2870   -2.4590   -3.3680 O.3     1  UNL1       -0.4810
      5  H          6.3510   -2.2600   -2.9670 H       1  UNL1        0.2960
      6  C          7.0220   -0.1320   -2.1130 C.3     1  UNL1        0.0470
      7  C          6.4880   -0.0170   -0.7440 C.2     1  UNL1       -0.0470
      8  C          5.8710    1.1730   -0.3810 C.2     1  UNL1        0.0040
      9  C          6.5580   -0.9990    0.2110 C.2     1  UNL1        0.0040
     10  C          5.3590    1.3220    0.9070 C.2     1  UNL1        0.0000
     11  C          6.0600   -0.8820    1.4930 C.2     1  UNL1        0.0000
     12  C          5.4530    0.3130    1.8260 C.2     1  UNL1        0.0000
@<TRIPOS>BOND
     1     4     5    1
     2     4     2    1
     3     3     2    2
     4     2     1    1
     5     1     6    1
     6     6     7    1
     7     7     8    2
     8     7     9    1
     9     8    10    1
    10     9    11    2
    11    10    12    2
    12    11    12    1
