MODEL 1
REMARK VINA RESULT:      -7.3      0.000      0.000
REMARK SMILES O=C(O)CCc1ccccc1
REMARK SMILES IDX 4 1 2 2 1 3 3 4 5 6 6 7 7 8 11 9 8 10 10 11 9 12
REMARK H PARENT 3 5
REMARK Flexibility Score: inf
ROOT
ATOM      1  C   UNL     1       8.473  -0.645  -2.160  1.00  0.00     0.127 C 
ENDROOT
BRANCH   1   2
ATOM      2  C   UNL     1       8.473  -1.907  -2.920  1.00  0.00     0.303 C 
ATOM      3  O   UNL     1       9.558  -2.512  -3.090  1.00  0.00    -0.252 OA
BRANCH   2   4
ATOM      4  O   UNL     1       7.307  -2.432  -3.444  1.00  0.00    -0.481 OA
ATOM      5  H   UNL     1       7.244  -3.374  -3.872  1.00  0.00     0.296 HD
ENDBRANCH   2   4
ENDBRANCH   1   2
BRANCH   1   6
ATOM      6  C   UNL     1       7.039  -0.126  -2.152  1.00  0.00     0.047 C 
BRANCH   6   7
ATOM      7  C   UNL     1       6.502   0.001  -0.786  1.00  0.00    -0.047 A 
ATOM      8  C   UNL     1       5.859   1.185  -0.444  1.00  0.00     0.004 A 
ATOM      9  C   UNL     1       6.591  -0.962   0.185  1.00  0.00     0.004 A 
ATOM     10  C   UNL     1       5.343   1.345   0.840  1.00  0.00     0.000 A 
ATOM     11  C   UNL     1       6.090  -0.833   1.466  1.00  0.00     0.000 A 
ATOM     12  C   UNL     1       5.457   0.354   1.777  1.00  0.00     0.000 A 
ENDBRANCH   6   7
ENDBRANCH   1   6
TORSDOF 4
ENDMDL
MODEL 2
REMARK VINA RESULT:      -7.2      0.130      1.729
REMARK SMILES O=C(O)CCc1ccccc1
REMARK SMILES IDX 4 1 2 2 1 3 3 4 5 6 6 7 7 8 11 9 8 10 10 11 9 12
REMARK H PARENT 3 5
REMARK Flexibility Score: inf
ROOT
ATOM      1  C   UNL     1       8.421  -0.699  -2.056  1.00  0.00     0.127 C 
ENDROOT
BRANCH   1   2
ATOM      2  C   UNL     1       8.393  -1.931  -2.864  1.00  0.00     0.303 C 
ATOM      3  O   UNL     1       7.284  -2.394  -3.222  1.00  0.00    -0.252 OA
BRANCH   2   4
ATOM      4  O   UNL     1       9.557  -2.576  -3.233  1.00  0.00    -0.481 OA
ATOM      5  H   UNL     1      10.312  -2.127  -3.783  1.00  0.00     0.296 HD
ENDBRANCH   2   4
ENDBRANCH   1   2
BRANCH   1   6
ATOM      6  C   UNL     1       7.025  -0.091  -2.117  1.00  0.00     0.047 C 
BRANCH   6   7
ATOM      7  C   UNL     1       6.454   0.127  -0.776  1.00  0.00    -0.047 A 
ATOM      8  C   UNL     1       6.571  -0.896   0.158  1.00  0.00     0.004 A 
ATOM      9  C   UNL     1       5.806   1.266  -0.373  1.00  0.00     0.004 A 
ATOM     10  C   UNL     1       6.038  -0.730   1.435  1.00  0.00     0.000 A 
ATOM     11  C   UNL     1       5.269   1.460   0.884  1.00  0.00     0.000 A 
ATOM     12  C   UNL     1       5.399   0.426   1.790  1.00  0.00     0.000 A 
ENDBRANCH   6   7
ENDBRANCH   1   6
TORSDOF 4
ENDMDL
MODEL 3
REMARK VINA RESULT:      -7.2      0.626      1.611
REMARK SMILES O=C(O)CCc1ccccc1
REMARK SMILES IDX 4 1 2 2 1 3 3 4 5 6 6 7 7 8 11 9 8 10 10 11 9 12
REMARK H PARENT 3 5
REMARK Flexibility Score: inf
ROOT
ATOM      1  C   UNL     1       8.263  -0.884  -1.928  1.00  0.00     0.127 C 
ENDROOT
BRANCH   1   2
ATOM      2  C   UNL     1       8.375  -2.008  -2.874  1.00  0.00     0.303 C 
ATOM      3  O   UNL     1       9.506  -2.499  -3.099  1.00  0.00    -0.252 OA
BRANCH   2   4
ATOM      4  O   UNL     1       7.264  -2.525  -3.512  1.00  0.00    -0.481 OA
ATOM      5  H   UNL     1       7.041  -3.537  -3.543  1.00  0.00     0.296 HD
ENDBRANCH   2   4
ENDBRANCH   1   2
BRANCH   1   6
ATOM      6  C   UNL     1       7.434  -1.374  -0.746  1.00  0.00     0.047 C 
BRANCH   6   7
ATOM      7  C   UNL     1       6.593  -0.307  -0.175  1.00  0.00    -0.047 A 
ATOM      8  C   UNL     1       6.147  -0.455   1.132  1.00  0.00     0.004 A 
ATOM      9  C   UNL     1       6.209   0.829  -0.840  1.00  0.00     0.004 A 
ATOM     10  C   UNL     1       5.344   0.530   1.704  1.00  0.00     0.000 A 
ATOM     11  C   UNL     1       5.416   1.822  -0.300  1.00  0.00     0.000 A 
ATOM     12  C   UNL     1       4.986   1.647   1.000  1.00  0.00     0.000 A 
ENDBRANCH   6   7
ENDBRANCH   1   6
TORSDOF 4
ENDMDL
MODEL 4
REMARK VINA RESULT:      -6.7      3.380      5.076
REMARK SMILES O=C(O)CCc1ccccc1
REMARK SMILES IDX 4 1 2 2 1 3 3 4 5 6 6 7 7 8 11 9 8 10 10 11 9 12
REMARK H PARENT 3 5
REMARK Flexibility Score: inf
ROOT
ATOM      1  C   UNL     1       4.963   1.823   0.699  1.00  0.00     0.127 C 
ENDROOT
BRANCH   1   2
ATOM      2  C   UNL     1       4.470   1.141   1.908  1.00  0.00     0.303 C 
ATOM      3  O   UNL     1       5.186   0.260   2.441  1.00  0.00    -0.252 OA
BRANCH   2   4
ATOM      4  O   UNL     1       3.243   1.454   2.462  1.00  0.00    -0.481 OA
ATOM      5  H   UNL     1       2.340   1.116   2.082  1.00  0.00     0.296 HD
ENDBRANCH   2   4
ENDBRANCH   1   2
BRANCH   1   6
ATOM      6  C   UNL     1       6.485   1.814   0.768  1.00  0.00     0.047 C 
BRANCH   6   7
ATOM      7  C   UNL     1       7.087   1.040  -0.332  1.00  0.00    -0.047 A 
ATOM      8  C   UNL     1       8.431   1.247  -0.619  1.00  0.00     0.004 A 
ATOM      9  C   UNL     1       6.419   0.126  -1.107  1.00  0.00     0.004 A 
ATOM     10  C   UNL     1       9.033   0.538  -1.657  1.00  0.00     0.000 A 
ATOM     11  C   UNL     1       6.987  -0.591  -2.140  1.00  0.00     0.000 A 
ATOM     12  C   UNL     1       8.324  -0.363  -2.403  1.00  0.00     0.000 A 
ENDBRANCH   6   7
ENDBRANCH   1   6
TORSDOF 4
ENDMDL
MODEL 5
REMARK VINA RESULT:      -6.6      1.940      2.640
REMARK SMILES O=C(O)CCc1ccccc1
REMARK SMILES IDX 4 1 2 2 1 3 3 4 5 6 6 7 7 8 11 9 8 10 10 11 9 12
REMARK H PARENT 3 5
REMARK Flexibility Score: inf
ROOT
ATOM      1  C   UNL     1       8.198   0.261  -2.097  1.00  0.00     0.127 C 
ENDROOT
BRANCH   1   2
ATOM      2  C   UNL     1       9.371   0.366  -1.212  1.00  0.00     0.303 C 
ATOM      3  O   UNL     1       9.457  -0.405  -0.227  1.00  0.00    -0.252 OA
BRANCH   2   4
ATOM      4  O   UNL     1      10.370   1.291  -1.447  1.00  0.00    -0.481 OA
ATOM      5  H   UNL     1      10.872   1.796  -0.694  1.00  0.00     0.296 HD
ENDBRANCH   2   4
ENDBRANCH   1   2
BRANCH   1   6
ATOM      6  C   UNL     1       7.175  -0.617  -1.384  1.00  0.00     0.047 C 
BRANCH   6   7
ATOM      7  C   UNL     1       6.364   0.147  -0.420  1.00  0.00    -0.047 A 
ATOM      8  C   UNL     1       6.145  -0.407   0.836  1.00  0.00     0.004 A 
ATOM      9  C   UNL     1       5.796   1.371  -0.667  1.00  0.00     0.004 A 
ATOM     10  C   UNL     1       5.378   0.282   1.772  1.00  0.00     0.000 A 
ATOM     11  C   UNL     1       5.032   2.078   0.240  1.00  0.00     0.000 A 
ATOM     12  C   UNL     1       4.831   1.502   1.478  1.00  0.00     0.000 A 
ENDBRANCH   6   7
ENDBRANCH   1   6
TORSDOF 4
ENDMDL
