@<TRIPOS>MOLECULE
/home/cewinharhar/GITHUB/reincatalyze/data/processed/docking_pred/2023-Apr-25-1829_maxeplen10_maxtrainstep200_exh32_gamma099_lrac3e-4_lrcr1e-3/8f7c925e970cb887b69f6e81c5db99fda922d0ae_ligand_2.pdbqt
 12 12 0 0 0
SMALL
GASTEIGER

@<TRIPOS>ATOM
      1  C          8.4210   -0.6990   -2.0560 C.3     1  UNL1        0.1270
      2  C          8.3930   -1.9310   -2.8640 C.2     1  UNL1        0.3030
      3  O          7.2840   -2.3940   -3.2220 O.2     1  UNL1       -0.2520
      4  O          9.5570   -2.5760   -3.2330 O.3     1  UNL1       -0.4810
      5  H         10.3120   -2.1270   -3.7830 H       1  UNL1        0.2960
      6  C          7.0250   -0.0910   -2.1170 C.3     1  UNL1        0.0470
      7  C          6.4540    0.1270   -0.7760 C.2     1  UNL1       -0.0470
      8  C          6.5710   -0.8960    0.1580 C.2     1  UNL1        0.0040
      9  C          5.8060    1.2660   -0.3730 C.2     1  UNL1        0.0040
     10  C          6.0380   -0.7300    1.4350 C.2     1  UNL1        0.0000
     11  C          5.2690    1.4600    0.8840 C.2     1  UNL1        0.0000
     12  C          5.3990    0.4260    1.7900 C.2     1  UNL1        0.0000
@<TRIPOS>BOND
     1     5     4    1
     2     4     2    1
     3     3     2    2
     4     2     1    1
     5     6     1    1
     6     6     7    1
     7     7     9    2
     8     7     8    1
     9     9    11    1
    10     8    10    2
    11    11    12    2
    12    10    12    1
