@<TRIPOS>MOLECULE
/home/cewinharhar/GITHUB/reincatalyze/data/processed/docking_pred/2023-Apr-25-1829_maxeplen10_maxtrainstep200_exh32_gamma099_lrac3e-4_lrcr1e-3/8f7c925e970cb887b69f6e81c5db99fda922d0ae_ligand_2.pdbqt
 12 12 0 0 0
SMALL
GASTEIGER

@<TRIPOS>ATOM
      1  C          8.2630   -0.8840   -1.9280 C.3     1  UNL1        0.1270
      2  C          8.3750   -2.0080   -2.8740 C.2     1  UNL1        0.3030
      3  O          9.5060   -2.4990   -3.0990 O.2     1  UNL1       -0.2520
      4  O          7.2640   -2.5250   -3.5120 O.3     1  UNL1       -0.4810
      5  H          7.0410   -3.5370   -3.5430 H       1  UNL1        0.2960
      6  C          7.4340   -1.3740   -0.7460 C.3     1  UNL1        0.0470
      7  C          6.5930   -0.3070   -0.1750 C.2     1  UNL1       -0.0470
      8  C          6.1470   -0.4550    1.1320 C.2     1  UNL1        0.0040
      9  C          6.2090    0.8290   -0.8400 C.2     1  UNL1        0.0040
     10  C          5.3440    0.5300    1.7040 C.2     1  UNL1        0.0000
     11  C          5.4160    1.8220   -0.3000 C.2     1  UNL1        0.0000
     12  C          4.9860    1.6470    1.0000 C.2     1  UNL1        0.0000
@<TRIPOS>BOND
     1     5     4    1
     2     4     2    1
     3     3     2    2
     4     2     1    1
     5     1     6    1
     6     9    11    1
     7     9     7    2
     8     6     7    1
     9    11    12    2
    10     7     8    1
    11    12    10    1
    12     8    10    2
