@<TRIPOS>MOLECULE
/home/cewinharhar/GITHUB/reincatalyze/data/processed/docking_pred/2023-Apr-25-1829_maxeplen10_maxtrainstep200_exh32_gamma099_lrac3e-4_lrcr1e-3/8f7c925e970cb887b69f6e81c5db99fda922d0ae_ligand_2.pdbqt
 12 12 0 0 0
SMALL
GASTEIGER

@<TRIPOS>ATOM
      1  C          8.4730   -0.6450   -2.1600 C.3     1  UNL1        0.1270
      2  C          8.4730   -1.9070   -2.9200 C.2     1  UNL1        0.3030
      3  O          9.5580   -2.5120   -3.0900 O.2     1  UNL1       -0.2520
      4  O          7.3070   -2.4320   -3.4440 O.3     1  UNL1       -0.4810
      5  H          7.2440   -3.3740   -3.8720 H       1  UNL1        0.2960
      6  C          7.0390   -0.1260   -2.1520 C.3     1  UNL1        0.0470
      7  C          6.5020    0.0010   -0.7860 C.2     1  UNL1       -0.0470
      8  C          5.8590    1.1850   -0.4440 C.2     1  UNL1        0.0040
      9  C          6.5910   -0.9620    0.1850 C.2     1  UNL1        0.0040
     10  C          5.3430    1.3450    0.8400 C.2     1  UNL1        0.0000
     11  C          6.0900   -0.8330    1.4660 C.2     1  UNL1        0.0000
     12  C          5.4570    0.3540    1.7770 C.2     1  UNL1        0.0000
@<TRIPOS>BOND
     1     5     4    1
     2     4     2    1
     3     3     2    2
     4     2     1    1
     5     1     6    1
     6     6     7    1
     7     7     8    2
     8     7     9    1
     9     8    10    1
    10     9    11    2
    11    10    12    2
    12    11    12    1
