@<TRIPOS>MOLECULE
/home/cewinharhar/GITHUB/reincatalyze/data/processed/docking_pred/2023-Apr-25-1829_maxeplen10_maxtrainstep200_exh32_gamma099_lrac3e-4_lrcr1e-3/8f7c925e970cb887b69f6e81c5db99fda922d0ae_ligand_2.pdbqt
 12 12 0 0 0
SMALL
GASTEIGER

@<TRIPOS>ATOM
      1  C          8.1980    0.2610   -2.0970 C.3     1  UNL1        0.1270
      2  C          9.3710    0.3660   -1.2120 C.2     1  UNL1        0.3030
      3  O          9.4570   -0.4050   -0.2270 O.2     1  UNL1       -0.2520
      4  O         10.3700    1.2910   -1.4470 O.3     1  UNL1       -0.4810
      5  H         10.8720    1.7960   -0.6940 H       1  UNL1        0.2960
      6  C          7.1750   -0.6170   -1.3840 C.3     1  UNL1        0.0470
      7  C          6.3640    0.1470   -0.4200 C.2     1  UNL1       -0.0470
      8  C          6.1450   -0.4070    0.8360 C.2     1  UNL1        0.0040
      9  C          5.7960    1.3710   -0.6670 C.2     1  UNL1        0.0040
     10  C          5.3780    0.2820    1.7720 C.2     1  UNL1        0.0000
     11  C          5.0320    2.0780    0.2400 C.2     1  UNL1        0.0000
     12  C          4.8310    1.5020    1.4780 C.2     1  UNL1        0.0000
@<TRIPOS>BOND
     1     1     6    1
     2     1     2    1
     3     4     2    1
     4     4     5    1
     5     6     7    1
     6     2     3    2
     7     9     7    2
     8     9    11    1
     9     7     8    1
    10    11    12    2
    11     8    10    2
    12    12    10    1
