@<TRIPOS>MOLECULE
/home/cewinharhar/GITHUB/reincatalyze/data/processed/docking_pred/2023-Apr-25-1829_maxeplen10_maxtrainstep200_exh32_gamma099_lrac3e-4_lrcr1e-3/8f7c925e970cb887b69f6e81c5db99fda922d0ae_ligand_2.pdbqt
 12 12 0 0 0
SMALL
GASTEIGER

@<TRIPOS>ATOM
      1  C          4.9630    1.8230    0.6990 C.3     1  UNL1        0.1270
      2  C          4.4700    1.1410    1.9080 C.2     1  UNL1        0.3030
      3  O          5.1860    0.2600    2.4410 O.2     1  UNL1       -0.2520
      4  O          3.2430    1.4540    2.4620 O.3     1  UNL1       -0.4810
      5  H          2.3400    1.1160    2.0820 H       1  UNL1        0.2960
      6  C          6.4850    1.8140    0.7680 C.3     1  UNL1        0.0470
      7  C          7.0870    1.0400   -0.3320 C.2     1  UNL1       -0.0470
      8  C          8.4310    1.2470   -0.6190 C.2     1  UNL1        0.0040
      9  C          6.4190    0.1260   -1.1070 C.2     1  UNL1        0.0040
     10  C          9.0330    0.5380   -1.6570 C.2     1  UNL1        0.0000
     11  C          6.9870   -0.5910   -2.1400 C.2     1  UNL1        0.0000
     12  C          8.3240   -0.3630   -2.4030 C.2     1  UNL1        0.0000
@<TRIPOS>BOND
     1    12    11    2
     2    12    10    1
     3    11     9    1
     4    10     8    2
     5     9     7    2
     6     8     7    1
     7     7     6    1
     8     1     6    1
     9     1     2    1
    10     2     3    2
    11     2     4    1
    12     5     4    1
