@<TRIPOS>MOLECULE
/home/cewinharhar/GITHUB/reincatalyze/data/processed/docking_pred/2023-Apr-25-1829_maxeplen10_maxtrainstep200_exh32_gamma099_lrac3e-4_lrcr1e-3/90bec1d2941dc3e2c4ee946d92d9c3e8ec331448_ligand_2.pdbqt
 12 12 0 0 0
SMALL
GASTEIGER

@<TRIPOS>ATOM
      1  C          8.2270   -0.9100   -1.8850 C.3     1  UNL1        0.1270
      2  C          8.3970   -1.9950   -2.8680 C.2     1  UNL1        0.3030
      3  O          9.5510   -2.4280   -3.0970 O.2     1  UNL1       -0.2520
      4  O          7.3150   -2.5400   -3.5330 O.3     1  UNL1       -0.4810
      5  H          6.3300   -2.3730   -3.2580 H       1  UNL1        0.2960
      6  C          7.2900   -1.4300   -0.8010 C.3     1  UNL1        0.0470
      7  C          6.5120   -0.3480   -0.1720 C.2     1  UNL1       -0.0470
      8  C          6.2070    0.7690   -0.9410 C.2     1  UNL1        0.0040
      9  C          6.0670   -0.3520    1.1250 C.2     1  UNL1        0.0040
     10  C          5.4790    1.8160   -0.3790 C.2     1  UNL1        0.0000
     11  C          5.3440    0.6690    1.7090 C.2     1  UNL1        0.0000
     12  C          5.0560    1.7660    0.9210 C.2     1  UNL1        0.0000
@<TRIPOS>BOND
     1     4     5    1
     2     4     2    1
     3     3     2    2
     4     2     1    1
     5     1     6    1
     6     8    10    1
     7     8     7    2
     8     6     7    1
     9    10    12    2
    10     7     9    1
    11    12    11    1
    12     9    11    2
