@<TRIPOS>MOLECULE
/home/cewinharhar/GITHUB/reincatalyze/data/processed/docking_pred/2023-Apr-25-1829_maxeplen10_maxtrainstep200_exh32_gamma099_lrac3e-4_lrcr1e-3/90bec1d2941dc3e2c4ee946d92d9c3e8ec331448_ligand_2.pdbqt
 12 12 0 0 0
SMALL
GASTEIGER

@<TRIPOS>ATOM
      1  C          8.4280   -0.6620   -2.1060 C.3     1  UNL1        0.1270
      2  C          8.4010   -1.9180   -2.8750 C.2     1  UNL1        0.3030
      3  O          7.2940   -2.3960   -3.2160 O.2     1  UNL1       -0.2520
      4  O          9.5670   -2.5720   -3.2250 O.3     1  UNL1       -0.4810
      5  H         10.1720   -2.2820   -4.0160 H       1  UNL1        0.2960
      6  C          7.0210   -0.0780   -2.1530 C.3     1  UNL1        0.0470
      7  C          6.4600    0.1330   -0.8070 C.2     1  UNL1       -0.0470
      8  C          6.5940   -0.8900    0.1240 C.2     1  UNL1        0.0040
      9  C          5.8060    1.2650   -0.3970 C.2     1  UNL1        0.0040
     10  C          6.0720   -0.7320    1.4060 C.2     1  UNL1        0.0000
     11  C          5.2780    1.4530    0.8650 C.2     1  UNL1        0.0000
     12  C          5.4260    0.4180    1.7680 C.2     1  UNL1        0.0000
@<TRIPOS>BOND
     1     5     4    1
     2     4     2    1
     3     3     2    2
     4     2     1    1
     5     6     1    1
     6     6     7    1
     7     7     9    2
     8     7     8    1
     9     9    11    1
    10     8    10    2
    11    11    12    2
    12    10    12    1
