@<TRIPOS>MOLECULE
/home/cewinharhar/GITHUB/reincatalyze/data/processed/docking_pred/2023-Apr-25-1829_maxeplen10_maxtrainstep200_exh32_gamma099_lrac3e-4_lrcr1e-3/90bec1d2941dc3e2c4ee946d92d9c3e8ec331448_ligand_2.pdbqt
 12 12 0 0 0
SMALL
GASTEIGER

@<TRIPOS>ATOM
      1  C          8.4640   -0.5950   -2.2090 C.3     1  UNL1        0.1270
      2  C          8.4620   -1.8770   -2.9340 C.2     1  UNL1        0.3030
      3  O          9.5450   -2.4910   -3.0800 O.2     1  UNL1       -0.2520
      4  O          7.2970   -2.4110   -3.4500 O.3     1  UNL1       -0.4810
      5  H          7.2120   -2.7760   -4.4170 H       1  UNL1        0.2960
      6  C          7.0250   -0.0900   -2.1880 C.3     1  UNL1        0.0470
      7  C          6.4980    0.0280   -0.8170 C.2     1  UNL1       -0.0470
      8  C          5.8840    1.2210   -0.4540 C.2     1  UNL1        0.0040
      9  C          6.5700   -0.9520    0.1390 C.2     1  UNL1        0.0040
     10  C          5.3780    1.3730    0.8360 C.2     1  UNL1        0.0000
     11  C          6.0780   -0.8320    1.4240 C.2     1  UNL1        0.0000
     12  C          5.4750    0.3650    1.7570 C.2     1  UNL1        0.0000
@<TRIPOS>BOND
     1     5     4    1
     2     4     2    1
     3     3     2    2
     4     2     1    1
     5     1     6    1
     6     6     7    1
     7     7     8    2
     8     7     9    1
     9     8    10    1
    10     9    11    2
    11    10    12    2
    12    11    12    1
