@<TRIPOS>MOLECULE
/home/cewinharhar/GITHUB/reincatalyze/data/processed/docking_pred/2023-Apr-25-1829_maxeplen10_maxtrainstep200_exh32_gamma099_lrac3e-4_lrcr1e-3/90bec1d2941dc3e2c4ee946d92d9c3e8ec331448_ligand_2.pdbqt
 12 12 0 0 0
SMALL
GASTEIGER

@<TRIPOS>ATOM
      1  C          4.9970    1.7880    0.7600 C.3     1  UNL1        0.1270
      2  C          4.4530    1.1090    1.9490 C.2     1  UNL1        0.3030
      3  O          5.1250    0.1970    2.4860 O.2     1  UNL1       -0.2520
      4  O          3.2260    1.4590    2.4800 O.3     1  UNL1       -0.4810
      5  H          3.0620    2.3280    3.0210 H       1  UNL1        0.2960
      6  C          6.5160    1.7600    0.8840 C.3     1  UNL1        0.0470
      7  C          7.1540    1.0810   -0.2580 C.2     1  UNL1       -0.0470
      8  C          6.3760    0.2240   -1.0270 C.2     1  UNL1        0.0040
      9  C          8.4680    1.2240   -0.6220 C.2     1  UNL1        0.0040
     10  C          6.9450   -0.4410   -2.1120 C.2     1  UNL1        0.0000
     11  C          9.0610    0.5790   -1.6900 C.2     1  UNL1        0.0000
     12  C          8.2630   -0.2660   -2.4350 C.2     1  UNL1        0.0000
@<TRIPOS>BOND
     1    12    10    2
     2    12    11    1
     3    10     8    1
     4    11     9    2
     5     8     7    2
     6     9     7    1
     7     7     6    1
     8     1     6    1
     9     1     2    1
    10     2     4    1
    11     2     3    2
    12     4     5    1
