MODEL 1
REMARK VINA RESULT:      -7.3      0.000      0.000
REMARK SMILES O=C(O)CCc1ccccc1
REMARK SMILES IDX 4 1 2 2 1 3 3 4 5 6 6 7 7 8 11 9 8 10 10 11 9 12
REMARK H PARENT 3 5
REMARK Flexibility Score: inf
ROOT
ATOM      1  C   UNL     1       8.464  -0.595  -2.209  1.00  0.00     0.127 C 
ENDROOT
BRANCH   1   2
ATOM      2  C   UNL     1       8.462  -1.877  -2.934  1.00  0.00     0.303 C 
ATOM      3  O   UNL     1       9.545  -2.491  -3.080  1.00  0.00    -0.252 OA
BRANCH   2   4
ATOM      4  O   UNL     1       7.297  -2.411  -3.450  1.00  0.00    -0.481 OA
ATOM      5  H   UNL     1       7.212  -2.776  -4.417  1.00  0.00     0.296 HD
ENDBRANCH   2   4
ENDBRANCH   1   2
BRANCH   1   6
ATOM      6  C   UNL     1       7.025  -0.090  -2.188  1.00  0.00     0.047 C 
BRANCH   6   7
ATOM      7  C   UNL     1       6.498   0.028  -0.817  1.00  0.00    -0.047 A 
ATOM      8  C   UNL     1       5.884   1.221  -0.454  1.00  0.00     0.004 A 
ATOM      9  C   UNL     1       6.570  -0.952   0.139  1.00  0.00     0.004 A 
ATOM     10  C   UNL     1       5.378   1.373   0.836  1.00  0.00     0.000 A 
ATOM     11  C   UNL     1       6.078  -0.832   1.424  1.00  0.00     0.000 A 
ATOM     12  C   UNL     1       5.475   0.365   1.757  1.00  0.00     0.000 A 
ENDBRANCH   6   7
ENDBRANCH   1   6
TORSDOF 4
ENDMDL
MODEL 2
REMARK VINA RESULT:      -7.2      0.125      1.728
REMARK SMILES O=C(O)CCc1ccccc1
REMARK SMILES IDX 4 1 2 2 1 3 3 4 5 6 6 7 7 8 11 9 8 10 10 11 9 12
REMARK H PARENT 3 5
REMARK Flexibility Score: inf
ROOT
ATOM      1  C   UNL     1       8.428  -0.662  -2.106  1.00  0.00     0.127 C 
ENDROOT
BRANCH   1   2
ATOM      2  C   UNL     1       8.401  -1.918  -2.875  1.00  0.00     0.303 C 
ATOM      3  O   UNL     1       7.294  -2.396  -3.216  1.00  0.00    -0.252 OA
BRANCH   2   4
ATOM      4  O   UNL     1       9.567  -2.572  -3.225  1.00  0.00    -0.481 OA
ATOM      5  H   UNL     1      10.172  -2.282  -4.016  1.00  0.00     0.296 HD
ENDBRANCH   2   4
ENDBRANCH   1   2
BRANCH   1   6
ATOM      6  C   UNL     1       7.021  -0.078  -2.153  1.00  0.00     0.047 C 
BRANCH   6   7
ATOM      7  C   UNL     1       6.460   0.133  -0.807  1.00  0.00    -0.047 A 
ATOM      8  C   UNL     1       6.594  -0.890   0.124  1.00  0.00     0.004 A 
ATOM      9  C   UNL     1       5.806   1.265  -0.397  1.00  0.00     0.004 A 
ATOM     10  C   UNL     1       6.072  -0.732   1.406  1.00  0.00     0.000 A 
ATOM     11  C   UNL     1       5.278   1.453   0.865  1.00  0.00     0.000 A 
ATOM     12  C   UNL     1       5.426   0.418   1.768  1.00  0.00     0.000 A 
ENDBRANCH   6   7
ENDBRANCH   1   6
TORSDOF 4
ENDMDL
MODEL 3
REMARK VINA RESULT:      -7.2      0.658      1.135
REMARK SMILES O=C(O)CCc1ccccc1
REMARK SMILES IDX 4 1 2 2 1 3 3 4 5 6 6 7 7 8 11 9 8 10 10 11 9 12
REMARK H PARENT 3 5
REMARK Flexibility Score: inf
ROOT
ATOM      1  C   UNL     1       8.227  -0.910  -1.885  1.00  0.00     0.127 C 
ENDROOT
BRANCH   1   2
ATOM      2  C   UNL     1       8.397  -1.995  -2.868  1.00  0.00     0.303 C 
ATOM      3  O   UNL     1       9.551  -2.428  -3.097  1.00  0.00    -0.252 OA
BRANCH   2   4
ATOM      4  O   UNL     1       7.315  -2.540  -3.533  1.00  0.00    -0.481 OA
ATOM      5  H   UNL     1       6.330  -2.373  -3.258  1.00  0.00     0.296 HD
ENDBRANCH   2   4
ENDBRANCH   1   2
BRANCH   1   6
ATOM      6  C   UNL     1       7.290  -1.430  -0.801  1.00  0.00     0.047 C 
BRANCH   6   7
ATOM      7  C   UNL     1       6.512  -0.348  -0.172  1.00  0.00    -0.047 A 
ATOM      8  C   UNL     1       6.207   0.769  -0.941  1.00  0.00     0.004 A 
ATOM      9  C   UNL     1       6.067  -0.352   1.125  1.00  0.00     0.004 A 
ATOM     10  C   UNL     1       5.479   1.816  -0.379  1.00  0.00     0.000 A 
ATOM     11  C   UNL     1       5.344   0.669   1.709  1.00  0.00     0.000 A 
ATOM     12  C   UNL     1       5.056   1.766   0.921  1.00  0.00     0.000 A 
ENDBRANCH   6   7
ENDBRANCH   1   6
TORSDOF 4
ENDMDL
MODEL 4
REMARK VINA RESULT:      -6.8      3.389      5.099
REMARK SMILES O=C(O)CCc1ccccc1
REMARK SMILES IDX 4 1 2 2 1 3 3 4 5 6 6 7 7 8 11 9 8 10 10 11 9 12
REMARK H PARENT 3 5
REMARK Flexibility Score: inf
ROOT
ATOM      1  C   UNL     1       4.997   1.788   0.760  1.00  0.00     0.127 C 
ENDROOT
BRANCH   1   2
ATOM      2  C   UNL     1       4.453   1.109   1.949  1.00  0.00     0.303 C 
ATOM      3  O   UNL     1       5.125   0.197   2.486  1.00  0.00    -0.252 OA
BRANCH   2   4
ATOM      4  O   UNL     1       3.226   1.459   2.480  1.00  0.00    -0.481 OA
ATOM      5  H   UNL     1       3.062   2.328   3.021  1.00  0.00     0.296 HD
ENDBRANCH   2   4
ENDBRANCH   1   2
BRANCH   1   6
ATOM      6  C   UNL     1       6.516   1.760   0.884  1.00  0.00     0.047 C 
BRANCH   6   7
ATOM      7  C   UNL     1       7.154   1.081  -0.258  1.00  0.00    -0.047 A 
ATOM      8  C   UNL     1       6.376   0.224  -1.027  1.00  0.00     0.004 A 
ATOM      9  C   UNL     1       8.468   1.224  -0.622  1.00  0.00     0.004 A 
ATOM     10  C   UNL     1       6.945  -0.441  -2.112  1.00  0.00     0.000 A 
ATOM     11  C   UNL     1       9.061   0.579  -1.690  1.00  0.00     0.000 A 
ATOM     12  C   UNL     1       8.263  -0.266  -2.435  1.00  0.00     0.000 A 
ENDBRANCH   6   7
ENDBRANCH   1   6
TORSDOF 4
ENDMDL
MODEL 5
REMARK VINA RESULT:      -6.5      2.062      2.372
REMARK SMILES O=C(O)CCc1ccccc1
REMARK SMILES IDX 4 1 2 2 1 3 3 4 5 6 6 7 7 8 11 9 8 10 10 11 9 12
REMARK H PARENT 3 5
REMARK Flexibility Score: inf
ROOT
ATOM      1  C   UNL     1       8.526   0.672  -1.680  1.00  0.00     0.127 C 
ENDROOT
BRANCH   1   2
ATOM      2  C   UNL     1       9.664   0.271  -0.833  1.00  0.00     0.303 C 
ATOM      3  O   UNL     1       9.464  -0.529   0.111  1.00  0.00    -0.252 OA
BRANCH   2   4
ATOM      4  O   UNL     1      10.937   0.757  -1.061  1.00  0.00    -0.481 OA
ATOM      5  H   UNL     1      11.743   0.568  -0.437  1.00  0.00     0.296 HD
ENDBRANCH   2   4
ENDBRANCH   1   2
BRANCH   1   6
ATOM      6  C   UNL     1       7.377  -0.279  -1.364  1.00  0.00     0.047 C 
BRANCH   6   7
ATOM      7  C   UNL     1       6.469   0.268  -0.340  1.00  0.00    -0.047 A 
ATOM      8  C   UNL     1       5.856   1.489  -0.594  1.00  0.00     0.004 A 
ATOM      9  C   UNL     1       6.182  -0.336   0.857  1.00  0.00     0.004 A 
ATOM     10  C   UNL     1       4.996   2.041   0.354  1.00  0.00     0.000 A 
ATOM     11  C   UNL     1       5.335   0.186   1.815  1.00  0.00     0.000 A 
ATOM     12  C   UNL     1       4.742   1.401   1.535  1.00  0.00     0.000 A 
ENDBRANCH   6   7
ENDBRANCH   1   6
TORSDOF 4
ENDMDL
