@<TRIPOS>MOLECULE
/home/cewinharhar/GITHUB/reincatalyze/data/processed/docking_pred/2023-Apr-25-1829_maxeplen10_maxtrainstep200_exh32_gamma099_lrac3e-4_lrcr1e-3/90bec1d2941dc3e2c4ee946d92d9c3e8ec331448_ligand_2.pdbqt
 12 12 0 0 0
SMALL
GASTEIGER

@<TRIPOS>ATOM
      1  C          8.5260    0.6720   -1.6800 C.3     1  UNL1        0.1270
      2  C          9.6640    0.2710   -0.8330 C.2     1  UNL1        0.3030
      3  O          9.4640   -0.5290    0.1110 O.2     1  UNL1       -0.2520
      4  O         10.9370    0.7570   -1.0610 O.3     1  UNL1       -0.4810
      5  H         11.7430    0.5680   -0.4370 H       1  UNL1        0.2960
      6  C          7.3770   -0.2790   -1.3640 C.3     1  UNL1        0.0470
      7  C          6.4690    0.2680   -0.3400 C.2     1  UNL1       -0.0470
      8  C          5.8560    1.4890   -0.5940 C.2     1  UNL1        0.0040
      9  C          6.1820   -0.3360    0.8570 C.2     1  UNL1        0.0040
     10  C          4.9960    2.0410    0.3540 C.2     1  UNL1        0.0000
     11  C          5.3350    0.1860    1.8150 C.2     1  UNL1        0.0000
     12  C          4.7420    1.4010    1.5350 C.2     1  UNL1        0.0000
@<TRIPOS>BOND
     1     1     6    1
     2     1     2    1
     3     6     7    1
     4     4     2    1
     5     4     5    1
     6     2     3    2
     7     8     7    2
     8     8    10    1
     9     7     9    1
    10    10    12    2
    11     9    11    2
    12    12    11    1
