@<TRIPOS>MOLECULE
/home/cewinharhar/GITHUB/reincatalyze/data/processed/docking_pred/2023-Apr-25-1829_maxeplen10_maxtrainstep200_exh32_gamma099_lrac3e-4_lrcr1e-3/91438d65c636cbfd2c8442c68b92b155f88758ee_ligand_2.pdbqt
 12 12 0 0 0
SMALL
GASTEIGER

@<TRIPOS>ATOM
      1  C          8.0480   -2.1510    0.8260 C.3     1  UNL1        0.1270
      2  C          8.7730   -3.3290    0.3180 C.2     1  UNL1        0.3030
      3  O          9.6000   -3.9000    1.0670 O.2     1  UNL1       -0.2520
      4  O          8.5570   -3.8110   -0.9590 O.3     1  UNL1       -0.4810
      5  H          8.0920   -3.2640   -1.7070 H       1  UNL1        0.2960
      6  C          7.4790   -1.4180   -0.3830 C.3     1  UNL1        0.0470
      7  C          6.6100   -0.2940    0.0060 C.2     1  UNL1       -0.0470
      8  C          6.0880   -0.2860    1.2940 C.2     1  UNL1        0.0040
      9  C          6.2660    0.7520   -0.8110 C.2     1  UNL1        0.0040
     10  C          5.2570    0.7570    1.6970 C.2     1  UNL1        0.0000
     11  C          5.4460    1.8000   -0.4410 C.2     1  UNL1        0.0000
     12  C          4.9420    1.7800    0.8450 C.2     1  UNL1        0.0000
@<TRIPOS>BOND
     1     5     4    1
     2     4     2    1
     3     9    11    1
     4     9     7    2
     5    11    12    2
     6     6     7    1
     7     6     1    1
     8     7     8    1
     9     2     1    1
    10     2     3    2
    11    12    10    1
    12     8    10    2
