@<TRIPOS>MOLECULE
/home/cewinharhar/GITHUB/reincatalyze/data/processed/docking_pred/2023-Apr-25-1829_maxeplen10_maxtrainstep200_exh32_gamma099_lrac3e-4_lrcr1e-3/91438d65c636cbfd2c8442c68b92b155f88758ee_ligand_2.pdbqt
 12 12 0 0 0
SMALL
GASTEIGER

@<TRIPOS>ATOM
      1  C          8.4230   -0.7240   -2.0420 C.3     1  UNL1        0.1270
      2  C          8.3970   -1.9380   -2.8760 C.2     1  UNL1        0.3030
      3  O          7.2890   -2.4000   -3.2380 O.2     1  UNL1       -0.2520
      4  O          9.5630   -2.5710   -3.2640 O.3     1  UNL1       -0.4810
      5  H          9.9080   -3.4490   -2.8360 H       1  UNL1        0.2960
      6  C          7.0470   -0.0770   -2.1490 C.3     1  UNL1        0.0470
      7  C          6.4520    0.1850   -0.8270 C.2     1  UNL1       -0.0470
      8  C          6.6060   -0.7780    0.1620 C.2     1  UNL1        0.0040
      9  C          5.7470    1.3130   -0.4930 C.2     1  UNL1        0.0040
     10  C          6.0520   -0.5690    1.4240 C.2     1  UNL1        0.0000
     11  C          5.1870    1.5490    0.7470 C.2     1  UNL1        0.0000
     12  C          5.3560    0.5730    1.7090 C.2     1  UNL1        0.0000
@<TRIPOS>BOND
     1     4     2    1
     2     4     5    1
     3     3     2    2
     4     2     1    1
     5     6     1    1
     6     6     7    1
     7     7     9    2
     8     7     8    1
     9     9    11    1
    10     8    10    2
    11    11    12    2
    12    10    12    1
