@<TRIPOS>MOLECULE
/home/cewinharhar/GITHUB/reincatalyze/data/processed/docking_pred/2023-Apr-25-1829_maxeplen10_maxtrainstep200_exh32_gamma099_lrac3e-4_lrcr1e-3/91438d65c636cbfd2c8442c68b92b155f88758ee_ligand_2.pdbqt
 12 12 0 0 0
SMALL
GASTEIGER

@<TRIPOS>ATOM
      1  C          4.9880    1.7770    0.7440 C.3     1  UNL1        0.1270
      2  C          4.4560    1.1040    1.9430 C.2     1  UNL1        0.3030
      3  O          5.1360    0.1990    2.4800 O.2     1  UNL1       -0.2520
      4  O          3.2320    1.4530    2.4800 O.3     1  UNL1       -0.4810
      5  H          3.1230    1.9450    3.3860 H       1  UNL1        0.2960
      6  C          6.5070    1.7710    0.8650 C.3     1  UNL1        0.0470
      7  C          7.1520    1.0830   -0.2680 C.2     1  UNL1       -0.0470
      8  C          6.3770    0.2260   -1.0390 C.2     1  UNL1        0.0040
      9  C          8.4700    1.2180   -0.6210 C.2     1  UNL1        0.0040
     10  C          6.9520   -0.4480   -2.1150 C.2     1  UNL1        0.0000
     11  C          9.0690    0.5650   -1.6800 C.2     1  UNL1        0.0000
     12  C          8.2730   -0.2810   -2.4280 C.2     1  UNL1        0.0000
@<TRIPOS>BOND
     1    12    10    2
     2    12    11    1
     3    10     8    1
     4    11     9    2
     5     8     7    2
     6     9     7    1
     7     7     6    1
     8     1     6    1
     9     1     2    1
    10     2     3    2
    11     2     4    1
    12     4     5    1
