@<TRIPOS>MOLECULE
/home/cewinharhar/GITHUB/reincatalyze/data/processed/docking_pred/2023-Apr-25-1829_maxeplen10_maxtrainstep200_exh32_gamma099_lrac3e-4_lrcr1e-3/91438d65c636cbfd2c8442c68b92b155f88758ee_ligand_2.pdbqt
 12 12 0 0 0
SMALL
GASTEIGER

@<TRIPOS>ATOM
      1  C          8.2440    0.2650   -2.2230 C.3     1  UNL1        0.1270
      2  C          9.3540    0.3500   -1.2590 C.2     1  UNL1        0.3030
      3  O          9.3890   -0.4590   -0.3020 O.2     1  UNL1       -0.2520
      4  O         10.3520    1.2980   -1.3910 O.3     1  UNL1       -0.4810
      5  H         10.2590    2.1500   -1.9740 H       1  UNL1        0.2960
      6  C          7.1380   -0.5510   -1.5630 C.3     1  UNL1        0.0470
      7  C          6.3520    0.2480   -0.6070 C.2     1  UNL1       -0.0470
      8  C          5.8500    1.4720   -1.0360 C.2     1  UNL1        0.0040
      9  C          6.0770   -0.1190    0.6850 C.2     1  UNL1        0.0040
     10  C          5.1070    2.2590   -0.1590 C.2     1  UNL1        0.0000
     11  C          5.3440    0.6390    1.5760 C.2     1  UNL1        0.0000
     12  C          4.8590    1.8500    1.1230 C.2     1  UNL1        0.0000
@<TRIPOS>BOND
     1     1     6    1
     2     1     2    1
     3     5     4    1
     4     6     7    1
     5     4     2    1
     6     2     3    2
     7     8     7    2
     8     8    10    1
     9     7     9    1
    10    10    12    2
    11     9    11    2
    12    12    11    1
