@<TRIPOS>MOLECULE
/home/cewinharhar/GITHUB/reincatalyze/data/processed/docking_pred/2023-Apr-25-1829_maxeplen10_maxtrainstep200_exh32_gamma099_lrac3e-4_lrcr1e-3/955e59fc22a1e87e2ab10a68f3a5c98643a236a4_ligand_2.pdbqt
 12 12 0 0 0
SMALL
GASTEIGER

@<TRIPOS>ATOM
      1  C          8.4530   -0.7520   -1.9810 C.3     1  UNL1        0.1270
      2  C          8.4090   -1.9400   -2.8510 C.2     1  UNL1        0.3030
      3  O          7.2940   -2.3790   -3.2200 O.2     1  UNL1       -0.2520
      4  O          9.5660   -2.5720   -3.2660 O.3     1  UNL1       -0.4810
      5  H         10.3080   -2.1040   -3.8180 H       1  UNL1        0.2960
      6  C          7.1020   -0.0550   -2.1050 C.3     1  UNL1        0.0470
      7  C          6.4790    0.1870   -0.7910 C.2     1  UNL1       -0.0470
      8  C          6.6010   -0.7970    0.1820 C.2     1  UNL1        0.0040
      9  C          5.7780    1.3160   -0.4520 C.2     1  UNL1        0.0040
     10  C          6.0200   -0.6070    1.4340 C.2     1  UNL1        0.0000
     11  C          5.1920    1.5330    0.7790 C.2     1  UNL1        0.0000
     12  C          5.3280    0.5370    1.7260 C.2     1  UNL1        0.0000
@<TRIPOS>BOND
     1     5     4    1
     2     4     2    1
     3     3     2    2
     4     2     1    1
     5     6     1    1
     6     6     7    1
     7     7     9    2
     8     7     8    1
     9     9    11    1
    10     8    10    2
    11    11    12    2
    12    10    12    1
