@<TRIPOS>MOLECULE
/home/cewinharhar/GITHUB/reincatalyze/data/processed/docking_pred/2023-Apr-25-1829_maxeplen10_maxtrainstep200_exh32_gamma099_lrac3e-4_lrcr1e-3/955e59fc22a1e87e2ab10a68f3a5c98643a236a4_ligand_2.pdbqt
 12 12 0 0 0
SMALL
GASTEIGER

@<TRIPOS>ATOM
      1  C          8.4430   -0.5760   -2.2290 C.3     1  UNL1        0.1270
      2  C          8.4630   -1.8790   -2.9180 C.2     1  UNL1        0.3030
      3  O          9.5550   -2.4830   -3.0380 O.2     1  UNL1       -0.2520
      4  O          7.3090   -2.4420   -3.4280 O.3     1  UNL1       -0.4810
      5  H          7.2520   -3.4170   -3.7750 H       1  UNL1        0.2960
      6  C          6.9890   -0.1210   -2.1740 C.3     1  UNL1        0.0470
      7  C          6.4910   -0.0170   -0.7910 C.2     1  UNL1       -0.0470
      8  C          5.8660    1.1640   -0.4090 C.2     1  UNL1        0.0040
      9  C          6.6030   -0.9980    0.1600 C.2     1  UNL1        0.0040
     10  C          5.3870    1.3030    0.8930 C.2     1  UNL1        0.0000
     11  C          6.1400   -0.8910    1.4560 C.2     1  UNL1        0.0000
     12  C          5.5230    0.2940    1.8070 C.2     1  UNL1        0.0000
@<TRIPOS>BOND
     1     5     4    1
     2     4     2    1
     3     3     2    2
     4     2     1    1
     5     1     6    1
     6     6     7    1
     7     7     8    2
     8     7     9    1
     9     8    10    1
    10     9    11    2
    11    10    12    2
    12    11    12    1
