@<TRIPOS>MOLECULE
/home/cewinharhar/GITHUB/reincatalyze/data/processed/docking_pred/2023-Apr-25-1829_maxeplen10_maxtrainstep200_exh32_gamma099_lrac3e-4_lrcr1e-3/955e59fc22a1e87e2ab10a68f3a5c98643a236a4_ligand_2.pdbqt
 12 12 0 0 0
SMALL
GASTEIGER

@<TRIPOS>ATOM
      1  C          8.0070   -2.1610    0.8080 C.3     1  UNL1        0.1270
      2  C          8.7410   -3.3330    0.3000 C.2     1  UNL1        0.3030
      3  O          9.5710   -3.8990    1.0490 O.2     1  UNL1       -0.2520
      4  O          8.5290   -3.8160   -0.9770 O.3     1  UNL1       -0.4810
      5  H          9.2930   -4.1290   -1.6060 H       1  UNL1        0.2960
      6  C          7.4290   -1.4350   -0.4020 C.3     1  UNL1        0.0470
      7  C          6.5800   -0.2950   -0.0130 C.2     1  UNL1       -0.0470
      8  C          6.0400   -0.2890    1.2670 C.2     1  UNL1        0.0040
      9  C          6.2740    0.7680   -0.8230 C.2     1  UNL1        0.0040
     10  C          5.2270    0.7680    1.6700 C.2     1  UNL1        0.0000
     11  C          5.4720    1.8300   -0.4530 C.2     1  UNL1        0.0000
     12  C          4.9480    1.8080    0.8250 C.2     1  UNL1        0.0000
@<TRIPOS>BOND
     1     5     4    1
     2     4     2    1
     3     9    11    1
     4     9     7    2
     5    11    12    2
     6     6     7    1
     7     6     1    1
     8     7     8    1
     9     2     1    1
    10     2     3    2
    11    12    10    1
    12     8    10    2
