MODEL 1
REMARK VINA RESULT:      -7.3      0.000      0.000
REMARK SMILES O=C(O)CCc1ccccc1
REMARK SMILES IDX 4 1 2 2 1 3 3 4 5 6 6 7 7 8 11 9 8 10 10 11 9 12
REMARK H PARENT 3 5
REMARK Flexibility Score: inf
ROOT
ATOM      1  C   UNL     1       8.443  -0.576  -2.229  1.00  0.00     0.127 C 
ENDROOT
BRANCH   1   2
ATOM      2  C   UNL     1       8.463  -1.879  -2.918  1.00  0.00     0.303 C 
ATOM      3  O   UNL     1       9.555  -2.483  -3.038  1.00  0.00    -0.252 OA
BRANCH   2   4
ATOM      4  O   UNL     1       7.309  -2.442  -3.428  1.00  0.00    -0.481 OA
ATOM      5  H   UNL     1       7.252  -3.417  -3.775  1.00  0.00     0.296 HD
ENDBRANCH   2   4
ENDBRANCH   1   2
BRANCH   1   6
ATOM      6  C   UNL     1       6.989  -0.121  -2.174  1.00  0.00     0.047 C 
BRANCH   6   7
ATOM      7  C   UNL     1       6.491  -0.017  -0.791  1.00  0.00    -0.047 A 
ATOM      8  C   UNL     1       5.866   1.164  -0.409  1.00  0.00     0.004 A 
ATOM      9  C   UNL     1       6.603  -0.998   0.160  1.00  0.00     0.004 A 
ATOM     10  C   UNL     1       5.387   1.303   0.893  1.00  0.00     0.000 A 
ATOM     11  C   UNL     1       6.140  -0.891   1.456  1.00  0.00     0.000 A 
ATOM     12  C   UNL     1       5.523   0.294   1.807  1.00  0.00     0.000 A 
ENDBRANCH   6   7
ENDBRANCH   1   6
TORSDOF 4
ENDMDL
MODEL 2
REMARK VINA RESULT:      -7.2      0.243      1.739
REMARK SMILES O=C(O)CCc1ccccc1
REMARK SMILES IDX 4 1 2 2 1 3 3 4 5 6 6 7 7 8 11 9 8 10 10 11 9 12
REMARK H PARENT 3 5
REMARK Flexibility Score: inf
ROOT
ATOM      1  C   UNL     1       8.453  -0.752  -1.981  1.00  0.00     0.127 C 
ENDROOT
BRANCH   1   2
ATOM      2  C   UNL     1       8.409  -1.940  -2.851  1.00  0.00     0.303 C 
ATOM      3  O   UNL     1       7.294  -2.379  -3.220  1.00  0.00    -0.252 OA
BRANCH   2   4
ATOM      4  O   UNL     1       9.566  -2.572  -3.266  1.00  0.00    -0.481 OA
ATOM      5  H   UNL     1      10.308  -2.104  -3.818  1.00  0.00     0.296 HD
ENDBRANCH   2   4
ENDBRANCH   1   2
BRANCH   1   6
ATOM      6  C   UNL     1       7.102  -0.055  -2.105  1.00  0.00     0.047 C 
BRANCH   6   7
ATOM      7  C   UNL     1       6.479   0.187  -0.791  1.00  0.00    -0.047 A 
ATOM      8  C   UNL     1       6.601  -0.797   0.182  1.00  0.00     0.004 A 
ATOM      9  C   UNL     1       5.778   1.316  -0.452  1.00  0.00     0.004 A 
ATOM     10  C   UNL     1       6.020  -0.607   1.434  1.00  0.00     0.000 A 
ATOM     11  C   UNL     1       5.192   1.533   0.779  1.00  0.00     0.000 A 
ATOM     12  C   UNL     1       5.328   0.537   1.726  1.00  0.00     0.000 A 
ENDBRANCH   6   7
ENDBRANCH   1   6
TORSDOF 4
ENDMDL
MODEL 3
REMARK VINA RESULT:      -6.7      3.387      5.084
REMARK SMILES O=C(O)CCc1ccccc1
REMARK SMILES IDX 4 1 2 2 1 3 3 4 5 6 6 7 7 8 11 9 8 10 10 11 9 12
REMARK H PARENT 3 5
REMARK Flexibility Score: inf
ROOT
ATOM      1  C   UNL     1       4.977   1.777   0.712  1.00  0.00     0.127 C 
ENDROOT
BRANCH   1   2
ATOM      2  C   UNL     1       4.464   1.115   1.924  1.00  0.00     0.303 C 
ATOM      3  O   UNL     1       5.159   0.224   2.467  1.00  0.00    -0.252 OA
BRANCH   2   4
ATOM      4  O   UNL     1       3.241   1.458   2.469  1.00  0.00    -0.481 OA
ATOM      5  H   UNL     1       3.053   1.476   3.488  1.00  0.00     0.296 HD
ENDBRANCH   2   4
ENDBRANCH   1   2
BRANCH   1   6
ATOM      6  C   UNL     1       6.497   1.806   0.826  1.00  0.00     0.047 C 
BRANCH   6   7
ATOM      7  C   UNL     1       7.151   1.097  -0.288  1.00  0.00    -0.047 A 
ATOM      8  C   UNL     1       6.375   0.250  -1.070  1.00  0.00     0.004 A 
ATOM      9  C   UNL     1       8.478   1.204  -0.615  1.00  0.00     0.004 A 
ATOM     10  C   UNL     1       6.959  -0.443  -2.128  1.00  0.00     0.000 A 
ATOM     11  C   UNL     1       9.086   0.531  -1.657  1.00  0.00     0.000 A 
ATOM     12  C   UNL     1       8.290  -0.304  -2.415  1.00  0.00     0.000 A 
ENDBRANCH   6   7
ENDBRANCH   1   6
TORSDOF 4
ENDMDL
MODEL 4
REMARK VINA RESULT:      -6.6      1.990      2.754
REMARK SMILES O=C(O)CCc1ccccc1
REMARK SMILES IDX 4 1 2 2 1 3 3 4 5 6 6 7 7 8 11 9 8 10 10 11 9 12
REMARK H PARENT 3 5
REMARK Flexibility Score: inf
ROOT
ATOM      1  C   UNL     1       8.007  -2.161   0.808  1.00  0.00     0.127 C 
ENDROOT
BRANCH   1   2
ATOM      2  C   UNL     1       8.741  -3.333   0.300  1.00  0.00     0.303 C 
ATOM      3  O   UNL     1       9.571  -3.899   1.049  1.00  0.00    -0.252 OA
BRANCH   2   4
ATOM      4  O   UNL     1       8.529  -3.816  -0.977  1.00  0.00    -0.481 OA
ATOM      5  H   UNL     1       9.293  -4.129  -1.606  1.00  0.00     0.296 HD
ENDBRANCH   2   4
ENDBRANCH   1   2
BRANCH   1   6
ATOM      6  C   UNL     1       7.429  -1.435  -0.402  1.00  0.00     0.047 C 
BRANCH   6   7
ATOM      7  C   UNL     1       6.580  -0.295  -0.013  1.00  0.00    -0.047 A 
ATOM      8  C   UNL     1       6.040  -0.289   1.267  1.00  0.00     0.004 A 
ATOM      9  C   UNL     1       6.274   0.768  -0.823  1.00  0.00     0.004 A 
ATOM     10  C   UNL     1       5.227   0.768   1.670  1.00  0.00     0.000 A 
ATOM     11  C   UNL     1       5.472   1.830  -0.453  1.00  0.00     0.000 A 
ATOM     12  C   UNL     1       4.948   1.808   0.825  1.00  0.00     0.000 A 
ENDBRANCH   6   7
ENDBRANCH   1   6
TORSDOF 4
ENDMDL
MODEL 5
REMARK VINA RESULT:      -6.6      3.333      5.094
REMARK SMILES O=C(O)CCc1ccccc1
REMARK SMILES IDX 4 1 2 2 1 3 3 4 5 6 6 7 7 8 11 9 8 10 10 11 9 12
REMARK H PARENT 3 5
REMARK Flexibility Score: inf
ROOT
ATOM      1  C   UNL     1       4.979   1.736   0.706  1.00  0.00     0.127 C 
ENDROOT
BRANCH   1   2
ATOM      2  C   UNL     1       4.554   1.045   1.936  1.00  0.00     0.303 C 
ATOM      3  O   UNL     1       3.439   1.327   2.434  1.00  0.00    -0.252 OA
BRANCH   2   4
ATOM      4  O   UNL     1       5.356   0.098   2.544  1.00  0.00    -0.481 OA
ATOM      5  H   UNL     1       6.359   0.249   2.757  1.00  0.00     0.296 HD
ENDBRANCH   2   4
ENDBRANCH   1   2
BRANCH   1   6
ATOM      6  C   UNL     1       6.502   1.801   0.732  1.00  0.00     0.047 C 
BRANCH   6   7
ATOM      7  C   UNL     1       7.110   1.010  -0.352  1.00  0.00    -0.047 A 
ATOM      8  C   UNL     1       8.455   1.216  -0.636  1.00  0.00     0.004 A 
ATOM      9  C   UNL     1       6.448   0.084  -1.116  1.00  0.00     0.004 A 
ATOM     10  C   UNL     1       9.065   0.492  -1.659  1.00  0.00     0.000 A 
ATOM     11  C   UNL     1       7.023  -0.649  -2.135  1.00  0.00     0.000 A 
ATOM     12  C   UNL     1       8.361  -0.422  -2.394  1.00  0.00     0.000 A 
ENDBRANCH   6   7
ENDBRANCH   1   6
TORSDOF 4
ENDMDL
