@<TRIPOS>MOLECULE
/home/cewinharhar/GITHUB/reincatalyze/data/processed/docking_pred/2023-Apr-25-1829_maxeplen10_maxtrainstep200_exh32_gamma099_lrac3e-4_lrcr1e-3/955e59fc22a1e87e2ab10a68f3a5c98643a236a4_ligand_2.pdbqt
 12 12 0 0 0
SMALL
GASTEIGER

@<TRIPOS>ATOM
      1  C          4.9790    1.7360    0.7060 C.3     1  UNL1        0.1270
      2  C          4.5540    1.0450    1.9360 C.2     1  UNL1        0.3030
      3  O          3.4390    1.3270    2.4340 O.2     1  UNL1       -0.2520
      4  O          5.3560    0.0980    2.5440 O.3     1  UNL1       -0.4810
      5  H          6.3590    0.2490    2.7570 H       1  UNL1        0.2960
      6  C          6.5020    1.8010    0.7320 C.3     1  UNL1        0.0470
      7  C          7.1100    1.0100   -0.3520 C.2     1  UNL1       -0.0470
      8  C          8.4550    1.2160   -0.6360 C.2     1  UNL1        0.0040
      9  C          6.4480    0.0840   -1.1160 C.2     1  UNL1        0.0040
     10  C          9.0650    0.4920   -1.6590 C.2     1  UNL1        0.0000
     11  C          7.0230   -0.6490   -2.1350 C.2     1  UNL1        0.0000
     12  C          8.3610   -0.4220   -2.3940 C.2     1  UNL1        0.0000
@<TRIPOS>BOND
     1    12    11    2
     2    12    10    1
     3    11     9    1
     4    10     8    2
     5     9     7    2
     6     8     7    1
     7     7     6    1
     8     1     6    1
     9     1     2    1
    10     2     3    2
    11     2     4    1
    12     4     5    1
