@<TRIPOS>MOLECULE
/home/cewinharhar/GITHUB/reincatalyze/data/processed/docking_pred/2023-Apr-25-1829_maxeplen10_maxtrainstep200_exh32_gamma099_lrac3e-4_lrcr1e-3/955e59fc22a1e87e2ab10a68f3a5c98643a236a4_ligand_2.pdbqt
 12 12 0 0 0
SMALL
GASTEIGER

@<TRIPOS>ATOM
      1  C          4.9770    1.7770    0.7120 C.3     1  UNL1        0.1270
      2  C          4.4640    1.1150    1.9240 C.2     1  UNL1        0.3030
      3  O          5.1590    0.2240    2.4670 O.2     1  UNL1       -0.2520
      4  O          3.2410    1.4580    2.4690 O.3     1  UNL1       -0.4810
      5  H          3.0530    1.4760    3.4880 H       1  UNL1        0.2960
      6  C          6.4970    1.8060    0.8260 C.3     1  UNL1        0.0470
      7  C          7.1510    1.0970   -0.2880 C.2     1  UNL1       -0.0470
      8  C          6.3750    0.2500   -1.0700 C.2     1  UNL1        0.0040
      9  C          8.4780    1.2040   -0.6150 C.2     1  UNL1        0.0040
     10  C          6.9590   -0.4430   -2.1280 C.2     1  UNL1        0.0000
     11  C          9.0860    0.5310   -1.6570 C.2     1  UNL1        0.0000
     12  C          8.2900   -0.3040   -2.4150 C.2     1  UNL1        0.0000
@<TRIPOS>BOND
     1    12    10    2
     2    12    11    1
     3    10     8    1
     4    11     9    2
     5     8     7    2
     6     9     7    1
     7     7     6    1
     8     1     6    1
     9     1     2    1
    10     2     3    2
    11     2     4    1
    12     4     5    1
