@<TRIPOS>MOLECULE
/home/cewinharhar/GITHUB/reincatalyze/data/processed/docking_pred/2023-Apr-25-1829_maxeplen10_maxtrainstep200_exh32_gamma099_lrac3e-4_lrcr1e-3/96aa1335557473cc7235c71144735280de1f686e_ligand_2.pdbqt
 12 12 0 0 0
SMALL
GASTEIGER

@<TRIPOS>ATOM
      1  C          8.4010   -0.4070   -2.3210 C.3     1  UNL1        0.1270
      2  C          8.3060   -1.7480   -2.9240 C.2     1  UNL1        0.3030
      3  O          7.1710   -2.2400   -3.1290 O.2     1  UNL1       -0.2520
      4  O          9.4360   -2.4660   -3.2650 O.3     1  UNL1       -0.4810
      5  H          9.9250   -2.3660   -4.1740 H       1  UNL1        0.2960
      6  C          8.3640   -0.5920   -0.8080 C.3     1  UNL1        0.0470
      7  C          7.2570    0.1540   -0.1840 C.2     1  UNL1       -0.0470
      8  C          6.4480    0.9310   -1.0040 C.2     1  UNL1        0.0040
      9  C          6.9620    0.1460    1.1550 C.2     1  UNL1        0.0040
     10  C          5.3940    1.6550   -0.4500 C.2     1  UNL1        0.0000
     11  C          5.9260    0.8520    1.7340 C.2     1  UNL1        0.0000
     12  C          5.1400    1.6160    0.8940 C.2     1  UNL1        0.0000
@<TRIPOS>BOND
     1     5     4    1
     2     4     2    1
     3     3     2    2
     4     2     1    1
     5     1     6    1
     6     8    10    1
     7     8     7    2
     8     6     7    1
     9    10    12    2
    10     7     9    1
    11    12    11    1
    12     9    11    2
