@<TRIPOS>MOLECULE
/home/cewinharhar/GITHUB/reincatalyze/data/processed/docking_pred/2023-Apr-25-1829_maxeplen10_maxtrainstep200_exh32_gamma099_lrac3e-4_lrcr1e-3/96aa1335557473cc7235c71144735280de1f686e_ligand_2.pdbqt
 12 12 0 0 0
SMALL
GASTEIGER

@<TRIPOS>ATOM
      1  C          8.5920   -0.5760   -2.3740 C.3     1  UNL1        0.1270
      2  C          8.5340   -1.9180   -2.9800 C.2     1  UNL1        0.3030
      3  O          9.5960   -2.5730   -3.1020 O.2     1  UNL1       -0.2520
      4  O          7.3400   -2.4620   -3.4120 O.3     1  UNL1       -0.4810
      5  H          6.8460   -3.2260   -2.9150 H       1  UNL1        0.2960
      6  C          7.1550   -0.0870   -2.2300 C.3     1  UNL1        0.0470
      7  C          6.8020    0.1970   -0.8280 C.2     1  UNL1       -0.0470
      8  C          5.8010    1.1280   -0.5810 C.2     1  UNL1        0.0040
      9  C          7.3930   -0.3850    0.2640 C.2     1  UNL1        0.0040
     10  C          5.4440    1.4290    0.7320 C.2     1  UNL1        0.0000
     11  C          7.0620   -0.1090    1.5760 C.2     1  UNL1        0.0000
     12  C          6.0630    0.8210    1.7890 C.2     1  UNL1        0.0000
@<TRIPOS>BOND
     1     4     2    1
     2     4     5    1
     3     3     2    2
     4     2     1    1
     5     1     6    1
     6     6     7    1
     7     7     8    2
     8     7     9    1
     9     8    10    1
    10     9    11    2
    11    10    12    2
    12    11    12    1
