@<TRIPOS>MOLECULE
/home/cewinharhar/GITHUB/reincatalyze/data/processed/docking_pred/2023-Apr-25-1829_maxeplen10_maxtrainstep200_exh32_gamma099_lrac3e-4_lrcr1e-3/96aa1335557473cc7235c71144735280de1f686e_ligand_2.pdbqt
 12 12 0 0 0
SMALL
GASTEIGER

@<TRIPOS>ATOM
      1  C          5.3820    3.0100    0.0430 C.3     1  UNL1        0.1270
      2  C          6.2440    3.9000    0.8400 C.2     1  UNL1        0.3030
      3  O          6.9290    4.7680    0.2490 O.2     1  UNL1       -0.2520
      4  O          6.3080    3.7970    2.2170 O.3     1  UNL1       -0.4810
      5  H          5.8120    3.0670    2.7600 H       1  UNL1        0.2960
      6  C          5.1180    1.7680    0.8860 C.3     1  UNL1        0.0470
      7  C          6.0730    0.6850    0.5940 C.2     1  UNL1       -0.0470
      8  C          6.8000    0.1510    1.6510 C.2     1  UNL1        0.0040
      9  C          6.3080    0.1600   -0.6510 C.2     1  UNL1        0.0040
     10  C          7.7180   -0.8710    1.4140 C.2     1  UNL1        0.0000
     11  C          7.2100   -0.8510   -0.9180 C.2     1  UNL1        0.0000
     12  C          7.9180   -1.3610    0.1530 C.2     1  UNL1        0.0000
@<TRIPOS>BOND
     1    11     9    1
     2    11    12    2
     3     9     7    2
     4     1     2    1
     5     1     6    1
     6    12    10    1
     7     3     2    2
     8     7     6    1
     9     7     8    1
    10     2     4    1
    11    10     8    2
    12     4     5    1
