@<TRIPOS>MOLECULE
/home/cewinharhar/GITHUB/reincatalyze/data/processed/docking_pred/2023-Apr-25-1829_maxeplen10_maxtrainstep200_exh32_gamma099_lrac3e-4_lrcr1e-3/96aa1335557473cc7235c71144735280de1f686e_ligand_2.pdbqt
 12 12 0 0 0
SMALL
GASTEIGER

@<TRIPOS>ATOM
      1  C          4.9820    1.7950    0.6830 C.3     1  UNL1        0.1270
      2  C          4.5620    1.1120    1.9200 C.2     1  UNL1        0.3030
      3  O          3.4360    1.3740    2.4030 O.2     1  UNL1       -0.2520
      4  O          5.3820    0.1960    2.5500 O.3     1  UNL1       -0.4810
      5  H          5.1690   -0.2240    3.4740 H       1  UNL1        0.2960
      6  C          6.5050    1.8590    0.7010 C.3     1  UNL1        0.0470
      7  C          7.1080    1.0360   -0.3620 C.2     1  UNL1       -0.0470
      8  C          8.4450    1.2480   -0.6740 C.2     1  UNL1        0.0040
      9  C          6.4470    0.0730   -1.0800 C.2     1  UNL1        0.0040
     10  C          9.0500    0.4940   -1.6780 C.2     1  UNL1        0.0000
     11  C          7.0170   -0.6910   -2.0790 C.2     1  UNL1        0.0000
     12  C          8.3480   -0.4570   -2.3670 C.2     1  UNL1        0.0000
@<TRIPOS>BOND
     1    12    11    2
     2    12    10    1
     3    11     9    1
     4    10     8    2
     5     9     7    2
     6     8     7    1
     7     7     6    1
     8     1     6    1
     9     1     2    1
    10     2     3    2
    11     2     4    1
    12     4     5    1
