MODEL 1
REMARK VINA RESULT:      -7.2      0.000      0.000
REMARK SMILES O=C(O)CCc1ccccc1
REMARK SMILES IDX 4 1 2 2 1 3 3 4 5 6 6 7 7 8 11 9 8 10 10 11 9 12
REMARK H PARENT 3 5
REMARK Flexibility Score: inf
ROOT
ATOM      1  C   UNL     1       8.592  -0.576  -2.374  1.00  0.00     0.127 C 
ENDROOT
BRANCH   1   2
ATOM      2  C   UNL     1       8.534  -1.918  -2.980  1.00  0.00     0.303 C 
ATOM      3  O   UNL     1       9.596  -2.573  -3.102  1.00  0.00    -0.252 OA
BRANCH   2   4
ATOM      4  O   UNL     1       7.340  -2.462  -3.412  1.00  0.00    -0.481 OA
ATOM      5  H   UNL     1       6.846  -3.226  -2.915  1.00  0.00     0.296 HD
ENDBRANCH   2   4
ENDBRANCH   1   2
BRANCH   1   6
ATOM      6  C   UNL     1       7.155  -0.087  -2.230  1.00  0.00     0.047 C 
BRANCH   6   7
ATOM      7  C   UNL     1       6.802   0.197  -0.828  1.00  0.00    -0.047 A 
ATOM      8  C   UNL     1       5.801   1.128  -0.581  1.00  0.00     0.004 A 
ATOM      9  C   UNL     1       7.393  -0.385   0.264  1.00  0.00     0.004 A 
ATOM     10  C   UNL     1       5.444   1.429   0.732  1.00  0.00     0.000 A 
ATOM     11  C   UNL     1       7.062  -0.109   1.576  1.00  0.00     0.000 A 
ATOM     12  C   UNL     1       6.063   0.821   1.789  1.00  0.00     0.000 A 
ENDBRANCH   6   7
ENDBRANCH   1   6
TORSDOF 4
ENDMDL
MODEL 2
REMARK VINA RESULT:      -7.2      0.063      1.430
REMARK SMILES O=C(O)CCc1ccccc1
REMARK SMILES IDX 4 1 2 2 1 3 3 4 5 6 6 7 7 8 11 9 8 10 10 11 9 12
REMARK H PARENT 3 5
REMARK Flexibility Score: inf
ROOT
ATOM      1  C   UNL     1       8.571  -0.591  -2.341  1.00  0.00     0.127 C 
ENDROOT
BRANCH   1   2
ATOM      2  C   UNL     1       8.531  -1.919  -2.980  1.00  0.00     0.303 C 
ATOM      3  O   UNL     1       9.597  -2.569  -3.092  1.00  0.00    -0.252 OA
BRANCH   2   4
ATOM      4  O   UNL     1       7.348  -2.455  -3.451  1.00  0.00    -0.481 OA
ATOM      5  H   UNL     1       7.149  -2.607  -4.457  1.00  0.00     0.296 HD
ENDBRANCH   2   4
ENDBRANCH   1   2
BRANCH   1   6
ATOM      6  C   UNL     1       7.134  -0.091  -2.257  1.00  0.00     0.047 C 
BRANCH   6   7
ATOM      7  C   UNL     1       6.746   0.260  -0.879  1.00  0.00    -0.047 A 
ATOM      8  C   UNL     1       7.400  -0.381   0.167  1.00  0.00     0.004 A 
ATOM      9  C   UNL     1       5.779   1.172  -0.543  1.00  0.00     0.004 A 
ATOM     10  C   UNL     1       7.058  -0.081   1.484  1.00  0.00     0.000 A 
ATOM     11  C   UNL     1       5.418   1.491   0.751  1.00  0.00     0.000 A 
ATOM     12  C   UNL     1       6.084   0.837   1.769  1.00  0.00     0.000 A 
ENDBRANCH   6   7
ENDBRANCH   1   6
TORSDOF 4
ENDMDL
MODEL 3
REMARK VINA RESULT:      -6.9      3.324      5.121
REMARK SMILES O=C(O)CCc1ccccc1
REMARK SMILES IDX 4 1 2 2 1 3 3 4 5 6 6 7 7 8 11 9 8 10 10 11 9 12
REMARK H PARENT 3 5
REMARK Flexibility Score: inf
ROOT
ATOM      1  C   UNL     1       4.982   1.795   0.683  1.00  0.00     0.127 C 
ENDROOT
BRANCH   1   2
ATOM      2  C   UNL     1       4.562   1.112   1.920  1.00  0.00     0.303 C 
ATOM      3  O   UNL     1       3.436   1.374   2.403  1.00  0.00    -0.252 OA
BRANCH   2   4
ATOM      4  O   UNL     1       5.382   0.196   2.550  1.00  0.00    -0.481 OA
ATOM      5  H   UNL     1       5.169  -0.224   3.474  1.00  0.00     0.296 HD
ENDBRANCH   2   4
ENDBRANCH   1   2
BRANCH   1   6
ATOM      6  C   UNL     1       6.505   1.859   0.701  1.00  0.00     0.047 C 
BRANCH   6   7
ATOM      7  C   UNL     1       7.108   1.036  -0.362  1.00  0.00    -0.047 A 
ATOM      8  C   UNL     1       8.445   1.248  -0.674  1.00  0.00     0.004 A 
ATOM      9  C   UNL     1       6.447   0.073  -1.080  1.00  0.00     0.004 A 
ATOM     10  C   UNL     1       9.050   0.494  -1.678  1.00  0.00     0.000 A 
ATOM     11  C   UNL     1       7.017  -0.691  -2.079  1.00  0.00     0.000 A 
ATOM     12  C   UNL     1       8.348  -0.457  -2.367  1.00  0.00     0.000 A 
ENDBRANCH   6   7
ENDBRANCH   1   6
TORSDOF 4
ENDMDL
MODEL 4
REMARK VINA RESULT:      -6.8      0.643      1.439
REMARK SMILES O=C(O)CCc1ccccc1
REMARK SMILES IDX 4 1 2 2 1 3 3 4 5 6 6 7 7 8 11 9 8 10 10 11 9 12
REMARK H PARENT 3 5
REMARK Flexibility Score: inf
ROOT
ATOM      1  C   UNL     1       8.401  -0.407  -2.321  1.00  0.00     0.127 C 
ENDROOT
BRANCH   1   2
ATOM      2  C   UNL     1       8.306  -1.748  -2.924  1.00  0.00     0.303 C 
ATOM      3  O   UNL     1       7.171  -2.240  -3.129  1.00  0.00    -0.252 OA
BRANCH   2   4
ATOM      4  O   UNL     1       9.436  -2.466  -3.265  1.00  0.00    -0.481 OA
ATOM      5  H   UNL     1       9.925  -2.366  -4.174  1.00  0.00     0.296 HD
ENDBRANCH   2   4
ENDBRANCH   1   2
BRANCH   1   6
ATOM      6  C   UNL     1       8.364  -0.592  -0.808  1.00  0.00     0.047 C 
BRANCH   6   7
ATOM      7  C   UNL     1       7.257   0.154  -0.184  1.00  0.00    -0.047 A 
ATOM      8  C   UNL     1       6.448   0.931  -1.004  1.00  0.00     0.004 A 
ATOM      9  C   UNL     1       6.962   0.146   1.155  1.00  0.00     0.004 A 
ATOM     10  C   UNL     1       5.394   1.655  -0.450  1.00  0.00     0.000 A 
ATOM     11  C   UNL     1       5.926   0.852   1.734  1.00  0.00     0.000 A 
ATOM     12  C   UNL     1       5.140   1.616   0.894  1.00  0.00     0.000 A 
ENDBRANCH   6   7
ENDBRANCH   1   6
TORSDOF 4
ENDMDL
MODEL 5
REMARK VINA RESULT:      -6.6      3.763      5.088
REMARK SMILES O=C(O)CCc1ccccc1
REMARK SMILES IDX 4 1 2 2 1 3 3 4 5 6 6 7 7 8 11 9 8 10 10 11 9 12
REMARK H PARENT 3 5
REMARK Flexibility Score: inf
ROOT
ATOM      1  C   UNL     1       5.382   3.010   0.043  1.00  0.00     0.127 C 
ENDROOT
BRANCH   1   2
ATOM      2  C   UNL     1       6.244   3.900   0.840  1.00  0.00     0.303 C 
ATOM      3  O   UNL     1       6.929   4.768   0.249  1.00  0.00    -0.252 OA
BRANCH   2   4
ATOM      4  O   UNL     1       6.308   3.797   2.217  1.00  0.00    -0.481 OA
ATOM      5  H   UNL     1       5.812   3.067   2.760  1.00  0.00     0.296 HD
ENDBRANCH   2   4
ENDBRANCH   1   2
BRANCH   1   6
ATOM      6  C   UNL     1       5.118   1.768   0.886  1.00  0.00     0.047 C 
BRANCH   6   7
ATOM      7  C   UNL     1       6.073   0.685   0.594  1.00  0.00    -0.047 A 
ATOM      8  C   UNL     1       6.800   0.151   1.651  1.00  0.00     0.004 A 
ATOM      9  C   UNL     1       6.308   0.160  -0.651  1.00  0.00     0.004 A 
ATOM     10  C   UNL     1       7.718  -0.871   1.414  1.00  0.00     0.000 A 
ATOM     11  C   UNL     1       7.210  -0.851  -0.918  1.00  0.00     0.000 A 
ATOM     12  C   UNL     1       7.918  -1.361   0.153  1.00  0.00     0.000 A 
ENDBRANCH   6   7
ENDBRANCH   1   6
TORSDOF 4
ENDMDL
