@<TRIPOS>MOLECULE
/home/cewinharhar/GITHUB/reincatalyze/data/processed/docking_pred/2023-Apr-25-1829_maxeplen10_maxtrainstep200_exh32_gamma099_lrac3e-4_lrcr1e-3/96aa1335557473cc7235c71144735280de1f686e_ligand_2.pdbqt
 12 12 0 0 0
SMALL
GASTEIGER

@<TRIPOS>ATOM
      1  C          8.5710   -0.5910   -2.3410 C.3     1  UNL1        0.1270
      2  C          8.5310   -1.9190   -2.9800 C.2     1  UNL1        0.3030
      3  O          9.5970   -2.5690   -3.0920 O.2     1  UNL1       -0.2520
      4  O          7.3480   -2.4550   -3.4510 O.3     1  UNL1       -0.4810
      5  H          7.1490   -2.6070   -4.4570 H       1  UNL1        0.2960
      6  C          7.1340   -0.0910   -2.2570 C.3     1  UNL1        0.0470
      7  C          6.7460    0.2600   -0.8790 C.2     1  UNL1       -0.0470
      8  C          7.4000   -0.3810    0.1670 C.2     1  UNL1        0.0040
      9  C          5.7790    1.1720   -0.5430 C.2     1  UNL1        0.0040
     10  C          7.0580   -0.0810    1.4840 C.2     1  UNL1        0.0000
     11  C          5.4180    1.4910    0.7510 C.2     1  UNL1        0.0000
     12  C          6.0840    0.8370    1.7690 C.2     1  UNL1        0.0000
@<TRIPOS>BOND
     1     5     4    1
     2     4     2    1
     3     3     2    2
     4     2     1    1
     5     1     6    1
     6     6     7    1
     7     7     9    2
     8     7     8    1
     9     9    11    1
    10     8    10    2
    11    11    12    2
    12    10    12    1
