@<TRIPOS>MOLECULE
/home/cewinharhar/GITHUB/reincatalyze/data/processed/docking_pred/2023-Apr-25-1829_maxeplen10_maxtrainstep200_exh32_gamma099_lrac3e-4_lrcr1e-3/97b80f67ae9ab19215981068b7c743dd8d1e9d0d_ligand_2.pdbqt
 12 12 0 0 0
SMALL
GASTEIGER

@<TRIPOS>ATOM
      1  C          4.9740    1.7790    0.7320 C.3     1  UNL1        0.1270
      2  C          4.4530    1.1080    1.9350 C.2     1  UNL1        0.3030
      3  O          5.1400    0.2070    2.4720 O.2     1  UNL1       -0.2520
      4  O          3.2300    1.4530    2.4790 O.3     1  UNL1       -0.4810
      5  H          2.3440    0.9660    2.2530 H       1  UNL1        0.2960
      6  C          6.4940    1.7950    0.8510 C.3     1  UNL1        0.0470
      7  C          7.1470    1.1020   -0.2740 C.2     1  UNL1       -0.0470
      8  C          6.3760    0.2450   -1.0490 C.2     1  UNL1        0.0040
      9  C          8.4680    1.2310   -0.6150 C.2     1  UNL1        0.0040
     10  C          6.9590   -0.4340   -2.1180 C.2     1  UNL1        0.0000
     11  C          9.0750    0.5730   -1.6670 C.2     1  UNL1        0.0000
     12  C          8.2830   -0.2720   -2.4190 C.2     1  UNL1        0.0000
@<TRIPOS>BOND
     1    12    10    2
     2    12    11    1
     3    10     8    1
     4    11     9    2
     5     8     7    2
     6     9     7    1
     7     7     6    1
     8     1     6    1
     9     1     2    1
    10     2     3    2
    11     2     4    1
    12     5     4    1
