@<TRIPOS>MOLECULE
/home/cewinharhar/GITHUB/reincatalyze/data/processed/docking_pred/2023-Apr-25-1829_maxeplen10_maxtrainstep200_exh32_gamma099_lrac3e-4_lrcr1e-3/97b80f67ae9ab19215981068b7c743dd8d1e9d0d_ligand_2.pdbqt
 12 12 0 0 0
SMALL
GASTEIGER

@<TRIPOS>ATOM
      1  C          5.5070    2.7440   -0.0450 C.3     1  UNL1        0.1270
      2  C          6.1950    3.7530    0.7810 C.2     1  UNL1        0.3030
      3  O          6.1100    3.6730    2.0290 O.2     1  UNL1       -0.2520
      4  O          6.9270    4.7750    0.2080 O.3     1  UNL1       -0.4810
      5  H          6.5040    5.5380   -0.3520 H       1  UNL1        0.2960
      6  C          4.9430    1.6950    0.9070 C.3     1  UNL1        0.0470
      7  C          5.7560    0.4660    0.9240 C.2     1  UNL1       -0.0470
      8  C          5.8030   -0.2700    2.1010 C.2     1  UNL1        0.0040
      9  C          6.4810   -0.0100   -0.1380 C.2     1  UNL1        0.0040
     10  C          6.5660   -1.4350    2.1580 C.2     1  UNL1        0.0000
     11  C          7.2460   -1.1600   -0.1130 C.2     1  UNL1        0.0000
     12  C          7.2740   -1.8700    1.0710 C.2     1  UNL1        0.0000
@<TRIPOS>BOND
     1     5     4    1
     2     9    11    1
     3     9     7    2
     4    11    12    2
     5     1     2    1
     6     1     6    1
     7     4     2    1
     8     2     3    2
     9     6     7    1
    10     7     8    1
    11    12    10    1
    12     8    10    2
