@<TRIPOS>MOLECULE
/home/cewinharhar/GITHUB/reincatalyze/data/processed/docking_pred/2023-Apr-25-1829_maxeplen10_maxtrainstep200_exh32_gamma099_lrac3e-4_lrcr1e-3/97b80f67ae9ab19215981068b7c743dd8d1e9d0d_ligand_2.pdbqt
 12 12 0 0 0
SMALL
GASTEIGER

@<TRIPOS>ATOM
      1  C          8.4660   -0.6160   -2.2030 C.3     1  UNL1        0.1270
      2  C          8.4750   -1.8990   -2.9270 C.2     1  UNL1        0.3030
      3  O          9.5620   -2.5070   -3.0670 O.2     1  UNL1       -0.2520
      4  O          7.3150   -2.4400   -3.4480 O.3     1  UNL1       -0.4810
      5  H          6.8310   -3.2600   -3.0380 H       1  UNL1        0.2960
      6  C          7.0220   -0.1270   -2.1760 C.3     1  UNL1        0.0470
      7  C          6.5000   -0.0120   -0.8020 C.2     1  UNL1       -0.0470
      8  C          5.8660    1.1700   -0.4410 C.2     1  UNL1        0.0040
      9  C          6.5960   -0.9860    0.1580 C.2     1  UNL1        0.0040
     10  C          5.3650    1.3190    0.8510 C.2     1  UNL1        0.0000
     11  C          6.1090   -0.8690    1.4450 C.2     1  UNL1        0.0000
     12  C          5.4850    0.3180    1.7750 C.2     1  UNL1        0.0000
@<TRIPOS>BOND
     1     4     5    1
     2     4     2    1
     3     3     2    2
     4     2     1    1
     5     1     6    1
     6     6     7    1
     7     7     8    2
     8     7     9    1
     9     8    10    1
    10     9    11    2
    11    10    12    2
    12    11    12    1
