MODEL 1
REMARK VINA RESULT:      -7.3      0.000      0.000
REMARK SMILES O=C(O)CCc1ccccc1
REMARK SMILES IDX 4 1 2 2 1 3 3 4 5 6 6 7 7 8 11 9 8 10 10 11 9 12
REMARK H PARENT 3 5
REMARK Flexibility Score: inf
ROOT
ATOM      1  C   UNL     1       8.466  -0.616  -2.203  1.00  0.00     0.127 C 
ENDROOT
BRANCH   1   2
ATOM      2  C   UNL     1       8.475  -1.899  -2.927  1.00  0.00     0.303 C 
ATOM      3  O   UNL     1       9.562  -2.507  -3.067  1.00  0.00    -0.252 OA
BRANCH   2   4
ATOM      4  O   UNL     1       7.315  -2.440  -3.448  1.00  0.00    -0.481 OA
ATOM      5  H   UNL     1       6.831  -3.260  -3.038  1.00  0.00     0.296 HD
ENDBRANCH   2   4
ENDBRANCH   1   2
BRANCH   1   6
ATOM      6  C   UNL     1       7.022  -0.127  -2.176  1.00  0.00     0.047 C 
BRANCH   6   7
ATOM      7  C   UNL     1       6.500  -0.012  -0.802  1.00  0.00    -0.047 A 
ATOM      8  C   UNL     1       5.866   1.170  -0.441  1.00  0.00     0.004 A 
ATOM      9  C   UNL     1       6.596  -0.986   0.158  1.00  0.00     0.004 A 
ATOM     10  C   UNL     1       5.365   1.319   0.851  1.00  0.00     0.000 A 
ATOM     11  C   UNL     1       6.109  -0.869   1.445  1.00  0.00     0.000 A 
ATOM     12  C   UNL     1       5.485   0.318   1.775  1.00  0.00     0.000 A 
ENDBRANCH   6   7
ENDBRANCH   1   6
TORSDOF 4
ENDMDL
MODEL 2
REMARK VINA RESULT:      -7.2      0.135      1.728
REMARK SMILES O=C(O)CCc1ccccc1
REMARK SMILES IDX 4 1 2 2 1 3 3 4 5 6 6 7 7 8 11 9 8 10 10 11 9 12
REMARK H PARENT 3 5
REMARK Flexibility Score: inf
ROOT
ATOM      1  C   UNL     1       8.435  -0.634  -2.141  1.00  0.00     0.127 C 
ENDROOT
BRANCH   1   2
ATOM      2  C   UNL     1       8.417  -1.902  -2.890  1.00  0.00     0.303 C 
ATOM      3  O   UNL     1       7.311  -2.403  -3.206  1.00  0.00    -0.252 OA
BRANCH   2   4
ATOM      4  O   UNL     1       9.587  -2.543  -3.250  1.00  0.00    -0.481 OA
ATOM      5  H   UNL     1      10.041  -3.274  -2.671  1.00  0.00     0.296 HD
ENDBRANCH   2   4
ENDBRANCH   1   2
BRANCH   1   6
ATOM      6  C   UNL     1       7.018  -0.073  -2.174  1.00  0.00     0.047 C 
BRANCH   6   7
ATOM      7  C   UNL     1       6.469   0.130  -0.822  1.00  0.00    -0.047 A 
ATOM      8  C   UNL     1       6.613  -0.896   0.104  1.00  0.00     0.004 A 
ATOM      9  C   UNL     1       5.815   1.260  -0.401  1.00  0.00     0.004 A 
ATOM     10  C   UNL     1       6.101  -0.744   1.391  1.00  0.00     0.000 A 
ATOM     11  C   UNL     1       5.298   1.441   0.866  1.00  0.00     0.000 A 
ATOM     12  C   UNL     1       5.456   0.403   1.764  1.00  0.00     0.000 A 
ENDBRANCH   6   7
ENDBRANCH   1   6
TORSDOF 4
ENDMDL
MODEL 3
REMARK VINA RESULT:      -6.8      3.398      5.102
REMARK SMILES O=C(O)CCc1ccccc1
REMARK SMILES IDX 4 1 2 2 1 3 3 4 5 6 6 7 7 8 11 9 8 10 10 11 9 12
REMARK H PARENT 3 5
REMARK Flexibility Score: inf
ROOT
ATOM      1  C   UNL     1       4.974   1.779   0.732  1.00  0.00     0.127 C 
ENDROOT
BRANCH   1   2
ATOM      2  C   UNL     1       4.453   1.108   1.935  1.00  0.00     0.303 C 
ATOM      3  O   UNL     1       5.140   0.207   2.472  1.00  0.00    -0.252 OA
BRANCH   2   4
ATOM      4  O   UNL     1       3.230   1.453   2.479  1.00  0.00    -0.481 OA
ATOM      5  H   UNL     1       2.344   0.966   2.253  1.00  0.00     0.296 HD
ENDBRANCH   2   4
ENDBRANCH   1   2
BRANCH   1   6
ATOM      6  C   UNL     1       6.494   1.795   0.851  1.00  0.00     0.047 C 
BRANCH   6   7
ATOM      7  C   UNL     1       7.147   1.102  -0.274  1.00  0.00    -0.047 A 
ATOM      8  C   UNL     1       6.376   0.245  -1.049  1.00  0.00     0.004 A 
ATOM      9  C   UNL     1       8.468   1.231  -0.615  1.00  0.00     0.004 A 
ATOM     10  C   UNL     1       6.959  -0.434  -2.118  1.00  0.00     0.000 A 
ATOM     11  C   UNL     1       9.075   0.573  -1.667  1.00  0.00     0.000 A 
ATOM     12  C   UNL     1       8.283  -0.272  -2.419  1.00  0.00     0.000 A 
ENDBRANCH   6   7
ENDBRANCH   1   6
TORSDOF 4
ENDMDL
MODEL 4
REMARK VINA RESULT:      -6.8      3.384      5.064
REMARK SMILES O=C(O)CCc1ccccc1
REMARK SMILES IDX 4 1 2 2 1 3 3 4 5 6 6 7 7 8 11 9 8 10 10 11 9 12
REMARK H PARENT 3 5
REMARK Flexibility Score: inf
ROOT
ATOM      1  C   UNL     1       5.006   1.779   0.710  1.00  0.00     0.127 C 
ENDROOT
BRANCH   1   2
ATOM      2  C   UNL     1       4.481   1.118   1.918  1.00  0.00     0.303 C 
ATOM      3  O   UNL     1       5.169   0.226   2.467  1.00  0.00    -0.252 OA
BRANCH   2   4
ATOM      4  O   UNL     1       3.254   1.463   2.452  1.00  0.00    -0.481 OA
ATOM      5  H   UNL     1       2.498   0.779   2.640  1.00  0.00     0.296 HD
ENDBRANCH   2   4
ENDBRANCH   1   2
BRANCH   1   6
ATOM      6  C   UNL     1       6.527   1.724   0.795  1.00  0.00     0.047 C 
BRANCH   6   7
ATOM      7  C   UNL     1       7.118   0.957  -0.316  1.00  0.00    -0.047 A 
ATOM      8  C   UNL     1       8.441   1.213  -0.656  1.00  0.00     0.004 A 
ATOM      9  C   UNL     1       6.458   0.007  -1.052  1.00  0.00     0.004 A 
ATOM     10  C   UNL     1       9.033   0.512  -1.705  1.00  0.00     0.000 A 
ATOM     11  C   UNL     1       7.017  -0.704  -2.096  1.00  0.00     0.000 A 
ATOM     12  C   UNL     1       8.333  -0.427  -2.412  1.00  0.00     0.000 A 
ENDBRANCH   6   7
ENDBRANCH   1   6
TORSDOF 4
ENDMDL
MODEL 5
REMARK VINA RESULT:      -6.6      3.831      4.961
REMARK SMILES O=C(O)CCc1ccccc1
REMARK SMILES IDX 4 1 2 2 1 3 3 4 5 6 6 7 7 8 11 9 8 10 10 11 9 12
REMARK H PARENT 3 5
REMARK Flexibility Score: inf
ROOT
ATOM      1  C   UNL     1       5.507   2.744  -0.045  1.00  0.00     0.127 C 
ENDROOT
BRANCH   1   2
ATOM      2  C   UNL     1       6.195   3.753   0.781  1.00  0.00     0.303 C 
ATOM      3  O   UNL     1       6.110   3.673   2.029  1.00  0.00    -0.252 OA
BRANCH   2   4
ATOM      4  O   UNL     1       6.927   4.775   0.208  1.00  0.00    -0.481 OA
ATOM      5  H   UNL     1       6.504   5.538  -0.352  1.00  0.00     0.296 HD
ENDBRANCH   2   4
ENDBRANCH   1   2
BRANCH   1   6
ATOM      6  C   UNL     1       4.943   1.695   0.907  1.00  0.00     0.047 C 
BRANCH   6   7
ATOM      7  C   UNL     1       5.756   0.466   0.924  1.00  0.00    -0.047 A 
ATOM      8  C   UNL     1       5.803  -0.270   2.101  1.00  0.00     0.004 A 
ATOM      9  C   UNL     1       6.481  -0.010  -0.138  1.00  0.00     0.004 A 
ATOM     10  C   UNL     1       6.566  -1.435   2.158  1.00  0.00     0.000 A 
ATOM     11  C   UNL     1       7.246  -1.160  -0.113  1.00  0.00     0.000 A 
ATOM     12  C   UNL     1       7.274  -1.870   1.071  1.00  0.00     0.000 A 
ENDBRANCH   6   7
ENDBRANCH   1   6
TORSDOF 4
ENDMDL
