@<TRIPOS>MOLECULE
/home/cewinharhar/GITHUB/reincatalyze/data/processed/docking_pred/2023-Apr-25-1829_maxeplen10_maxtrainstep200_exh32_gamma099_lrac3e-4_lrcr1e-3/97b80f67ae9ab19215981068b7c743dd8d1e9d0d_ligand_2.pdbqt
 12 12 0 0 0
SMALL
GASTEIGER

@<TRIPOS>ATOM
      1  C          5.0060    1.7790    0.7100 C.3     1  UNL1        0.1270
      2  C          4.4810    1.1180    1.9180 C.2     1  UNL1        0.3030
      3  O          5.1690    0.2260    2.4670 O.2     1  UNL1       -0.2520
      4  O          3.2540    1.4630    2.4520 O.3     1  UNL1       -0.4810
      5  H          2.4980    0.7790    2.6400 H       1  UNL1        0.2960
      6  C          6.5270    1.7240    0.7950 C.3     1  UNL1        0.0470
      7  C          7.1180    0.9570   -0.3160 C.2     1  UNL1       -0.0470
      8  C          8.4410    1.2130   -0.6560 C.2     1  UNL1        0.0040
      9  C          6.4580    0.0070   -1.0520 C.2     1  UNL1        0.0040
     10  C          9.0330    0.5120   -1.7050 C.2     1  UNL1        0.0000
     11  C          7.0170   -0.7040   -2.0960 C.2     1  UNL1        0.0000
     12  C          8.3330   -0.4270   -2.4120 C.2     1  UNL1        0.0000
@<TRIPOS>BOND
     1    12    11    2
     2    12    10    1
     3    11     9    1
     4    10     8    2
     5     9     7    2
     6     8     7    1
     7     7     6    1
     8     1     6    1
     9     1     2    1
    10     2     4    1
    11     2     3    2
    12     4     5    1
