@<TRIPOS>MOLECULE
/home/cewinharhar/GITHUB/reincatalyze/data/processed/docking_pred/2023-Apr-25-1829_maxeplen10_maxtrainstep200_exh32_gamma099_lrac3e-4_lrcr1e-3/97b80f67ae9ab19215981068b7c743dd8d1e9d0d_ligand_2.pdbqt
 12 12 0 0 0
SMALL
GASTEIGER

@<TRIPOS>ATOM
      1  C          8.4350   -0.6340   -2.1410 C.3     1  UNL1        0.1270
      2  C          8.4170   -1.9020   -2.8900 C.2     1  UNL1        0.3030
      3  O          7.3110   -2.4030   -3.2060 O.2     1  UNL1       -0.2520
      4  O          9.5870   -2.5430   -3.2500 O.3     1  UNL1       -0.4810
      5  H         10.0410   -3.2740   -2.6710 H       1  UNL1        0.2960
      6  C          7.0180   -0.0730   -2.1740 C.3     1  UNL1        0.0470
      7  C          6.4690    0.1300   -0.8220 C.2     1  UNL1       -0.0470
      8  C          6.6130   -0.8960    0.1040 C.2     1  UNL1        0.0040
      9  C          5.8150    1.2600   -0.4010 C.2     1  UNL1        0.0040
     10  C          6.1010   -0.7440    1.3910 C.2     1  UNL1        0.0000
     11  C          5.2980    1.4410    0.8660 C.2     1  UNL1        0.0000
     12  C          5.4560    0.4030    1.7640 C.2     1  UNL1        0.0000
@<TRIPOS>BOND
     1     4     2    1
     2     4     5    1
     3     3     2    2
     4     2     1    1
     5     6     1    1
     6     6     7    1
     7     7     9    2
     8     7     8    1
     9     9    11    1
    10     8    10    2
    11    11    12    2
    12    10    12    1
