@<TRIPOS>MOLECULE
/home/cewinharhar/GITHUB/reincatalyze/data/processed/docking_pred/2023-Apr-25-1829_maxeplen10_maxtrainstep200_exh32_gamma099_lrac3e-4_lrcr1e-3/98ce2146f260201d1ebb2f82702d5d512d51d1e1_ligand_2.pdbqt
 12 12 0 0 0
SMALL
GASTEIGER

@<TRIPOS>ATOM
      1  C          5.4970    2.7830   -0.0150 C.3     1  UNL1        0.1270
      2  C          6.2240    3.7650    0.8080 C.2     1  UNL1        0.3030
      3  O          6.1590    3.6740    2.0570 O.2     1  UNL1       -0.2520
      4  O          6.9720    4.7740    0.2320 O.3     1  UNL1       -0.4810
      5  H          7.7860    4.6030   -0.3860 H       1  UNL1        0.2960
      6  C          4.9460    1.7240    0.9330 C.3     1  UNL1        0.0470
      7  C          5.7500    0.4890    0.9150 C.2     1  UNL1       -0.0470
      8  C          5.7750   -0.2920    2.0640 C.2     1  UNL1        0.0040
      9  C          6.4870    0.0480   -0.1540 C.2     1  UNL1        0.0040
     10  C          6.5290   -1.4630    2.0880 C.2     1  UNL1        0.0000
     11  C          7.2430   -1.1070   -0.1620 C.2     1  UNL1        0.0000
     12  C          7.2500   -1.8620    0.9950 C.2     1  UNL1        0.0000
@<TRIPOS>BOND
     1     5     4    1
     2    11     9    1
     3    11    12    2
     4     9     7    2
     5     1     2    1
     6     1     6    1
     7     4     2    1
     8     2     3    2
     9     7     6    1
    10     7     8    1
    11    12    10    1
    12     8    10    2
