@<TRIPOS>MOLECULE
/home/cewinharhar/GITHUB/reincatalyze/data/processed/docking_pred/2023-Apr-25-1829_maxeplen10_maxtrainstep200_exh32_gamma099_lrac3e-4_lrcr1e-3/98ce2146f260201d1ebb2f82702d5d512d51d1e1_ligand_2.pdbqt
 12 12 0 0 0
SMALL
GASTEIGER

@<TRIPOS>ATOM
      1  C          8.3270   -0.9260   -1.8470 C.3     1  UNL1        0.1270
      2  C          8.4210   -2.0010   -2.8500 C.2     1  UNL1        0.3030
      3  O          9.5490   -2.4690   -3.1330 O.2     1  UNL1       -0.2520
      4  O          7.2950   -2.4990   -3.4780 O.3     1  UNL1       -0.4810
      5  H          7.1480   -3.5060   -3.6770 H       1  UNL1        0.2960
      6  C          7.4650   -1.4520   -0.7050 C.3     1  UNL1        0.0470
      7  C          6.6210   -0.3990   -0.1150 C.2     1  UNL1       -0.0470
      8  C          6.2920    0.6950   -0.9070 C.2     1  UNL1        0.0040
      9  C          6.1340   -0.4080    1.1660 C.2     1  UNL1        0.0040
     10  C          5.5000    1.7150   -0.3820 C.2     1  UNL1        0.0000
     11  C          5.3480    0.5860    1.7140 C.2     1  UNL1        0.0000
     12  C          5.0380    1.6610    0.9040 C.2     1  UNL1        0.0000
@<TRIPOS>BOND
     1     5     4    1
     2     4     2    1
     3     3     2    2
     4     2     1    1
     5     1     6    1
     6     8    10    1
     7     8     7    2
     8     6     7    1
     9    10    12    2
    10     7     9    1
    11    12    11    1
    12     9    11    2
