@<TRIPOS>MOLECULE
/home/cewinharhar/GITHUB/reincatalyze/data/processed/docking_pred/2023-Apr-25-1829_maxeplen10_maxtrainstep200_exh32_gamma099_lrac3e-4_lrcr1e-3/98ce2146f260201d1ebb2f82702d5d512d51d1e1_ligand_2.pdbqt
 12 12 0 0 0
SMALL
GASTEIGER

@<TRIPOS>ATOM
      1  C          8.4610   -0.6550   -2.1070 C.3     1  UNL1        0.1270
      2  C          8.4650   -1.9020   -2.8910 C.2     1  UNL1        0.3030
      3  O          9.5540   -2.4920   -3.0850 O.2     1  UNL1       -0.2520
      4  O          7.2980   -2.4290   -3.4100 O.3     1  UNL1       -0.4810
      5  H          6.4930   -1.8510   -3.7130 H       1  UNL1        0.2960
      6  C          7.0350   -0.1180   -2.1240 C.3     1  UNL1        0.0470
      7  C          6.4800    0.0310   -0.7670 C.2     1  UNL1       -0.0470
      8  C          5.8380    1.2210   -0.4500 C.2     1  UNL1        0.0040
      9  C          6.5530   -0.9190    0.2190 C.2     1  UNL1        0.0040
     10  C          5.3060    1.4020    0.8250 C.2     1  UNL1        0.0000
     11  C          6.0360   -0.7700    1.4910 C.2     1  UNL1        0.0000
     12  C          5.4040    0.4240    1.7770 C.2     1  UNL1        0.0000
@<TRIPOS>BOND
     1     5     4    1
     2     4     2    1
     3     3     2    2
     4     2     1    1
     5     6     1    1
     6     6     7    1
     7     7     8    2
     8     7     9    1
     9     8    10    1
    10     9    11    2
    11    10    12    2
    12    11    12    1
