@<TRIPOS>MOLECULE
/home/cewinharhar/GITHUB/reincatalyze/data/processed/docking_pred/2023-Apr-25-1829_maxeplen10_maxtrainstep200_exh32_gamma099_lrac3e-4_lrcr1e-3/98ce2146f260201d1ebb2f82702d5d512d51d1e1_ligand_2.pdbqt
 12 12 0 0 0
SMALL
GASTEIGER

@<TRIPOS>ATOM
      1  C          8.4540   -0.7340   -2.0370 C.3     1  UNL1        0.1270
      2  C          8.4100   -1.9510   -2.8670 C.2     1  UNL1        0.3030
      3  O          7.2950   -2.3990   -3.2250 O.2     1  UNL1       -0.2520
      4  O          9.5670   -2.5990   -3.2560 O.3     1  UNL1       -0.4810
      5  H          9.9010   -3.4810   -2.8260 H       1  UNL1        0.2960
      6  C          7.0860   -0.0700   -2.1430 C.3     1  UNL1        0.0470
      7  C          6.4810    0.1710   -0.8210 C.2     1  UNL1       -0.0470
      8  C          6.6370   -0.8050    0.1560 C.2     1  UNL1        0.0040
      9  C          5.7650    1.2880   -0.4770 C.2     1  UNL1        0.0040
     10  C          6.0730   -0.6170    1.4170 C.2     1  UNL1        0.0000
     11  C          5.1960    1.5040    0.7620 C.2     1  UNL1        0.0000
     12  C          5.3660    0.5160    1.7130 C.2     1  UNL1        0.0000
@<TRIPOS>BOND
     1     4     2    1
     2     4     5    1
     3     3     2    2
     4     2     1    1
     5     6     1    1
     6     6     7    1
     7     7     9    2
     8     7     8    1
     9     9    11    1
    10     8    10    2
    11    11    12    2
    12    10    12    1
