MODEL 1
REMARK VINA RESULT:      -7.3      0.000      0.000
REMARK SMILES O=C(O)CCc1ccccc1
REMARK SMILES IDX 4 1 2 2 1 3 3 4 5 6 6 7 7 8 11 9 8 10 10 11 9 12
REMARK H PARENT 3 5
REMARK Flexibility Score: inf
ROOT
ATOM      1  C   UNL     1       8.461  -0.655  -2.107  1.00  0.00     0.127 C 
ENDROOT
BRANCH   1   2
ATOM      2  C   UNL     1       8.465  -1.902  -2.891  1.00  0.00     0.303 C 
ATOM      3  O   UNL     1       9.554  -2.492  -3.085  1.00  0.00    -0.252 OA
BRANCH   2   4
ATOM      4  O   UNL     1       7.298  -2.429  -3.410  1.00  0.00    -0.481 OA
ATOM      5  H   UNL     1       6.493  -1.851  -3.713  1.00  0.00     0.296 HD
ENDBRANCH   2   4
ENDBRANCH   1   2
BRANCH   1   6
ATOM      6  C   UNL     1       7.035  -0.118  -2.124  1.00  0.00     0.047 C 
BRANCH   6   7
ATOM      7  C   UNL     1       6.480   0.031  -0.767  1.00  0.00    -0.047 A 
ATOM      8  C   UNL     1       5.838   1.221  -0.450  1.00  0.00     0.004 A 
ATOM      9  C   UNL     1       6.553  -0.919   0.219  1.00  0.00     0.004 A 
ATOM     10  C   UNL     1       5.306   1.402   0.825  1.00  0.00     0.000 A 
ATOM     11  C   UNL     1       6.036  -0.770   1.491  1.00  0.00     0.000 A 
ATOM     12  C   UNL     1       5.404   0.424   1.777  1.00  0.00     0.000 A 
ENDBRANCH   6   7
ENDBRANCH   1   6
TORSDOF 4
ENDMDL
MODEL 2
REMARK VINA RESULT:      -7.2      0.143      1.729
REMARK SMILES O=C(O)CCc1ccccc1
REMARK SMILES IDX 4 1 2 2 1 3 3 4 5 6 6 7 7 8 11 9 8 10 10 11 9 12
REMARK H PARENT 3 5
REMARK Flexibility Score: inf
ROOT
ATOM      1  C   UNL     1       8.454  -0.734  -2.037  1.00  0.00     0.127 C 
ENDROOT
BRANCH   1   2
ATOM      2  C   UNL     1       8.410  -1.951  -2.867  1.00  0.00     0.303 C 
ATOM      3  O   UNL     1       7.295  -2.399  -3.225  1.00  0.00    -0.252 OA
BRANCH   2   4
ATOM      4  O   UNL     1       9.567  -2.599  -3.256  1.00  0.00    -0.481 OA
ATOM      5  H   UNL     1       9.901  -3.481  -2.826  1.00  0.00     0.296 HD
ENDBRANCH   2   4
ENDBRANCH   1   2
BRANCH   1   6
ATOM      6  C   UNL     1       7.086  -0.070  -2.143  1.00  0.00     0.047 C 
BRANCH   6   7
ATOM      7  C   UNL     1       6.481   0.171  -0.821  1.00  0.00    -0.047 A 
ATOM      8  C   UNL     1       6.637  -0.805   0.156  1.00  0.00     0.004 A 
ATOM      9  C   UNL     1       5.765   1.288  -0.477  1.00  0.00     0.004 A 
ATOM     10  C   UNL     1       6.073  -0.617   1.417  1.00  0.00     0.000 A 
ATOM     11  C   UNL     1       5.196   1.504   0.762  1.00  0.00     0.000 A 
ATOM     12  C   UNL     1       5.366   0.516   1.713  1.00  0.00     0.000 A 
ENDBRANCH   6   7
ENDBRANCH   1   6
TORSDOF 4
ENDMDL
MODEL 3
REMARK VINA RESULT:      -7.2      0.622      1.095
REMARK SMILES O=C(O)CCc1ccccc1
REMARK SMILES IDX 4 1 2 2 1 3 3 4 5 6 6 7 7 8 11 9 8 10 10 11 9 12
REMARK H PARENT 3 5
REMARK Flexibility Score: inf
ROOT
ATOM      1  C   UNL     1       8.327  -0.926  -1.847  1.00  0.00     0.127 C 
ENDROOT
BRANCH   1   2
ATOM      2  C   UNL     1       8.421  -2.001  -2.850  1.00  0.00     0.303 C 
ATOM      3  O   UNL     1       9.549  -2.469  -3.133  1.00  0.00    -0.252 OA
BRANCH   2   4
ATOM      4  O   UNL     1       7.295  -2.499  -3.478  1.00  0.00    -0.481 OA
ATOM      5  H   UNL     1       7.148  -3.506  -3.677  1.00  0.00     0.296 HD
ENDBRANCH   2   4
ENDBRANCH   1   2
BRANCH   1   6
ATOM      6  C   UNL     1       7.465  -1.452  -0.705  1.00  0.00     0.047 C 
BRANCH   6   7
ATOM      7  C   UNL     1       6.621  -0.399  -0.115  1.00  0.00    -0.047 A 
ATOM      8  C   UNL     1       6.292   0.695  -0.907  1.00  0.00     0.004 A 
ATOM      9  C   UNL     1       6.134  -0.408   1.166  1.00  0.00     0.004 A 
ATOM     10  C   UNL     1       5.500   1.715  -0.382  1.00  0.00     0.000 A 
ATOM     11  C   UNL     1       5.348   0.586   1.714  1.00  0.00     0.000 A 
ATOM     12  C   UNL     1       5.038   1.661   0.904  1.00  0.00     0.000 A 
ENDBRANCH   6   7
ENDBRANCH   1   6
TORSDOF 4
ENDMDL
MODEL 4
REMARK VINA RESULT:      -6.8      3.367      5.063
REMARK SMILES O=C(O)CCc1ccccc1
REMARK SMILES IDX 4 1 2 2 1 3 3 4 5 6 6 7 7 8 11 9 8 10 10 11 9 12
REMARK H PARENT 3 5
REMARK Flexibility Score: inf
ROOT
ATOM      1  C   UNL     1       5.009   1.768   0.753  1.00  0.00     0.127 C 
ENDROOT
BRANCH   1   2
ATOM      2  C   UNL     1       4.461   1.098   1.945  1.00  0.00     0.303 C 
ATOM      3  O   UNL     1       5.128   0.185   2.487  1.00  0.00    -0.252 OA
BRANCH   2   4
ATOM      4  O   UNL     1       3.235   1.457   2.473  1.00  0.00    -0.481 OA
ATOM      5  H   UNL     1       3.123   1.948   3.379  1.00  0.00     0.296 HD
ENDBRANCH   2   4
ENDBRANCH   1   2
BRANCH   1   6
ATOM      6  C   UNL     1       6.528   1.672   0.843  1.00  0.00     0.047 C 
BRANCH   6   7
ATOM      7  C   UNL     1       7.105   0.921  -0.285  1.00  0.00    -0.047 A 
ATOM      8  C   UNL     1       8.406   1.220  -0.673  1.00  0.00     0.004 A 
ATOM      9  C   UNL     1       6.454  -0.055  -0.994  1.00  0.00     0.004 A 
ATOM     10  C   UNL     1       8.984   0.536  -1.740  1.00  0.00     0.000 A 
ATOM     11  C   UNL     1       6.999  -0.751  -2.055  1.00  0.00     0.000 A 
ATOM     12  C   UNL     1       8.293  -0.431  -2.417  1.00  0.00     0.000 A 
ENDBRANCH   6   7
ENDBRANCH   1   6
TORSDOF 4
ENDMDL
MODEL 5
REMARK VINA RESULT:      -6.6      3.808      4.975
REMARK SMILES O=C(O)CCc1ccccc1
REMARK SMILES IDX 4 1 2 2 1 3 3 4 5 6 6 7 7 8 11 9 8 10 10 11 9 12
REMARK H PARENT 3 5
REMARK Flexibility Score: inf
ROOT
ATOM      1  C   UNL     1       5.497   2.783  -0.015  1.00  0.00     0.127 C 
ENDROOT
BRANCH   1   2
ATOM      2  C   UNL     1       6.224   3.765   0.808  1.00  0.00     0.303 C 
ATOM      3  O   UNL     1       6.159   3.674   2.057  1.00  0.00    -0.252 OA
BRANCH   2   4
ATOM      4  O   UNL     1       6.972   4.774   0.232  1.00  0.00    -0.481 OA
ATOM      5  H   UNL     1       7.786   4.603  -0.386  1.00  0.00     0.296 HD
ENDBRANCH   2   4
ENDBRANCH   1   2
BRANCH   1   6
ATOM      6  C   UNL     1       4.946   1.724   0.933  1.00  0.00     0.047 C 
BRANCH   6   7
ATOM      7  C   UNL     1       5.750   0.489   0.915  1.00  0.00    -0.047 A 
ATOM      8  C   UNL     1       5.775  -0.292   2.064  1.00  0.00     0.004 A 
ATOM      9  C   UNL     1       6.487   0.048  -0.154  1.00  0.00     0.004 A 
ATOM     10  C   UNL     1       6.529  -1.463   2.088  1.00  0.00     0.000 A 
ATOM     11  C   UNL     1       7.243  -1.107  -0.162  1.00  0.00     0.000 A 
ATOM     12  C   UNL     1       7.250  -1.862   0.995  1.00  0.00     0.000 A 
ENDBRANCH   6   7
ENDBRANCH   1   6
TORSDOF 4
ENDMDL
