@<TRIPOS>MOLECULE
/home/cewinharhar/GITHUB/reincatalyze/data/processed/docking_pred/2023-Apr-25-1829_maxeplen10_maxtrainstep200_exh32_gamma099_lrac3e-4_lrcr1e-3/9c92d7019ca479aa147a964f0da84773825070a7_ligand_2.pdbqt
 12 12 0 0 0
SMALL
GASTEIGER

@<TRIPOS>ATOM
      1  C          8.1840    0.3450   -2.1100 C.3     1  UNL1        0.1270
      2  C          9.3530    0.4080   -1.2140 C.2     1  UNL1        0.3030
      3  O          9.4340   -0.4080   -0.2660 O.2     1  UNL1       -0.2520
      4  O         10.3530    1.3430   -1.4010 O.3     1  UNL1       -0.4810
      5  H         10.9630    1.3700   -2.2390 H       1  UNL1        0.2960
      6  C          7.1660   -0.5800   -1.4520 C.3     1  UNL1        0.0470
      7  C          6.3710    0.1120   -0.4220 C.2     1  UNL1       -0.0470
      8  C          5.8270    1.3510   -0.7380 C.2     1  UNL1        0.0040
      9  C          6.1270   -0.3720    0.8370 C.2     1  UNL1        0.0040
     10  C          5.0750    2.0390    0.2120 C.2     1  UNL1        0.0000
     11  C          5.3850    0.2850    1.8000 C.2     1  UNL1        0.0000
     12  C          4.8590    1.5150    1.4570 C.2     1  UNL1        0.0000
@<TRIPOS>BOND
     1     5     4    1
     2     1     6    1
     3     1     2    1
     4     6     7    1
     5     4     2    1
     6     2     3    2
     7     8     7    2
     8     8    10    1
     9     7     9    1
    10    10    12    2
    11     9    11    2
    12    12    11    1
