@<TRIPOS>MOLECULE
/home/cewinharhar/GITHUB/reincatalyze/data/processed/docking_pred/2023-Apr-25-1829_maxeplen10_maxtrainstep200_exh32_gamma099_lrac3e-4_lrcr1e-3/9c92d7019ca479aa147a964f0da84773825070a7_ligand_2.pdbqt
 12 12 0 0 0
SMALL
GASTEIGER

@<TRIPOS>ATOM
      1  C          4.9870    1.7880    0.7020 C.3     1  UNL1        0.1270
      2  C          4.4750    1.1240    1.9130 C.2     1  UNL1        0.3030
      3  O          5.1710    0.2340    2.4560 O.2     1  UNL1       -0.2520
      4  O          3.2510    1.4640    2.4570 O.3     1  UNL1       -0.4810
      5  H          2.5530    0.7670    2.7780 H       1  UNL1        0.2960
      6  C          6.5090    1.7570    0.7830 C.3     1  UNL1        0.0470
      7  C          7.1100    0.9860   -0.3200 C.2     1  UNL1       -0.0470
      8  C          8.4410    1.2280   -0.6380 C.2     1  UNL1        0.0040
      9  C          6.4520    0.0450   -1.0690 C.2     1  UNL1        0.0040
     10  C          9.0420    0.5240   -1.6790 C.2     1  UNL1        0.0000
     11  C          7.0200   -0.6690   -2.1050 C.2     1  UNL1        0.0000
     12  C          8.3430   -0.4070   -2.3990 C.2     1  UNL1        0.0000
@<TRIPOS>BOND
     1    12    11    2
     2    12    10    1
     3    11     9    1
     4    10     8    2
     5     9     7    2
     6     8     7    1
     7     7     6    1
     8     1     6    1
     9     1     2    1
    10     2     3    2
    11     2     4    1
    12     4     5    1
