MODEL 1
REMARK VINA RESULT:      -7.2      0.000      0.000
REMARK SMILES O=C(O)CCc1ccccc1
REMARK SMILES IDX 4 1 2 2 1 3 3 4 5 6 6 7 7 8 11 9 8 10 10 11 9 12
REMARK H PARENT 3 5
REMARK Flexibility Score: inf
ROOT
ATOM      1  C   UNL     1       8.441  -0.680  -2.084  1.00  0.00     0.127 C 
ENDROOT
BRANCH   1   2
ATOM      2  C   UNL     1       8.405  -1.916  -2.885  1.00  0.00     0.303 C 
ATOM      3  O   UNL     1       7.293  -2.386  -3.223  1.00  0.00    -0.252 OA
BRANCH   2   4
ATOM      4  O   UNL     1       9.566  -2.560  -3.267  1.00  0.00    -0.481 OA
ATOM      5  H   UNL     1      10.412  -2.064  -3.605  1.00  0.00     0.296 HD
ENDBRANCH   2   4
ENDBRANCH   1   2
BRANCH   1   6
ATOM      6  C   UNL     1       7.031  -0.099  -2.093  1.00  0.00     0.047 C 
BRANCH   6   7
ATOM      7  C   UNL     1       6.473   0.027  -0.735  1.00  0.00    -0.047 A 
ATOM      8  C   UNL     1       5.829   1.212  -0.400  1.00  0.00     0.004 A 
ATOM      9  C   UNL     1       6.544  -0.939   0.236  1.00  0.00     0.004 A 
ATOM     10  C   UNL     1       5.294   1.371   0.877  1.00  0.00     0.000 A 
ATOM     11  C   UNL     1       6.023  -0.812   1.508  1.00  0.00     0.000 A 
ATOM     12  C   UNL     1       5.390   0.377   1.813  1.00  0.00     0.000 A 
ENDBRANCH   6   7
ENDBRANCH   1   6
TORSDOF 4
ENDMDL
MODEL 2
REMARK VINA RESULT:      -7.2      0.104      1.432
REMARK SMILES O=C(O)CCc1ccccc1
REMARK SMILES IDX 4 1 2 2 1 3 3 4 5 6 6 7 7 8 11 9 8 10 10 11 9 12
REMARK H PARENT 3 5
REMARK Flexibility Score: inf
ROOT
ATOM      1  C   UNL     1       8.441  -0.710  -2.045  1.00  0.00     0.127 C 
ENDROOT
BRANCH   1   2
ATOM      2  C   UNL     1       8.405  -1.934  -2.866  1.00  0.00     0.303 C 
ATOM      3  O   UNL     1       7.293  -2.397  -3.212  1.00  0.00    -0.252 OA
BRANCH   2   4
ATOM      4  O   UNL     1       9.566  -2.572  -3.257  1.00  0.00    -0.481 OA
ATOM      5  H   UNL     1       9.870  -2.655  -4.245  1.00  0.00     0.296 HD
ENDBRANCH   2   4
ENDBRANCH   1   2
BRANCH   1   6
ATOM      6  C   UNL     1       7.059  -0.073  -2.131  1.00  0.00     0.047 C 
BRANCH   6   7
ATOM      7  C   UNL     1       6.469   0.157  -0.800  1.00  0.00    -0.047 A 
ATOM      8  C   UNL     1       6.598  -0.845   0.154  1.00  0.00     0.004 A 
ATOM      9  C   UNL     1       5.792   1.289  -0.426  1.00  0.00     0.004 A 
ATOM     10  C   UNL     1       6.048  -0.668   1.422  1.00  0.00     0.000 A 
ATOM     11  C   UNL     1       5.237   1.495   0.821  1.00  0.00     0.000 A 
ATOM     12  C   UNL     1       5.380   0.481   1.748  1.00  0.00     0.000 A 
ENDBRANCH   6   7
ENDBRANCH   1   6
TORSDOF 4
ENDMDL
MODEL 3
REMARK VINA RESULT:      -7.2      0.637      1.464
REMARK SMILES O=C(O)CCc1ccccc1
REMARK SMILES IDX 4 1 2 2 1 3 3 4 5 6 6 7 7 8 11 9 8 10 10 11 9 12
REMARK H PARENT 3 5
REMARK Flexibility Score: inf
ROOT
ATOM      1  C   UNL     1       8.193  -0.886  -1.946  1.00  0.00     0.127 C 
ENDROOT
BRANCH   1   2
ATOM      2  C   UNL     1       8.385  -2.011  -2.877  1.00  0.00     0.303 C 
ATOM      3  O   UNL     1       9.545  -2.444  -3.073  1.00  0.00    -0.252 OA
BRANCH   2   4
ATOM      4  O   UNL     1       7.317  -2.593  -3.533  1.00  0.00    -0.481 OA
ATOM      5  H   UNL     1       6.393  -2.135  -3.642  1.00  0.00     0.296 HD
ENDBRANCH   2   4
ENDBRANCH   1   2
BRANCH   1   6
ATOM      6  C   UNL     1       7.358  -1.406  -0.780  1.00  0.00     0.047 C 
BRANCH   6   7
ATOM      7  C   UNL     1       6.544  -0.345  -0.163  1.00  0.00    -0.047 A 
ATOM      8  C   UNL     1       6.220   0.764  -0.935  1.00  0.00     0.004 A 
ATOM      9  C   UNL     1       6.080  -0.362   1.128  1.00  0.00     0.004 A 
ATOM     10  C   UNL     1       5.456   1.791  -0.384  1.00  0.00     0.000 A 
ATOM     11  C   UNL     1       5.322   0.639   1.702  1.00  0.00     0.000 A 
ATOM     12  C   UNL     1       5.017   1.729   0.910  1.00  0.00     0.000 A 
ENDBRANCH   6   7
ENDBRANCH   1   6
TORSDOF 4
ENDMDL
MODEL 4
REMARK VINA RESULT:      -6.8      3.300      5.147
REMARK SMILES O=C(O)CCc1ccccc1
REMARK SMILES IDX 4 1 2 2 1 3 3 4 5 6 6 7 7 8 11 9 8 10 10 11 9 12
REMARK H PARENT 3 5
REMARK Flexibility Score: inf
ROOT
ATOM      1  C   UNL     1       4.987   1.788   0.702  1.00  0.00     0.127 C 
ENDROOT
BRANCH   1   2
ATOM      2  C   UNL     1       4.475   1.124   1.913  1.00  0.00     0.303 C 
ATOM      3  O   UNL     1       5.171   0.234   2.456  1.00  0.00    -0.252 OA
BRANCH   2   4
ATOM      4  O   UNL     1       3.251   1.464   2.457  1.00  0.00    -0.481 OA
ATOM      5  H   UNL     1       2.553   0.767   2.778  1.00  0.00     0.296 HD
ENDBRANCH   2   4
ENDBRANCH   1   2
BRANCH   1   6
ATOM      6  C   UNL     1       6.509   1.757   0.783  1.00  0.00     0.047 C 
BRANCH   6   7
ATOM      7  C   UNL     1       7.110   0.986  -0.320  1.00  0.00    -0.047 A 
ATOM      8  C   UNL     1       8.441   1.228  -0.638  1.00  0.00     0.004 A 
ATOM      9  C   UNL     1       6.452   0.045  -1.069  1.00  0.00     0.004 A 
ATOM     10  C   UNL     1       9.042   0.524  -1.679  1.00  0.00     0.000 A 
ATOM     11  C   UNL     1       7.020  -0.669  -2.105  1.00  0.00     0.000 A 
ATOM     12  C   UNL     1       8.343  -0.407  -2.399  1.00  0.00     0.000 A 
ENDBRANCH   6   7
ENDBRANCH   1   6
TORSDOF 4
ENDMDL
MODEL 5
REMARK VINA RESULT:      -6.6      1.916      2.193
REMARK SMILES O=C(O)CCc1ccccc1
REMARK SMILES IDX 4 1 2 2 1 3 3 4 5 6 6 7 7 8 11 9 8 10 10 11 9 12
REMARK H PARENT 3 5
REMARK Flexibility Score: inf
ROOT
ATOM      1  C   UNL     1       8.184   0.345  -2.110  1.00  0.00     0.127 C 
ENDROOT
BRANCH   1   2
ATOM      2  C   UNL     1       9.353   0.408  -1.214  1.00  0.00     0.303 C 
ATOM      3  O   UNL     1       9.434  -0.408  -0.266  1.00  0.00    -0.252 OA
BRANCH   2   4
ATOM      4  O   UNL     1      10.353   1.343  -1.401  1.00  0.00    -0.481 OA
ATOM      5  H   UNL     1      10.963   1.370  -2.239  1.00  0.00     0.296 HD
ENDBRANCH   2   4
ENDBRANCH   1   2
BRANCH   1   6
ATOM      6  C   UNL     1       7.166  -0.580  -1.452  1.00  0.00     0.047 C 
BRANCH   6   7
ATOM      7  C   UNL     1       6.371   0.112  -0.422  1.00  0.00    -0.047 A 
ATOM      8  C   UNL     1       5.827   1.351  -0.738  1.00  0.00     0.004 A 
ATOM      9  C   UNL     1       6.127  -0.372   0.837  1.00  0.00     0.004 A 
ATOM     10  C   UNL     1       5.075   2.039   0.212  1.00  0.00     0.000 A 
ATOM     11  C   UNL     1       5.385   0.285   1.800  1.00  0.00     0.000 A 
ATOM     12  C   UNL     1       4.859   1.515   1.457  1.00  0.00     0.000 A 
ENDBRANCH   6   7
ENDBRANCH   1   6
TORSDOF 4
ENDMDL
