@<TRIPOS>MOLECULE
/home/cewinharhar/GITHUB/reincatalyze/data/processed/docking_pred/2023-Apr-25-1829_maxeplen10_maxtrainstep200_exh32_gamma099_lrac3e-4_lrcr1e-3/9c92d7019ca479aa147a964f0da84773825070a7_ligand_2.pdbqt
 12 12 0 0 0
SMALL
GASTEIGER

@<TRIPOS>ATOM
      1  C          8.1930   -0.8860   -1.9460 C.3     1  UNL1        0.1270
      2  C          8.3850   -2.0110   -2.8770 C.2     1  UNL1        0.3030
      3  O          9.5450   -2.4440   -3.0730 O.2     1  UNL1       -0.2520
      4  O          7.3170   -2.5930   -3.5330 O.3     1  UNL1       -0.4810
      5  H          6.3930   -2.1350   -3.6420 H       1  UNL1        0.2960
      6  C          7.3580   -1.4060   -0.7800 C.3     1  UNL1        0.0470
      7  C          6.5440   -0.3450   -0.1630 C.2     1  UNL1       -0.0470
      8  C          6.2200    0.7640   -0.9350 C.2     1  UNL1        0.0040
      9  C          6.0800   -0.3620    1.1280 C.2     1  UNL1        0.0040
     10  C          5.4560    1.7910   -0.3840 C.2     1  UNL1        0.0000
     11  C          5.3220    0.6390    1.7020 C.2     1  UNL1        0.0000
     12  C          5.0170    1.7290    0.9100 C.2     1  UNL1        0.0000
@<TRIPOS>BOND
     1     5     4    1
     2     4     2    1
     3     3     2    2
     4     2     1    1
     5     1     6    1
     6     8    10    1
     7     8     7    2
     8     6     7    1
     9    10    12    2
    10     7     9    1
    11    12    11    1
    12     9    11    2
