@<TRIPOS>MOLECULE
/home/cewinharhar/GITHUB/reincatalyze/data/processed/docking_pred/2023-Apr-25-1829_maxeplen10_maxtrainstep200_exh32_gamma099_lrac3e-4_lrcr1e-3/9c92d7019ca479aa147a964f0da84773825070a7_ligand_2.pdbqt
 12 12 0 0 0
SMALL
GASTEIGER

@<TRIPOS>ATOM
      1  C          8.4410   -0.6800   -2.0840 C.3     1  UNL1        0.1270
      2  C          8.4050   -1.9160   -2.8850 C.2     1  UNL1        0.3030
      3  O          7.2930   -2.3860   -3.2230 O.2     1  UNL1       -0.2520
      4  O          9.5660   -2.5600   -3.2670 O.3     1  UNL1       -0.4810
      5  H         10.4120   -2.0640   -3.6050 H       1  UNL1        0.2960
      6  C          7.0310   -0.0990   -2.0930 C.3     1  UNL1        0.0470
      7  C          6.4730    0.0270   -0.7350 C.2     1  UNL1       -0.0470
      8  C          5.8290    1.2120   -0.4000 C.2     1  UNL1        0.0040
      9  C          6.5440   -0.9390    0.2360 C.2     1  UNL1        0.0040
     10  C          5.2940    1.3710    0.8770 C.2     1  UNL1        0.0000
     11  C          6.0230   -0.8120    1.5080 C.2     1  UNL1        0.0000
     12  C          5.3900    0.3770    1.8130 C.2     1  UNL1        0.0000
@<TRIPOS>BOND
     1     5     4    1
     2     4     2    1
     3     3     2    2
     4     2     1    1
     5     6     1    1
     6     6     7    1
     7     7     8    2
     8     7     9    1
     9     8    10    1
    10     9    11    2
    11    10    12    2
    12    11    12    1
