@<TRIPOS>MOLECULE
/home/cewinharhar/GITHUB/reincatalyze/data/processed/docking_pred/2023-Apr-25-1829_maxeplen10_maxtrainstep200_exh32_gamma099_lrac3e-4_lrcr1e-3/9cf679a9c5542d052f5b9fd38195e755841f8057_ligand_2.pdbqt
 12 12 0 0 0
SMALL
GASTEIGER

@<TRIPOS>ATOM
      1  C          8.5270    0.6970   -1.6510 C.3     1  UNL1        0.1270
      2  C          9.6730    0.2950   -0.8160 C.2     1  UNL1        0.3030
      3  O          9.4830   -0.5160    0.1220 O.2     1  UNL1       -0.2520
      4  O         10.9420    0.7900   -1.0480 O.3     1  UNL1       -0.4810
      5  H         11.3460    0.9090   -1.9950 H       1  UNL1        0.2960
      6  C          7.3850   -0.2630   -1.3370 C.3     1  UNL1        0.0470
      7  C          6.4700    0.2770   -0.3160 C.2     1  UNL1       -0.0470
      8  C          5.8620    1.5010   -0.5650 C.2     1  UNL1        0.0040
      9  C          6.1720   -0.3360    0.8740 C.2     1  UNL1        0.0040
     10  C          4.9950    2.0470    0.3800 C.2     1  UNL1        0.0000
     11  C          5.3180    0.1790    1.8290 C.2     1  UNL1        0.0000
     12  C          4.7290    1.3980    1.5540 C.2     1  UNL1        0.0000
@<TRIPOS>BOND
     1     5     4    1
     2     1     6    1
     3     1     2    1
     4     6     7    1
     5     4     2    1
     6     2     3    2
     7     8     7    2
     8     8    10    1
     9     7     9    1
    10    10    12    2
    11     9    11    2
    12    12    11    1
