MODEL 1
REMARK VINA RESULT:      -7.2      0.000      0.000
REMARK SMILES O=C(O)CCc1ccccc1
REMARK SMILES IDX 4 1 2 2 1 3 3 4 5 6 6 7 7 8 11 9 8 10 10 11 9 12
REMARK H PARENT 3 5
REMARK Flexibility Score: inf
ROOT
ATOM      1  C   UNL     1       8.448  -0.656  -2.113  1.00  0.00     0.127 C 
ENDROOT
BRANCH   1   2
ATOM      2  C   UNL     1       8.410  -1.915  -2.878  1.00  0.00     0.303 C 
ATOM      3  O   UNL     1       7.298  -2.392  -3.205  1.00  0.00    -0.252 OA
BRANCH   2   4
ATOM      4  O   UNL     1       9.570  -2.573  -3.239  1.00  0.00    -0.481 OA
ATOM      5  H   UNL     1       9.952  -2.574  -4.203  1.00  0.00     0.296 HD
ENDBRANCH   2   4
ENDBRANCH   1   2
BRANCH   1   6
ATOM      6  C   UNL     1       7.037  -0.078  -2.132  1.00  0.00     0.047 C 
BRANCH   6   7
ATOM      7  C   UNL     1       6.476   0.062  -0.776  1.00  0.00    -0.047 A 
ATOM      8  C   UNL     1       5.804   1.238  -0.466  1.00  0.00     0.004 A 
ATOM      9  C   UNL     1       6.571  -0.881   0.214  1.00  0.00     0.004 A 
ATOM     10  C   UNL     1       5.265   1.411   0.807  1.00  0.00     0.000 A 
ATOM     11  C   UNL     1       6.048  -0.739   1.484  1.00  0.00     0.000 A 
ATOM     12  C   UNL     1       5.386   0.441   1.764  1.00  0.00     0.000 A 
ENDBRANCH   6   7
ENDBRANCH   1   6
TORSDOF 4
ENDMDL
MODEL 2
REMARK VINA RESULT:      -7.2      0.063      1.430
REMARK SMILES O=C(O)CCc1ccccc1
REMARK SMILES IDX 4 1 2 2 1 3 3 4 5 6 6 7 7 8 11 9 8 10 10 11 9 12
REMARK H PARENT 3 5
REMARK Flexibility Score: inf
ROOT
ATOM      1  C   UNL     1       8.433  -0.685  -2.099  1.00  0.00     0.127 C 
ENDROOT
BRANCH   1   2
ATOM      2  C   UNL     1       8.409  -1.932  -2.884  1.00  0.00     0.303 C 
ATOM      3  O   UNL     1       7.302  -2.407  -3.232  1.00  0.00    -0.252 OA
BRANCH   2   4
ATOM      4  O   UNL     1       9.575  -2.581  -3.242  1.00  0.00    -0.481 OA
ATOM      5  H   UNL     1       9.863  -2.741  -4.225  1.00  0.00     0.296 HD
ENDBRANCH   2   4
ENDBRANCH   1   2
BRANCH   1   6
ATOM      6  C   UNL     1       7.033  -0.087  -2.165  1.00  0.00     0.047 C 
BRANCH   6   7
ATOM      7  C   UNL     1       6.464   0.144  -0.825  1.00  0.00    -0.047 A 
ATOM      8  C   UNL     1       6.612  -0.855   0.129  1.00  0.00     0.004 A 
ATOM      9  C   UNL     1       5.789   1.275  -0.443  1.00  0.00     0.004 A 
ATOM     10  C   UNL     1       6.083  -0.676   1.406  1.00  0.00     0.000 A 
ATOM     11  C   UNL     1       5.254   1.482   0.813  1.00  0.00     0.000 A 
ATOM     12  C   UNL     1       5.416   0.471   1.740  1.00  0.00     0.000 A 
ENDBRANCH   6   7
ENDBRANCH   1   6
TORSDOF 4
ENDMDL
MODEL 3
REMARK VINA RESULT:      -6.7      3.303      5.164
REMARK SMILES O=C(O)CCc1ccccc1
REMARK SMILES IDX 4 1 2 2 1 3 3 4 5 6 6 7 7 8 11 9 8 10 10 11 9 12
REMARK H PARENT 3 5
REMARK Flexibility Score: inf
ROOT
ATOM      1  C   UNL     1       4.974   1.764   0.716  1.00  0.00     0.127 C 
ENDROOT
BRANCH   1   2
ATOM      2  C   UNL     1       4.460   1.106   1.930  1.00  0.00     0.303 C 
ATOM      3  O   UNL     1       5.154   0.216   2.476  1.00  0.00    -0.252 OA
BRANCH   2   4
ATOM      4  O   UNL     1       3.238   1.452   2.474  1.00  0.00    -0.481 OA
ATOM      5  H   UNL     1       2.329   1.214   2.037  1.00  0.00     0.296 HD
ENDBRANCH   2   4
ENDBRANCH   1   2
BRANCH   1   6
ATOM      6  C   UNL     1       6.494   1.791   0.830  1.00  0.00     0.047 C 
BRANCH   6   7
ATOM      7  C   UNL     1       7.148   1.088  -0.288  1.00  0.00    -0.047 A 
ATOM      8  C   UNL     1       6.375   0.232  -1.064  1.00  0.00     0.004 A 
ATOM      9  C   UNL     1       8.472   1.209  -0.625  1.00  0.00     0.004 A 
ATOM     10  C   UNL     1       6.959  -0.455  -2.126  1.00  0.00     0.000 A 
ATOM     11  C   UNL     1       9.079   0.542  -1.670  1.00  0.00     0.000 A 
ATOM     12  C   UNL     1       8.286  -0.302  -2.423  1.00  0.00     0.000 A 
ENDBRANCH   6   7
ENDBRANCH   1   6
TORSDOF 4
ENDMDL
MODEL 4
REMARK VINA RESULT:      -6.5      2.084      2.760
REMARK SMILES O=C(O)CCc1ccccc1
REMARK SMILES IDX 4 1 2 2 1 3 3 4 5 6 6 7 7 8 11 9 8 10 10 11 9 12
REMARK H PARENT 3 5
REMARK Flexibility Score: inf
ROOT
ATOM      1  C   UNL     1       7.985  -2.307   0.817  1.00  0.00     0.127 C 
ENDROOT
BRANCH   1   2
ATOM      2  C   UNL     1       8.807  -3.415   0.299  1.00  0.00     0.303 C 
ATOM      3  O   UNL     1       8.706  -3.729  -0.911  1.00  0.00    -0.252 OA
BRANCH   2   4
ATOM      4  O   UNL     1       9.680  -4.107   1.116  1.00  0.00    -0.481 OA
ATOM      5  H   UNL     1       9.768  -3.937   2.135  1.00  0.00     0.296 HD
ENDBRANCH   2   4
ENDBRANCH   1   2
BRANCH   1   6
ATOM      6  C   UNL     1       7.518  -1.496  -0.386  1.00  0.00     0.047 C 
BRANCH   6   7
ATOM      7  C   UNL     1       6.647  -0.373   0.005  1.00  0.00    -0.047 A 
ATOM      8  C   UNL     1       6.130  -0.366   1.295  1.00  0.00     0.004 A 
ATOM      9  C   UNL     1       6.298   0.672  -0.811  1.00  0.00     0.004 A 
ATOM     10  C   UNL     1       5.297   0.676   1.700  1.00  0.00     0.000 A 
ATOM     11  C   UNL     1       5.477   1.717  -0.439  1.00  0.00     0.000 A 
ATOM     12  C   UNL     1       4.977   1.697   0.848  1.00  0.00     0.000 A 
ENDBRANCH   6   7
ENDBRANCH   1   6
TORSDOF 4
ENDMDL
MODEL 5
REMARK VINA RESULT:      -6.5      2.050      2.250
REMARK SMILES O=C(O)CCc1ccccc1
REMARK SMILES IDX 4 1 2 2 1 3 3 4 5 6 6 7 7 8 11 9 8 10 10 11 9 12
REMARK H PARENT 3 5
REMARK Flexibility Score: inf
ROOT
ATOM      1  C   UNL     1       8.527   0.697  -1.651  1.00  0.00     0.127 C 
ENDROOT
BRANCH   1   2
ATOM      2  C   UNL     1       9.673   0.295  -0.816  1.00  0.00     0.303 C 
ATOM      3  O   UNL     1       9.483  -0.516   0.122  1.00  0.00    -0.252 OA
BRANCH   2   4
ATOM      4  O   UNL     1      10.942   0.790  -1.048  1.00  0.00    -0.481 OA
ATOM      5  H   UNL     1      11.346   0.909  -1.995  1.00  0.00     0.296 HD
ENDBRANCH   2   4
ENDBRANCH   1   2
BRANCH   1   6
ATOM      6  C   UNL     1       7.385  -0.263  -1.337  1.00  0.00     0.047 C 
BRANCH   6   7
ATOM      7  C   UNL     1       6.470   0.277  -0.316  1.00  0.00    -0.047 A 
ATOM      8  C   UNL     1       5.862   1.501  -0.565  1.00  0.00     0.004 A 
ATOM      9  C   UNL     1       6.172  -0.336   0.874  1.00  0.00     0.004 A 
ATOM     10  C   UNL     1       4.995   2.047   0.380  1.00  0.00     0.000 A 
ATOM     11  C   UNL     1       5.318   0.179   1.829  1.00  0.00     0.000 A 
ATOM     12  C   UNL     1       4.729   1.398   1.554  1.00  0.00     0.000 A 
ENDBRANCH   6   7
ENDBRANCH   1   6
TORSDOF 4
ENDMDL
