@<TRIPOS>MOLECULE
/home/cewinharhar/GITHUB/reincatalyze/data/processed/docking_pred/2023-Apr-25-1829_maxeplen10_maxtrainstep200_exh32_gamma099_lrac3e-4_lrcr1e-3/9cf679a9c5542d052f5b9fd38195e755841f8057_ligand_2.pdbqt
 12 12 0 0 0
SMALL
GASTEIGER

@<TRIPOS>ATOM
      1  C          7.9850   -2.3070    0.8170 C.3     1  UNL1        0.1270
      2  C          8.8070   -3.4150    0.2990 C.2     1  UNL1        0.3030
      3  O          8.7060   -3.7290   -0.9110 O.2     1  UNL1       -0.2520
      4  O          9.6800   -4.1070    1.1160 O.3     1  UNL1       -0.4810
      5  H          9.7680   -3.9370    2.1350 H       1  UNL1        0.2960
      6  C          7.5180   -1.4960   -0.3860 C.3     1  UNL1        0.0470
      7  C          6.6470   -0.3730    0.0050 C.2     1  UNL1       -0.0470
      8  C          6.1300   -0.3660    1.2950 C.2     1  UNL1        0.0040
      9  C          6.2980    0.6720   -0.8110 C.2     1  UNL1        0.0040
     10  C          5.2970    0.6760    1.7000 C.2     1  UNL1        0.0000
     11  C          5.4770    1.7170   -0.4390 C.2     1  UNL1        0.0000
     12  C          4.9770    1.6970    0.8480 C.2     1  UNL1        0.0000
@<TRIPOS>BOND
     1     3     2    2
     2     9    11    1
     3     9     7    2
     4    11    12    2
     5     6     7    1
     6     6     1    1
     7     7     8    1
     8     2     1    1
     9     2     4    1
    10    12    10    1
    11     4     5    1
    12     8    10    2
