@<TRIPOS>MOLECULE
/home/cewinharhar/GITHUB/reincatalyze/data/processed/docking_pred/2023-Apr-25-1829_maxeplen10_maxtrainstep200_exh32_gamma099_lrac3e-4_lrcr1e-3/9cf679a9c5542d052f5b9fd38195e755841f8057_ligand_2.pdbqt
 12 12 0 0 0
SMALL
GASTEIGER

@<TRIPOS>ATOM
      1  C          8.4330   -0.6850   -2.0990 C.3     1  UNL1        0.1270
      2  C          8.4090   -1.9320   -2.8840 C.2     1  UNL1        0.3030
      3  O          7.3020   -2.4070   -3.2320 O.2     1  UNL1       -0.2520
      4  O          9.5750   -2.5810   -3.2420 O.3     1  UNL1       -0.4810
      5  H          9.8630   -2.7410   -4.2250 H       1  UNL1        0.2960
      6  C          7.0330   -0.0870   -2.1650 C.3     1  UNL1        0.0470
      7  C          6.4640    0.1440   -0.8250 C.2     1  UNL1       -0.0470
      8  C          6.6120   -0.8550    0.1290 C.2     1  UNL1        0.0040
      9  C          5.7890    1.2750   -0.4430 C.2     1  UNL1        0.0040
     10  C          6.0830   -0.6760    1.4060 C.2     1  UNL1        0.0000
     11  C          5.2540    1.4820    0.8130 C.2     1  UNL1        0.0000
     12  C          5.4160    0.4710    1.7400 C.2     1  UNL1        0.0000
@<TRIPOS>BOND
     1     5     4    1
     2     4     2    1
     3     3     2    2
     4     2     1    1
     5     6     1    1
     6     6     7    1
     7     7     9    2
     8     7     8    1
     9     9    11    1
    10     8    10    2
    11    11    12    2
    12    10    12    1
