@<TRIPOS>MOLECULE
/home/cewinharhar/GITHUB/reincatalyze/data/processed/docking_pred/2023-Apr-25-1829_maxeplen10_maxtrainstep200_exh32_gamma099_lrac3e-4_lrcr1e-3/9cf679a9c5542d052f5b9fd38195e755841f8057_ligand_2.pdbqt
 12 12 0 0 0
SMALL
GASTEIGER

@<TRIPOS>ATOM
      1  C          4.9740    1.7640    0.7160 C.3     1  UNL1        0.1270
      2  C          4.4600    1.1060    1.9300 C.2     1  UNL1        0.3030
      3  O          5.1540    0.2160    2.4760 O.2     1  UNL1       -0.2520
      4  O          3.2380    1.4520    2.4740 O.3     1  UNL1       -0.4810
      5  H          2.3290    1.2140    2.0370 H       1  UNL1        0.2960
      6  C          6.4940    1.7910    0.8300 C.3     1  UNL1        0.0470
      7  C          7.1480    1.0880   -0.2880 C.2     1  UNL1       -0.0470
      8  C          6.3750    0.2320   -1.0640 C.2     1  UNL1        0.0040
      9  C          8.4720    1.2090   -0.6250 C.2     1  UNL1        0.0040
     10  C          6.9590   -0.4550   -2.1260 C.2     1  UNL1        0.0000
     11  C          9.0790    0.5420   -1.6700 C.2     1  UNL1        0.0000
     12  C          8.2860   -0.3020   -2.4230 C.2     1  UNL1        0.0000
@<TRIPOS>BOND
     1    12    10    2
     2    12    11    1
     3    10     8    1
     4    11     9    2
     5     8     7    2
     6     9     7    1
     7     7     6    1
     8     1     6    1
     9     1     2    1
    10     2     4    1
    11     2     3    2
    12     5     4    1
