@<TRIPOS>MOLECULE
/home/cewinharhar/GITHUB/reincatalyze/data/processed/docking_pred/2023-Apr-25-1829_maxeplen10_maxtrainstep200_exh32_gamma099_lrac3e-4_lrcr1e-3/9cf679a9c5542d052f5b9fd38195e755841f8057_ligand_2.pdbqt
 12 12 0 0 0
SMALL
GASTEIGER

@<TRIPOS>ATOM
      1  C          8.4480   -0.6560   -2.1130 C.3     1  UNL1        0.1270
      2  C          8.4100   -1.9150   -2.8780 C.2     1  UNL1        0.3030
      3  O          7.2980   -2.3920   -3.2050 O.2     1  UNL1       -0.2520
      4  O          9.5700   -2.5730   -3.2390 O.3     1  UNL1       -0.4810
      5  H          9.9520   -2.5740   -4.2030 H       1  UNL1        0.2960
      6  C          7.0370   -0.0780   -2.1320 C.3     1  UNL1        0.0470
      7  C          6.4760    0.0620   -0.7760 C.2     1  UNL1       -0.0470
      8  C          5.8040    1.2380   -0.4660 C.2     1  UNL1        0.0040
      9  C          6.5710   -0.8810    0.2140 C.2     1  UNL1        0.0040
     10  C          5.2650    1.4110    0.8070 C.2     1  UNL1        0.0000
     11  C          6.0480   -0.7390    1.4840 C.2     1  UNL1        0.0000
     12  C          5.3860    0.4410    1.7640 C.2     1  UNL1        0.0000
@<TRIPOS>BOND
     1     5     4    1
     2     4     2    1
     3     3     2    2
     4     2     1    1
     5     6     1    1
     6     6     7    1
     7     7     8    2
     8     7     9    1
     9     8    10    1
    10     9    11    2
    11    10    12    2
    12    11    12    1
