@<TRIPOS>MOLECULE
/home/cewinharhar/GITHUB/reincatalyze/data/processed/docking_pred/2023-Apr-25-1829_maxeplen10_maxtrainstep200_exh32_gamma099_lrac3e-4_lrcr1e-3/a1c3c4a97d6bd518e48ffa0772dda1f342f6565e_ligand_2.pdbqt
 12 12 0 0 0
SMALL
GASTEIGER

@<TRIPOS>ATOM
      1  C          8.3470   -0.9970   -1.7420 C.3     1  UNL1        0.1270
      2  C          8.3720   -2.0190   -2.8030 C.2     1  UNL1        0.3030
      3  O          7.2860   -2.4230   -3.2800 O.2     1  UNL1       -0.2520
      4  O          9.5630   -2.5330   -3.2790 O.3     1  UNL1       -0.4810
      5  H          9.8920   -2.4090   -4.2550 H       1  UNL1        0.2960
      6  C          7.3240   -1.4510   -0.7070 C.3     1  UNL1        0.0470
      7  C          6.5350   -0.3270   -0.1740 C.2     1  UNL1       -0.0470
      8  C          6.0900   -0.4050    1.1400 C.2     1  UNL1        0.0040
      9  C          6.1960    0.7990   -0.8810 C.2     1  UNL1        0.0040
     10  C          5.3360    0.6360    1.6770 C.2     1  UNL1        0.0000
     11  C          5.4510    1.8460   -0.3770 C.2     1  UNL1        0.0000
     12  C          5.0220    1.7400    0.9320 C.2     1  UNL1        0.0000
@<TRIPOS>BOND
     1     5     4    1
     2     3     2    2
     3     4     2    1
     4     2     1    1
     5     1     6    1
     6     9    11    1
     7     9     7    2
     8     6     7    1
     9    11    12    2
    10     7     8    1
    11    12    10    1
    12     8    10    2
