MODEL 1
REMARK VINA RESULT:      -7.3      0.000      0.000
REMARK SMILES O=C(O)CCc1ccccc1
REMARK SMILES IDX 4 1 2 2 1 3 3 4 5 6 6 7 7 8 11 9 8 10 10 11 9 12
REMARK H PARENT 3 5
REMARK Flexibility Score: inf
ROOT
ATOM      1  C   UNL     1       8.444  -0.615  -2.157  1.00  0.00     0.127 C 
ENDROOT
BRANCH   1   2
ATOM      2  C   UNL     1       8.471  -1.879  -2.915  1.00  0.00     0.303 C 
ATOM      3  O   UNL     1       9.569  -2.457  -3.089  1.00  0.00    -0.252 OA
BRANCH   2   4
ATOM      4  O   UNL     1       7.315  -2.433  -3.431  1.00  0.00    -0.481 OA
ATOM      5  H   UNL     1       7.109  -2.487  -4.446  1.00  0.00     0.296 HD
ENDBRANCH   2   4
ENDBRANCH   1   2
BRANCH   1   6
ATOM      6  C   UNL     1       7.002  -0.120  -2.161  1.00  0.00     0.047 C 
BRANCH   6   7
ATOM      7  C   UNL     1       6.475   0.067  -0.798  1.00  0.00    -0.047 A 
ATOM      8  C   UNL     1       6.616  -0.979   0.107  1.00  0.00     0.004 A 
ATOM      9  C   UNL     1       5.847   1.199  -0.348  1.00  0.00     0.004 A 
ATOM     10  C   UNL     1       6.124  -0.842   1.404  1.00  0.00     0.000 A 
ATOM     11  C   UNL     1       5.350   1.365   0.930  1.00  0.00     0.000 A 
ATOM     12  C   UNL     1       5.503   0.308   1.806  1.00  0.00     0.000 A 
ENDBRANCH   6   7
ENDBRANCH   1   6
TORSDOF 4
ENDMDL
MODEL 2
REMARK VINA RESULT:      -7.2      0.112      1.727
REMARK SMILES O=C(O)CCc1ccccc1
REMARK SMILES IDX 4 1 2 2 1 3 3 4 5 6 6 7 7 8 11 9 8 10 10 11 9 12
REMARK H PARENT 3 5
REMARK Flexibility Score: inf
ROOT
ATOM      1  C   UNL     1       8.428  -0.640  -2.132  1.00  0.00     0.127 C 
ENDROOT
BRANCH   1   2
ATOM      2  C   UNL     1       8.399  -1.902  -2.892  1.00  0.00     0.303 C 
ATOM      3  O   UNL     1       7.290  -2.386  -3.219  1.00  0.00    -0.252 OA
BRANCH   2   4
ATOM      4  O   UNL     1       9.564  -2.554  -3.249  1.00  0.00    -0.481 OA
ATOM      5  H   UNL     1       9.971  -2.520  -4.202  1.00  0.00     0.296 HD
ENDBRANCH   2   4
ENDBRANCH   1   2
BRANCH   1   6
ATOM      6  C   UNL     1       7.003  -0.098  -2.108  1.00  0.00     0.047 C 
BRANCH   6   7
ATOM      7  C   UNL     1       6.472   0.007  -0.738  1.00  0.00    -0.047 A 
ATOM      8  C   UNL     1       5.839   1.188  -0.370  1.00  0.00     0.004 A 
ATOM      9  C   UNL     1       6.557  -0.976   0.215  1.00  0.00     0.004 A 
ATOM     10  C   UNL     1       5.329   1.328   0.919  1.00  0.00     0.000 A 
ATOM     11  C   UNL     1       6.061  -0.868   1.499  1.00  0.00     0.000 A 
ATOM     12  C   UNL     1       5.439   0.318   1.836  1.00  0.00     0.000 A 
ENDBRANCH   6   7
ENDBRANCH   1   6
TORSDOF 4
ENDMDL
MODEL 3
REMARK VINA RESULT:      -7.2      0.614      1.595
REMARK SMILES O=C(O)CCc1ccccc1
REMARK SMILES IDX 4 1 2 2 1 3 3 4 5 6 6 7 7 8 11 9 8 10 10 11 9 12
REMARK H PARENT 3 5
REMARK Flexibility Score: inf
ROOT
ATOM      1  C   UNL     1       8.247  -0.896  -1.927  1.00  0.00     0.127 C 
ENDROOT
BRANCH   1   2
ATOM      2  C   UNL     1       8.369  -2.017  -2.875  1.00  0.00     0.303 C 
ATOM      3  O   UNL     1       9.502  -2.509  -3.089  1.00  0.00    -0.252 OA
BRANCH   2   4
ATOM      4  O   UNL     1       7.264  -2.533  -3.525  1.00  0.00    -0.481 OA
ATOM      5  H   UNL     1       7.015  -2.300  -4.504  1.00  0.00     0.296 HD
ENDBRANCH   2   4
ENDBRANCH   1   2
BRANCH   1   6
ATOM      6  C   UNL     1       7.500  -1.420  -0.706  1.00  0.00     0.047 C 
BRANCH   6   7
ATOM      7  C   UNL     1       6.635  -0.393  -0.101  1.00  0.00    -0.047 A 
ATOM      8  C   UNL     1       6.302   0.717  -0.868  1.00  0.00     0.004 A 
ATOM      9  C   UNL     1       6.131  -0.441   1.174  1.00  0.00     0.004 A 
ATOM     10  C   UNL     1       5.490   1.713  -0.328  1.00  0.00     0.000 A 
ATOM     11  C   UNL     1       5.325   0.528   1.737  1.00  0.00     0.000 A 
ATOM     12  C   UNL     1       5.012   1.620   0.950  1.00  0.00     0.000 A 
ENDBRANCH   6   7
ENDBRANCH   1   6
TORSDOF 4
ENDMDL
MODEL 4
REMARK VINA RESULT:      -7.1      0.705      1.519
REMARK SMILES O=C(O)CCc1ccccc1
REMARK SMILES IDX 4 1 2 2 1 3 3 4 5 6 6 7 7 8 11 9 8 10 10 11 9 12
REMARK H PARENT 3 5
REMARK Flexibility Score: inf
ROOT
ATOM      1  C   UNL     1       8.347  -0.997  -1.742  1.00  0.00     0.127 C 
ENDROOT
BRANCH   1   2
ATOM      2  C   UNL     1       8.372  -2.019  -2.803  1.00  0.00     0.303 C 
ATOM      3  O   UNL     1       7.286  -2.423  -3.280  1.00  0.00    -0.252 OA
BRANCH   2   4
ATOM      4  O   UNL     1       9.563  -2.533  -3.279  1.00  0.00    -0.481 OA
ATOM      5  H   UNL     1       9.892  -2.409  -4.255  1.00  0.00     0.296 HD
ENDBRANCH   2   4
ENDBRANCH   1   2
BRANCH   1   6
ATOM      6  C   UNL     1       7.324  -1.451  -0.707  1.00  0.00     0.047 C 
BRANCH   6   7
ATOM      7  C   UNL     1       6.535  -0.327  -0.174  1.00  0.00    -0.047 A 
ATOM      8  C   UNL     1       6.090  -0.405   1.140  1.00  0.00     0.004 A 
ATOM      9  C   UNL     1       6.196   0.799  -0.881  1.00  0.00     0.004 A 
ATOM     10  C   UNL     1       5.336   0.636   1.677  1.00  0.00     0.000 A 
ATOM     11  C   UNL     1       5.451   1.846  -0.377  1.00  0.00     0.000 A 
ATOM     12  C   UNL     1       5.022   1.740   0.932  1.00  0.00     0.000 A 
ENDBRANCH   6   7
ENDBRANCH   1   6
TORSDOF 4
ENDMDL
MODEL 5
REMARK VINA RESULT:      -6.7      3.395      5.080
REMARK SMILES O=C(O)CCc1ccccc1
REMARK SMILES IDX 4 1 2 2 1 3 3 4 5 6 6 7 7 8 11 9 8 10 10 11 9 12
REMARK H PARENT 3 5
REMARK Flexibility Score: inf
ROOT
ATOM      1  C   UNL     1       4.975   1.729   0.691  1.00  0.00     0.127 C 
ENDROOT
BRANCH   1   2
ATOM      2  C   UNL     1       4.457   1.111   1.924  1.00  0.00     0.303 C 
ATOM      3  O   UNL     1       5.144   0.232   2.495  1.00  0.00    -0.252 OA
BRANCH   2   4
ATOM      4  O   UNL     1       3.237   1.481   2.457  1.00  0.00    -0.481 OA
ATOM      5  H   UNL     1       2.325   1.195   2.055  1.00  0.00     0.296 HD
ENDBRANCH   2   4
ENDBRANCH   1   2
BRANCH   1   6
ATOM      6  C   UNL     1       6.494   1.777   0.819  1.00  0.00     0.047 C 
BRANCH   6   7
ATOM      7  C   UNL     1       7.167   1.076  -0.289  1.00  0.00    -0.047 A 
ATOM      8  C   UNL     1       6.418   0.187  -1.051  1.00  0.00     0.004 A 
ATOM      9  C   UNL     1       8.487   1.227  -0.628  1.00  0.00     0.004 A 
ATOM     10  C   UNL     1       7.020  -0.500  -2.103  1.00  0.00     0.000 A 
ATOM     11  C   UNL     1       9.112   0.562  -1.664  1.00  0.00     0.000 A 
ATOM     12  C   UNL     1       8.343  -0.316  -2.402  1.00  0.00     0.000 A 
ENDBRANCH   6   7
ENDBRANCH   1   6
TORSDOF 4
ENDMDL
