@<TRIPOS>MOLECULE
/home/cewinharhar/GITHUB/reincatalyze/data/processed/docking_pred/2023-Apr-25-1829_maxeplen10_maxtrainstep200_exh32_gamma099_lrac3e-4_lrcr1e-3/a1c3c4a97d6bd518e48ffa0772dda1f342f6565e_ligand_2.pdbqt
 12 12 0 0 0
SMALL
GASTEIGER

@<TRIPOS>ATOM
      1  C          4.9750    1.7290    0.6910 C.3     1  UNL1        0.1270
      2  C          4.4570    1.1110    1.9240 C.2     1  UNL1        0.3030
      3  O          5.1440    0.2320    2.4950 O.2     1  UNL1       -0.2520
      4  O          3.2370    1.4810    2.4570 O.3     1  UNL1       -0.4810
      5  H          2.3250    1.1950    2.0550 H       1  UNL1        0.2960
      6  C          6.4940    1.7770    0.8190 C.3     1  UNL1        0.0470
      7  C          7.1670    1.0760   -0.2890 C.2     1  UNL1       -0.0470
      8  C          6.4180    0.1870   -1.0510 C.2     1  UNL1        0.0040
      9  C          8.4870    1.2270   -0.6280 C.2     1  UNL1        0.0040
     10  C          7.0200   -0.5000   -2.1030 C.2     1  UNL1        0.0000
     11  C          9.1120    0.5620   -1.6640 C.2     1  UNL1        0.0000
     12  C          8.3430   -0.3160   -2.4020 C.2     1  UNL1        0.0000
@<TRIPOS>BOND
     1    12    10    2
     2    12    11    1
     3    10     8    1
     4    11     9    2
     5     8     7    2
     6     9     7    1
     7     7     6    1
     8     1     6    1
     9     1     2    1
    10     2     4    1
    11     2     3    2
    12     5     4    1
