@<TRIPOS>MOLECULE
/home/cewinharhar/GITHUB/reincatalyze/data/processed/docking_pred/2023-Apr-25-1829_maxeplen10_maxtrainstep200_exh32_gamma099_lrac3e-4_lrcr1e-3/a1c3c4a97d6bd518e48ffa0772dda1f342f6565e_ligand_2.pdbqt
 12 12 0 0 0
SMALL
GASTEIGER

@<TRIPOS>ATOM
      1  C          8.4440   -0.6150   -2.1570 C.3     1  UNL1        0.1270
      2  C          8.4710   -1.8790   -2.9150 C.2     1  UNL1        0.3030
      3  O          9.5690   -2.4570   -3.0890 O.2     1  UNL1       -0.2520
      4  O          7.3150   -2.4330   -3.4310 O.3     1  UNL1       -0.4810
      5  H          7.1090   -2.4870   -4.4460 H       1  UNL1        0.2960
      6  C          7.0020   -0.1200   -2.1610 C.3     1  UNL1        0.0470
      7  C          6.4750    0.0670   -0.7980 C.2     1  UNL1       -0.0470
      8  C          6.6160   -0.9790    0.1070 C.2     1  UNL1        0.0040
      9  C          5.8470    1.1990   -0.3480 C.2     1  UNL1        0.0040
     10  C          6.1240   -0.8420    1.4040 C.2     1  UNL1        0.0000
     11  C          5.3500    1.3650    0.9300 C.2     1  UNL1        0.0000
     12  C          5.5030    0.3080    1.8060 C.2     1  UNL1        0.0000
@<TRIPOS>BOND
     1     5     4    1
     2     4     2    1
     3     3     2    2
     4     2     1    1
     5     6     1    1
     6     6     7    1
     7     7     9    2
     8     7     8    1
     9     9    11    1
    10     8    10    2
    11    11    12    2
    12    10    12    1
