@<TRIPOS>MOLECULE
/home/cewinharhar/GITHUB/reincatalyze/data/processed/docking_pred/2023-Apr-25-1829_maxeplen10_maxtrainstep200_exh32_gamma099_lrac3e-4_lrcr1e-3/a1c3c4a97d6bd518e48ffa0772dda1f342f6565e_ligand_2.pdbqt
 12 12 0 0 0
SMALL
GASTEIGER

@<TRIPOS>ATOM
      1  C          8.4280   -0.6400   -2.1320 C.3     1  UNL1        0.1270
      2  C          8.3990   -1.9020   -2.8920 C.2     1  UNL1        0.3030
      3  O          7.2900   -2.3860   -3.2190 O.2     1  UNL1       -0.2520
      4  O          9.5640   -2.5540   -3.2490 O.3     1  UNL1       -0.4810
      5  H          9.9710   -2.5200   -4.2020 H       1  UNL1        0.2960
      6  C          7.0030   -0.0980   -2.1080 C.3     1  UNL1        0.0470
      7  C          6.4720    0.0070   -0.7380 C.2     1  UNL1       -0.0470
      8  C          5.8390    1.1880   -0.3700 C.2     1  UNL1        0.0040
      9  C          6.5570   -0.9760    0.2150 C.2     1  UNL1        0.0040
     10  C          5.3290    1.3280    0.9190 C.2     1  UNL1        0.0000
     11  C          6.0610   -0.8680    1.4990 C.2     1  UNL1        0.0000
     12  C          5.4390    0.3180    1.8360 C.2     1  UNL1        0.0000
@<TRIPOS>BOND
     1     5     4    1
     2     4     2    1
     3     3     2    2
     4     2     1    1
     5     1     6    1
     6     6     7    1
     7     7     8    2
     8     7     9    1
     9     8    10    1
    10     9    11    2
    11    10    12    2
    12    11    12    1
