@<TRIPOS>MOLECULE
/home/cewinharhar/GITHUB/reincatalyze/data/processed/docking_pred/2023-Apr-25-1829_maxeplen10_maxtrainstep200_exh32_gamma099_lrac3e-4_lrcr1e-3/a1c3c4a97d6bd518e48ffa0772dda1f342f6565e_ligand_2.pdbqt
 12 12 0 0 0
SMALL
GASTEIGER

@<TRIPOS>ATOM
      1  C          8.2470   -0.8960   -1.9270 C.3     1  UNL1        0.1270
      2  C          8.3690   -2.0170   -2.8750 C.2     1  UNL1        0.3030
      3  O          9.5020   -2.5090   -3.0890 O.2     1  UNL1       -0.2520
      4  O          7.2640   -2.5330   -3.5250 O.3     1  UNL1       -0.4810
      5  H          7.0150   -2.3000   -4.5040 H       1  UNL1        0.2960
      6  C          7.5000   -1.4200   -0.7060 C.3     1  UNL1        0.0470
      7  C          6.6350   -0.3930   -0.1010 C.2     1  UNL1       -0.0470
      8  C          6.3020    0.7170   -0.8680 C.2     1  UNL1        0.0040
      9  C          6.1310   -0.4410    1.1740 C.2     1  UNL1        0.0040
     10  C          5.4900    1.7130   -0.3280 C.2     1  UNL1        0.0000
     11  C          5.3250    0.5280    1.7370 C.2     1  UNL1        0.0000
     12  C          5.0120    1.6200    0.9500 C.2     1  UNL1        0.0000
@<TRIPOS>BOND
     1     5     4    1
     2     4     2    1
     3     3     2    2
     4     2     1    1
     5     1     6    1
     6     8    10    1
     7     8     7    2
     8     6     7    1
     9    10    12    2
    10     7     9    1
    11    12    11    1
    12     9    11    2
