MODEL 1
REMARK VINA RESULT:      -7.3      0.000      0.000
REMARK SMILES O=C(O)CCc1ccccc1
REMARK SMILES IDX 4 1 2 2 1 3 3 4 5 6 6 7 7 8 11 9 8 10 10 11 9 12
REMARK H PARENT 3 5
REMARK Flexibility Score: inf
ROOT
ATOM      1  C   UNL     1       8.438  -0.675  -2.079  1.00  0.00     0.127 C 
ENDROOT
BRANCH   1   2
ATOM      2  C   UNL     1       8.405  -1.914  -2.876  1.00  0.00     0.303 C 
ATOM      3  O   UNL     1       7.295  -2.390  -3.210  1.00  0.00    -0.252 OA
BRANCH   2   4
ATOM      4  O   UNL     1       9.568  -2.553  -3.261  1.00  0.00    -0.481 OA
ATOM      5  H   UNL     1       9.917  -3.423  -2.818  1.00  0.00     0.296 HD
ENDBRANCH   2   4
ENDBRANCH   1   2
BRANCH   1   6
ATOM      6  C   UNL     1       7.027  -0.098  -2.089  1.00  0.00     0.047 C 
BRANCH   6   7
ATOM      7  C   UNL     1       6.470   0.032  -0.731  1.00  0.00    -0.047 A 
ATOM      8  C   UNL     1       5.829   1.219  -0.398  1.00  0.00     0.004 A 
ATOM      9  C   UNL     1       6.539  -0.932   0.242  1.00  0.00     0.004 A 
ATOM     10  C   UNL     1       5.295   1.383   0.879  1.00  0.00     0.000 A 
ATOM     11  C   UNL     1       6.020  -0.800   1.514  1.00  0.00     0.000 A 
ATOM     12  C   UNL     1       5.390   0.391   1.816  1.00  0.00     0.000 A 
ENDBRANCH   6   7
ENDBRANCH   1   6
TORSDOF 4
ENDMDL
MODEL 2
REMARK VINA RESULT:      -7.2      0.118      1.433
REMARK SMILES O=C(O)CCc1ccccc1
REMARK SMILES IDX 4 1 2 2 1 3 3 4 5 6 6 7 7 8 11 9 8 10 10 11 9 12
REMARK H PARENT 3 5
REMARK Flexibility Score: inf
ROOT
ATOM      1  C   UNL     1       8.439  -0.713  -2.077  1.00  0.00     0.127 C 
ENDROOT
BRANCH   1   2
ATOM      2  C   UNL     1       8.405  -1.941  -2.891  1.00  0.00     0.303 C 
ATOM      3  O   UNL     1       7.296  -2.392  -3.259  1.00  0.00    -0.252 OA
BRANCH   2   4
ATOM      4  O   UNL     1       9.567  -2.596  -3.253  1.00  0.00    -0.481 OA
ATOM      5  H   UNL     1       9.890  -2.688  -4.234  1.00  0.00     0.296 HD
ENDBRANCH   2   4
ENDBRANCH   1   2
BRANCH   1   6
ATOM      6  C   UNL     1       7.054  -0.082  -2.161  1.00  0.00     0.047 C 
BRANCH   6   7
ATOM      7  C   UNL     1       6.469   0.155  -0.829  1.00  0.00    -0.047 A 
ATOM      8  C   UNL     1       6.609  -0.839   0.132  1.00  0.00     0.004 A 
ATOM      9  C   UNL     1       5.785   1.285  -0.462  1.00  0.00     0.004 A 
ATOM     10  C   UNL     1       6.064  -0.655   1.401  1.00  0.00     0.000 A 
ATOM     11  C   UNL     1       5.234   1.497   0.787  1.00  0.00     0.000 A 
ATOM     12  C   UNL     1       5.389   0.491   1.721  1.00  0.00     0.000 A 
ENDBRANCH   6   7
ENDBRANCH   1   6
TORSDOF 4
ENDMDL
MODEL 3
REMARK VINA RESULT:      -6.8      3.297      5.145
REMARK SMILES O=C(O)CCc1ccccc1
REMARK SMILES IDX 4 1 2 2 1 3 3 4 5 6 6 7 7 8 11 9 8 10 10 11 9 12
REMARK H PARENT 3 5
REMARK Flexibility Score: inf
ROOT
ATOM      1  C   UNL     1       4.969   1.786   0.684  1.00  0.00     0.127 C 
ENDROOT
BRANCH   1   2
ATOM      2  C   UNL     1       4.474   1.130   1.906  1.00  0.00     0.303 C 
ATOM      3  O   UNL     1       5.184   0.253   2.453  1.00  0.00    -0.252 OA
BRANCH   2   4
ATOM      4  O   UNL     1       3.251   1.462   2.457  1.00  0.00    -0.481 OA
ATOM      5  H   UNL     1       2.407   0.867   2.380  1.00  0.00     0.296 HD
ENDBRANCH   2   4
ENDBRANCH   1   2
BRANCH   1   6
ATOM      6  C   UNL     1       6.492   1.784   0.760  1.00  0.00     0.047 C 
BRANCH   6   7
ATOM      7  C   UNL     1       7.102   1.007  -0.333  1.00  0.00    -0.047 A 
ATOM      8  C   UNL     1       8.437   1.244  -0.639  1.00  0.00     0.004 A 
ATOM      9  C   UNL     1       6.450   0.062  -1.083  1.00  0.00     0.004 A 
ATOM     10  C   UNL     1       9.047   0.533  -1.670  1.00  0.00     0.000 A 
ATOM     11  C   UNL     1       7.027  -0.659  -2.110  1.00  0.00     0.000 A 
ATOM     12  C   UNL     1       8.355  -0.400  -2.392  1.00  0.00     0.000 A 
ENDBRANCH   6   7
ENDBRANCH   1   6
TORSDOF 4
ENDMDL
MODEL 4
REMARK VINA RESULT:      -6.7      3.817      4.997
REMARK SMILES O=C(O)CCc1ccccc1
REMARK SMILES IDX 4 1 2 2 1 3 3 4 5 6 6 7 7 8 11 9 8 10 10 11 9 12
REMARK H PARENT 3 5
REMARK Flexibility Score: inf
ROOT
ATOM      1  C   UNL     1       5.481   2.904   0.005  1.00  0.00     0.127 C 
ENDROOT
BRANCH   1   2
ATOM      2  C   UNL     1       6.257   3.852   0.824  1.00  0.00     0.303 C 
ATOM      3  O   UNL     1       6.883   4.775   0.252  1.00  0.00    -0.252 OA
BRANCH   2   4
ATOM      4  O   UNL     1       6.303   3.743   2.201  1.00  0.00    -0.481 OA
ATOM      5  H   UNL     1       5.976   2.908   2.721  1.00  0.00     0.296 HD
ENDBRANCH   2   4
ENDBRANCH   1   2
BRANCH   1   6
ATOM      6  C   UNL     1       4.920   1.848   0.951  1.00  0.00     0.047 C 
BRANCH   6   7
ATOM      7  C   UNL     1       5.714   0.607   0.931  1.00  0.00    -0.047 A 
ATOM      8  C   UNL     1       5.769  -0.153   2.093  1.00  0.00     0.004 A 
ATOM      9  C   UNL     1       6.413   0.140  -0.152  1.00  0.00     0.004 A 
ATOM     10  C   UNL     1       6.514  -1.330   2.115  1.00  0.00     0.000 A 
ATOM     11  C   UNL     1       7.159  -1.022  -0.162  1.00  0.00     0.000 A 
ATOM     12  C   UNL     1       7.196  -1.756   1.008  1.00  0.00     0.000 A 
ENDBRANCH   6   7
ENDBRANCH   1   6
TORSDOF 4
ENDMDL
MODEL 5
REMARK VINA RESULT:      -6.6      1.918      2.598
REMARK SMILES O=C(O)CCc1ccccc1
REMARK SMILES IDX 4 1 2 2 1 3 3 4 5 6 6 7 7 8 11 9 8 10 10 11 9 12
REMARK H PARENT 3 5
REMARK Flexibility Score: inf
ROOT
ATOM      1  C   UNL     1       8.263   0.242  -2.195  1.00  0.00     0.127 C 
ENDROOT
BRANCH   1   2
ATOM      2  C   UNL     1       9.385   0.373  -1.248  1.00  0.00     0.303 C 
ATOM      3  O   UNL     1       9.443  -0.406  -0.268  1.00  0.00    -0.252 OA
BRANCH   2   4
ATOM      4  O   UNL     1      10.366   1.330  -1.422  1.00  0.00    -0.481 OA
ATOM      5  H   UNL     1      10.436   2.190  -0.847  1.00  0.00     0.296 HD
ENDBRANCH   2   4
ENDBRANCH   1   2
BRANCH   1   6
ATOM      6  C   UNL     1       7.174  -0.560  -1.492  1.00  0.00     0.047 C 
BRANCH   6   7
ATOM      7  C   UNL     1       6.366   0.275  -0.586  1.00  0.00    -0.047 A 
ATOM      8  C   UNL     1       6.127  -0.196   0.699  1.00  0.00     0.004 A 
ATOM      9  C   UNL     1       5.821   1.489  -0.915  1.00  0.00     0.004 A 
ATOM     10  C   UNL     1       5.362   0.562   1.583  1.00  0.00     0.000 A 
ATOM     11  C   UNL     1       5.059   2.264  -0.063  1.00  0.00     0.000 A 
ATOM     12  C   UNL     1       4.838   1.769   1.207  1.00  0.00     0.000 A 
ENDBRANCH   6   7
ENDBRANCH   1   6
TORSDOF 4
ENDMDL
