@<TRIPOS>MOLECULE
/home/cewinharhar/GITHUB/reincatalyze/data/processed/docking_pred/2023-Apr-25-1829_maxeplen10_maxtrainstep200_exh32_gamma099_lrac3e-4_lrcr1e-3/a450f47ca4f24610d4ad642e19216dd37a68a7e2_ligand_2.pdbqt
 12 12 0 0 0
SMALL
GASTEIGER

@<TRIPOS>ATOM
      1  C          8.2630    0.2420   -2.1950 C.3     1  UNL1        0.1270
      2  C          9.3850    0.3730   -1.2480 C.2     1  UNL1        0.3030
      3  O          9.4430   -0.4060   -0.2680 O.2     1  UNL1       -0.2520
      4  O         10.3660    1.3300   -1.4220 O.3     1  UNL1       -0.4810
      5  H         10.4360    2.1900   -0.8470 H       1  UNL1        0.2960
      6  C          7.1740   -0.5600   -1.4920 C.3     1  UNL1        0.0470
      7  C          6.3660    0.2750   -0.5860 C.2     1  UNL1       -0.0470
      8  C          6.1270   -0.1960    0.6990 C.2     1  UNL1        0.0040
      9  C          5.8210    1.4890   -0.9150 C.2     1  UNL1        0.0040
     10  C          5.3620    0.5620    1.5830 C.2     1  UNL1        0.0000
     11  C          5.0590    2.2640   -0.0630 C.2     1  UNL1        0.0000
     12  C          4.8380    1.7690    1.2070 C.2     1  UNL1        0.0000
@<TRIPOS>BOND
     1     1     6    1
     2     1     2    1
     3     6     7    1
     4     4     2    1
     5     4     5    1
     6     2     3    2
     7     9     7    2
     8     9    11    1
     9     7     8    1
    10    11    12    2
    11     8    10    2
    12    12    10    1
