@<TRIPOS>MOLECULE
/home/cewinharhar/GITHUB/reincatalyze/data/processed/docking_pred/2023-Apr-25-1829_maxeplen10_maxtrainstep200_exh32_gamma099_lrac3e-4_lrcr1e-3/a450f47ca4f24610d4ad642e19216dd37a68a7e2_ligand_2.pdbqt
 12 12 0 0 0
SMALL
GASTEIGER

@<TRIPOS>ATOM
      1  C          5.4810    2.9040    0.0050 C.3     1  UNL1        0.1270
      2  C          6.2570    3.8520    0.8240 C.2     1  UNL1        0.3030
      3  O          6.8830    4.7750    0.2520 O.2     1  UNL1       -0.2520
      4  O          6.3030    3.7430    2.2010 O.3     1  UNL1       -0.4810
      5  H          5.9760    2.9080    2.7210 H       1  UNL1        0.2960
      6  C          4.9200    1.8480    0.9510 C.3     1  UNL1        0.0470
      7  C          5.7140    0.6070    0.9310 C.2     1  UNL1       -0.0470
      8  C          5.7690   -0.1530    2.0930 C.2     1  UNL1        0.0040
      9  C          6.4130    0.1400   -0.1520 C.2     1  UNL1        0.0040
     10  C          6.5140   -1.3300    2.1150 C.2     1  UNL1        0.0000
     11  C          7.1590   -1.0220   -0.1620 C.2     1  UNL1        0.0000
     12  C          7.1960   -1.7560    1.0080 C.2     1  UNL1        0.0000
@<TRIPOS>BOND
     1    11     9    1
     2    11    12    2
     3     9     7    2
     4     1     2    1
     5     1     6    1
     6     3     2    2
     7     2     4    1
     8     7     6    1
     9     7     8    1
    10    12    10    1
    11     8    10    2
    12     4     5    1
