@<TRIPOS>MOLECULE
/home/cewinharhar/GITHUB/reincatalyze/data/processed/docking_pred/2023-Apr-25-1829_maxeplen10_maxtrainstep200_exh32_gamma099_lrac3e-4_lrcr1e-3/a450f47ca4f24610d4ad642e19216dd37a68a7e2_ligand_2.pdbqt
 12 12 0 0 0
SMALL
GASTEIGER

@<TRIPOS>ATOM
      1  C          8.4390   -0.7130   -2.0770 C.3     1  UNL1        0.1270
      2  C          8.4050   -1.9410   -2.8910 C.2     1  UNL1        0.3030
      3  O          7.2960   -2.3920   -3.2590 O.2     1  UNL1       -0.2520
      4  O          9.5670   -2.5960   -3.2530 O.3     1  UNL1       -0.4810
      5  H          9.8900   -2.6880   -4.2340 H       1  UNL1        0.2960
      6  C          7.0540   -0.0820   -2.1610 C.3     1  UNL1        0.0470
      7  C          6.4690    0.1550   -0.8290 C.2     1  UNL1       -0.0470
      8  C          6.6090   -0.8390    0.1320 C.2     1  UNL1        0.0040
      9  C          5.7850    1.2850   -0.4620 C.2     1  UNL1        0.0040
     10  C          6.0640   -0.6550    1.4010 C.2     1  UNL1        0.0000
     11  C          5.2340    1.4970    0.7870 C.2     1  UNL1        0.0000
     12  C          5.3890    0.4910    1.7210 C.2     1  UNL1        0.0000
@<TRIPOS>BOND
     1     5     4    1
     2     3     2    2
     3     4     2    1
     4     2     1    1
     5     6     1    1
     6     6     7    1
     7     7     9    2
     8     7     8    1
     9     9    11    1
    10     8    10    2
    11    11    12    2
    12    10    12    1
