@<TRIPOS>MOLECULE
/home/cewinharhar/GITHUB/reincatalyze/data/processed/docking_pred/2023-Apr-25-1829_maxeplen10_maxtrainstep200_exh32_gamma099_lrac3e-4_lrcr1e-3/a450f47ca4f24610d4ad642e19216dd37a68a7e2_ligand_2.pdbqt
 12 12 0 0 0
SMALL
GASTEIGER

@<TRIPOS>ATOM
      1  C          4.9690    1.7860    0.6840 C.3     1  UNL1        0.1270
      2  C          4.4740    1.1300    1.9060 C.2     1  UNL1        0.3030
      3  O          5.1840    0.2530    2.4530 O.2     1  UNL1       -0.2520
      4  O          3.2510    1.4620    2.4570 O.3     1  UNL1       -0.4810
      5  H          2.4070    0.8670    2.3800 H       1  UNL1        0.2960
      6  C          6.4920    1.7840    0.7600 C.3     1  UNL1        0.0470
      7  C          7.1020    1.0070   -0.3330 C.2     1  UNL1       -0.0470
      8  C          8.4370    1.2440   -0.6390 C.2     1  UNL1        0.0040
      9  C          6.4500    0.0620   -1.0830 C.2     1  UNL1        0.0040
     10  C          9.0470    0.5330   -1.6700 C.2     1  UNL1        0.0000
     11  C          7.0270   -0.6590   -2.1100 C.2     1  UNL1        0.0000
     12  C          8.3550   -0.4000   -2.3920 C.2     1  UNL1        0.0000
@<TRIPOS>BOND
     1    12    11    2
     2    12    10    1
     3    11     9    1
     4    10     8    2
     5     9     7    2
     6     8     7    1
     7     7     6    1
     8     1     6    1
     9     1     2    1
    10     2     3    2
    11     2     4    1
    12     5     4    1
