MODEL 1
REMARK VINA RESULT:      -7.3      0.000      0.000
REMARK SMILES O=C(O)CCc1ccccc1
REMARK SMILES IDX 4 1 2 2 1 3 3 4 5 6 6 7 7 8 11 9 8 10 10 11 9 12
REMARK H PARENT 3 5
REMARK Flexibility Score: inf
ROOT
ATOM      1  C   UNL     1       8.449  -0.563  -2.246  1.00  0.00     0.127 C 
ENDROOT
BRANCH   1   2
ATOM      2  C   UNL     1       8.465  -1.879  -2.909  1.00  0.00     0.303 C 
ATOM      3  O   UNL     1       9.556  -2.486  -3.022  1.00  0.00    -0.252 OA
BRANCH   2   4
ATOM      4  O   UNL     1       7.308  -2.451  -3.403  1.00  0.00    -0.481 OA
ATOM      5  H   UNL     1       6.986  -2.337  -4.382  1.00  0.00     0.296 HD
ENDBRANCH   2   4
ENDBRANCH   1   2
BRANCH   1   6
ATOM      6  C   UNL     1       6.998  -0.096  -2.213  1.00  0.00     0.047 C 
BRANCH   6   7
ATOM      7  C   UNL     1       6.488   0.035  -0.837  1.00  0.00    -0.047 A 
ATOM      8  C   UNL     1       5.873   1.229  -0.479  1.00  0.00     0.004 A 
ATOM      9  C   UNL     1       6.577  -0.933   0.129  1.00  0.00     0.004 A 
ATOM     10  C   UNL     1       5.383   1.394   0.816  1.00  0.00     0.000 A 
ATOM     11  C   UNL     1       6.101  -0.801   1.419  1.00  0.00     0.000 A 
ATOM     12  C   UNL     1       5.496   0.397   1.746  1.00  0.00     0.000 A 
ENDBRANCH   6   7
ENDBRANCH   1   6
TORSDOF 4
ENDMDL
MODEL 2
REMARK VINA RESULT:      -7.3      0.634      1.618
REMARK SMILES O=C(O)CCc1ccccc1
REMARK SMILES IDX 4 1 2 2 1 3 3 4 5 6 6 7 7 8 11 9 8 10 10 11 9 12
REMARK H PARENT 3 5
REMARK Flexibility Score: inf
ROOT
ATOM      1  C   UNL     1       8.220  -0.861  -1.967  1.00  0.00     0.127 C 
ENDROOT
BRANCH   1   2
ATOM      2  C   UNL     1       8.380  -2.004  -2.883  1.00  0.00     0.303 C 
ATOM      3  O   UNL     1       9.529  -2.464  -3.081  1.00  0.00    -0.252 OA
BRANCH   2   4
ATOM      4  O   UNL     1       7.294  -2.572  -3.521  1.00  0.00    -0.481 OA
ATOM      5  H   UNL     1       7.103  -3.591  -3.528  1.00  0.00     0.296 HD
ENDBRANCH   2   4
ENDBRANCH   1   2
BRANCH   1   6
ATOM      6  C   UNL     1       7.389  -1.347  -0.785  1.00  0.00     0.047 C 
BRANCH   6   7
ATOM      7  C   UNL     1       6.564  -0.271  -0.206  1.00  0.00    -0.047 A 
ATOM      8  C   UNL     1       6.137  -0.412   1.109  1.00  0.00     0.004 A 
ATOM      9  C   UNL     1       6.177   0.865  -0.868  1.00  0.00     0.004 A 
ATOM     10  C   UNL     1       5.350   0.581   1.690  1.00  0.00     0.000 A 
ATOM     11  C   UNL     1       5.399   1.866  -0.321  1.00  0.00     0.000 A 
ATOM     12  C   UNL     1       4.989   1.698   0.987  1.00  0.00     0.000 A 
ENDBRANCH   6   7
ENDBRANCH   1   6
TORSDOF 4
ENDMDL
MODEL 3
REMARK VINA RESULT:      -7.2      0.132      1.728
REMARK SMILES O=C(O)CCc1ccccc1
REMARK SMILES IDX 4 1 2 2 1 3 3 4 5 6 6 7 7 8 11 9 8 10 10 11 9 12
REMARK H PARENT 3 5
REMARK Flexibility Score: inf
ROOT
ATOM      1  C   UNL     1       8.421  -0.659  -2.105  1.00  0.00     0.127 C 
ENDROOT
BRANCH   1   2
ATOM      2  C   UNL     1       8.399  -1.909  -2.884  1.00  0.00     0.303 C 
ATOM      3  O   UNL     1       7.292  -2.393  -3.220  1.00  0.00    -0.252 OA
BRANCH   2   4
ATOM      4  O   UNL     1       9.567  -2.550  -3.250  1.00  0.00    -0.481 OA
ATOM      5  H   UNL     1       9.600  -3.343  -3.916  1.00  0.00     0.296 HD
ENDBRANCH   2   4
ENDBRANCH   1   2
BRANCH   1   6
ATOM      6  C   UNL     1       7.008  -0.086  -2.136  1.00  0.00     0.047 C 
BRANCH   6   7
ATOM      7  C   UNL     1       6.456   0.107  -0.784  1.00  0.00    -0.047 A 
ATOM      8  C   UNL     1       6.584  -0.933   0.129  1.00  0.00     0.004 A 
ATOM      9  C   UNL     1       5.815   1.239  -0.351  1.00  0.00     0.004 A 
ATOM     10  C   UNL     1       6.069  -0.791   1.416  1.00  0.00     0.000 A 
ATOM     11  C   UNL     1       5.295   1.410   0.916  1.00  0.00     0.000 A 
ATOM     12  C   UNL     1       5.437   0.359   1.801  1.00  0.00     0.000 A 
ENDBRANCH   6   7
ENDBRANCH   1   6
TORSDOF 4
ENDMDL
MODEL 4
REMARK VINA RESULT:      -7.2      0.334      1.019
REMARK SMILES O=C(O)CCc1ccccc1
REMARK SMILES IDX 4 1 2 2 1 3 3 4 5 6 6 7 7 8 11 9 8 10 10 11 9 12
REMARK H PARENT 3 5
REMARK Flexibility Score: inf
ROOT
ATOM      1  C   UNL     1       8.377  -0.917  -1.804  1.00  0.00     0.127 C 
ENDROOT
BRANCH   1   2
ATOM      2  C   UNL     1       8.358  -1.982  -2.822  1.00  0.00     0.303 C 
ATOM      3  O   UNL     1       7.254  -2.383  -3.259  1.00  0.00    -0.252 OA
BRANCH   2   4
ATOM      4  O   UNL     1       9.528  -2.542  -3.300  1.00  0.00    -0.481 OA
ATOM      5  H   UNL     1       9.831  -2.477  -4.289  1.00  0.00     0.296 HD
ENDBRANCH   2   4
ENDBRANCH   1   2
BRANCH   1   6
ATOM      6  C   UNL     1       7.073  -0.139  -1.946  1.00  0.00     0.047 C 
BRANCH   6   7
ATOM      7  C   UNL     1       6.431   0.111  -0.643  1.00  0.00    -0.047 A 
ATOM      8  C   UNL     1       5.756   1.313  -0.468  1.00  0.00     0.004 A 
ATOM      9  C   UNL     1       6.452  -0.752   0.422  1.00  0.00     0.004 A 
ATOM     10  C   UNL     1       5.141   1.590   0.752  1.00  0.00     0.000 A 
ATOM     11  C   UNL     1       5.853  -0.507   1.641  1.00  0.00     0.000 A 
ATOM     12  C   UNL     1       5.190   0.696   1.786  1.00  0.00     0.000 A 
ENDBRANCH   6   7
ENDBRANCH   1   6
TORSDOF 4
ENDMDL
MODEL 5
REMARK VINA RESULT:      -6.8      3.370      5.047
REMARK SMILES O=C(O)CCc1ccccc1
REMARK SMILES IDX 4 1 2 2 1 3 3 4 5 6 6 7 7 8 11 9 8 10 10 11 9 12
REMARK H PARENT 3 5
REMARK Flexibility Score: inf
ROOT
ATOM      1  C   UNL     1       4.980   1.795   0.711  1.00  0.00     0.127 C 
ENDROOT
BRANCH   1   2
ATOM      2  C   UNL     1       4.472   1.126   1.922  1.00  0.00     0.303 C 
ATOM      3  O   UNL     1       5.174   0.239   2.462  1.00  0.00    -0.252 OA
BRANCH   2   4
ATOM      4  O   UNL     1       3.247   1.457   2.467  1.00  0.00    -0.481 OA
ATOM      5  H   UNL     1       2.446   0.800   2.518  1.00  0.00     0.296 HD
ENDBRANCH   2   4
ENDBRANCH   1   2
BRANCH   1   6
ATOM      6  C   UNL     1       6.503   1.767   0.789  1.00  0.00     0.047 C 
BRANCH   6   7
ATOM      7  C   UNL     1       7.101   0.997  -0.316  1.00  0.00    -0.047 A 
ATOM      8  C   UNL     1       8.432   1.238  -0.634  1.00  0.00     0.004 A 
ATOM      9  C   UNL     1       6.442   0.058  -1.066  1.00  0.00     0.004 A 
ATOM     10  C   UNL     1       9.032   0.534  -1.677  1.00  0.00     0.000 A 
ATOM     11  C   UNL     1       7.008  -0.655  -2.104  1.00  0.00     0.000 A 
ATOM     12  C   UNL     1       8.332  -0.394  -2.398  1.00  0.00     0.000 A 
ENDBRANCH   6   7
ENDBRANCH   1   6
TORSDOF 4
ENDMDL
