@<TRIPOS>MOLECULE
/home/cewinharhar/GITHUB/reincatalyze/data/processed/docking_pred/2023-Apr-25-1829_maxeplen10_maxtrainstep200_exh32_gamma099_lrac3e-4_lrcr1e-3/a614218f6e6a1b7d791f470f20b1a009abdeaae3_ligand_2.pdbqt
 12 12 0 0 0
SMALL
GASTEIGER

@<TRIPOS>ATOM
      1  C          8.4490   -0.5630   -2.2460 C.3     1  UNL1        0.1270
      2  C          8.4650   -1.8790   -2.9090 C.2     1  UNL1        0.3030
      3  O          9.5560   -2.4860   -3.0220 O.2     1  UNL1       -0.2520
      4  O          7.3080   -2.4510   -3.4030 O.3     1  UNL1       -0.4810
      5  H          6.9860   -2.3370   -4.3820 H       1  UNL1        0.2960
      6  C          6.9980   -0.0960   -2.2130 C.3     1  UNL1        0.0470
      7  C          6.4880    0.0350   -0.8370 C.2     1  UNL1       -0.0470
      8  C          5.8730    1.2290   -0.4790 C.2     1  UNL1        0.0040
      9  C          6.5770   -0.9330    0.1290 C.2     1  UNL1        0.0040
     10  C          5.3830    1.3940    0.8160 C.2     1  UNL1        0.0000
     11  C          6.1010   -0.8010    1.4190 C.2     1  UNL1        0.0000
     12  C          5.4960    0.3970    1.7460 C.2     1  UNL1        0.0000
@<TRIPOS>BOND
     1     5     4    1
     2     4     2    1
     3     3     2    2
     4     2     1    1
     5     1     6    1
     6     6     7    1
     7     7     8    2
     8     7     9    1
     9     8    10    1
    10     9    11    2
    11    10    12    2
    12    11    12    1
