@<TRIPOS>MOLECULE
/home/cewinharhar/GITHUB/reincatalyze/data/processed/docking_pred/2023-Apr-25-1829_maxeplen10_maxtrainstep200_exh32_gamma099_lrac3e-4_lrcr1e-3/a614218f6e6a1b7d791f470f20b1a009abdeaae3_ligand_2.pdbqt
 12 12 0 0 0
SMALL
GASTEIGER

@<TRIPOS>ATOM
      1  C          8.4210   -0.6590   -2.1050 C.3     1  UNL1        0.1270
      2  C          8.3990   -1.9090   -2.8840 C.2     1  UNL1        0.3030
      3  O          7.2920   -2.3930   -3.2200 O.2     1  UNL1       -0.2520
      4  O          9.5670   -2.5500   -3.2500 O.3     1  UNL1       -0.4810
      5  H          9.6000   -3.3430   -3.9160 H       1  UNL1        0.2960
      6  C          7.0080   -0.0860   -2.1360 C.3     1  UNL1        0.0470
      7  C          6.4560    0.1070   -0.7840 C.2     1  UNL1       -0.0470
      8  C          6.5840   -0.9330    0.1290 C.2     1  UNL1        0.0040
      9  C          5.8150    1.2390   -0.3510 C.2     1  UNL1        0.0040
     10  C          6.0690   -0.7910    1.4160 C.2     1  UNL1        0.0000
     11  C          5.2950    1.4100    0.9160 C.2     1  UNL1        0.0000
     12  C          5.4370    0.3590    1.8010 C.2     1  UNL1        0.0000
@<TRIPOS>BOND
     1     5     4    1
     2     4     2    1
     3     3     2    2
     4     2     1    1
     5     6     1    1
     6     6     7    1
     7     7     9    2
     8     7     8    1
     9     9    11    1
    10     8    10    2
    11    11    12    2
    12    10    12    1
