@<TRIPOS>MOLECULE
/home/cewinharhar/GITHUB/reincatalyze/data/processed/docking_pred/2023-Apr-25-1829_maxeplen10_maxtrainstep200_exh32_gamma099_lrac3e-4_lrcr1e-3/a614218f6e6a1b7d791f470f20b1a009abdeaae3_ligand_2.pdbqt
 12 12 0 0 0
SMALL
GASTEIGER

@<TRIPOS>ATOM
      1  C          4.9800    1.7950    0.7110 C.3     1  UNL1        0.1270
      2  C          4.4720    1.1260    1.9220 C.2     1  UNL1        0.3030
      3  O          5.1740    0.2390    2.4620 O.2     1  UNL1       -0.2520
      4  O          3.2470    1.4570    2.4670 O.3     1  UNL1       -0.4810
      5  H          2.4460    0.8000    2.5180 H       1  UNL1        0.2960
      6  C          6.5030    1.7670    0.7890 C.3     1  UNL1        0.0470
      7  C          7.1010    0.9970   -0.3160 C.2     1  UNL1       -0.0470
      8  C          8.4320    1.2380   -0.6340 C.2     1  UNL1        0.0040
      9  C          6.4420    0.0580   -1.0660 C.2     1  UNL1        0.0040
     10  C          9.0320    0.5340   -1.6770 C.2     1  UNL1        0.0000
     11  C          7.0080   -0.6550   -2.1040 C.2     1  UNL1        0.0000
     12  C          8.3320   -0.3940   -2.3980 C.2     1  UNL1        0.0000
@<TRIPOS>BOND
     1    12    11    2
     2    12    10    1
     3    11     9    1
     4    10     8    2
     5     9     7    2
     6     8     7    1
     7     7     6    1
     8     1     6    1
     9     1     2    1
    10     2     3    2
    11     2     4    1
    12     4     5    1
