@<TRIPOS>MOLECULE
/home/cewinharhar/GITHUB/reincatalyze/data/processed/docking_pred/2023-Apr-25-1829_maxeplen10_maxtrainstep200_exh32_gamma099_lrac3e-4_lrcr1e-3/a614218f6e6a1b7d791f470f20b1a009abdeaae3_ligand_2.pdbqt
 12 12 0 0 0
SMALL
GASTEIGER

@<TRIPOS>ATOM
      1  C          8.2200   -0.8610   -1.9670 C.3     1  UNL1        0.1270
      2  C          8.3800   -2.0040   -2.8830 C.2     1  UNL1        0.3030
      3  O          9.5290   -2.4640   -3.0810 O.2     1  UNL1       -0.2520
      4  O          7.2940   -2.5720   -3.5210 O.3     1  UNL1       -0.4810
      5  H          7.1030   -3.5910   -3.5280 H       1  UNL1        0.2960
      6  C          7.3890   -1.3470   -0.7850 C.3     1  UNL1        0.0470
      7  C          6.5640   -0.2710   -0.2060 C.2     1  UNL1       -0.0470
      8  C          6.1370   -0.4120    1.1090 C.2     1  UNL1        0.0040
      9  C          6.1770    0.8650   -0.8680 C.2     1  UNL1        0.0040
     10  C          5.3500    0.5810    1.6900 C.2     1  UNL1        0.0000
     11  C          5.3990    1.8660   -0.3210 C.2     1  UNL1        0.0000
     12  C          4.9890    1.6980    0.9870 C.2     1  UNL1        0.0000
@<TRIPOS>BOND
     1     5     4    1
     2     4     2    1
     3     3     2    2
     4     2     1    1
     5     1     6    1
     6     9    11    1
     7     9     7    2
     8     6     7    1
     9    11    12    2
    10     7     8    1
    11    12    10    1
    12     8    10    2
