@<TRIPOS>MOLECULE
/home/cewinharhar/GITHUB/reincatalyze/data/processed/docking_pred/2023-Apr-25-1829_maxeplen10_maxtrainstep200_exh32_gamma099_lrac3e-4_lrcr1e-3/a6201df4fd59712db5137144eee8a96fed35f0a9_ligand_2.pdbqt
 12 12 0 0 0
SMALL
GASTEIGER

@<TRIPOS>ATOM
      1  C          8.3010    0.1160   -2.1520 C.3     1  UNL1        0.1270
      2  C          9.4210    0.3260   -1.2170 C.2     1  UNL1        0.3030
      3  O          9.4900   -0.3830   -0.1860 O.2     1  UNL1       -0.2520
      4  O         10.3890    1.2830   -1.4570 O.3     1  UNL1       -0.4810
      5  H         11.3410    1.2490   -1.0490 H       1  UNL1        0.2960
      6  C          7.2280   -0.6610   -1.3970 C.3     1  UNL1        0.0470
      7  C          6.4010    0.2150   -0.5480 C.2     1  UNL1       -0.0470
      8  C          6.1400   -0.1940    0.7540 C.2     1  UNL1        0.0040
      9  C          5.8590    1.4100   -0.9460 C.2     1  UNL1        0.0040
     10  C          5.3570    0.6040    1.5860 C.2     1  UNL1        0.0000
     11  C          5.0810    2.2220   -0.1460 C.2     1  UNL1        0.0000
     12  C          4.8370    1.7890    1.1430 C.2     1  UNL1        0.0000
@<TRIPOS>BOND
     1     1     6    1
     2     1     2    1
     3     4     2    1
     4     4     5    1
     5     6     7    1
     6     2     3    2
     7     9     7    2
     8     9    11    1
     9     7     8    1
    10    11    12    2
    11     8    10    2
    12    12    10    1
