@<TRIPOS>MOLECULE
/home/cewinharhar/GITHUB/reincatalyze/data/processed/docking_pred/2023-Apr-25-1829_maxeplen10_maxtrainstep200_exh32_gamma099_lrac3e-4_lrcr1e-3/a6201df4fd59712db5137144eee8a96fed35f0a9_ligand_2.pdbqt
 12 12 0 0 0
SMALL
GASTEIGER

@<TRIPOS>ATOM
      1  C          8.4650   -0.6030   -2.1990 C.3     1  UNL1        0.1270
      2  C          8.4740   -1.8950   -2.9080 C.2     1  UNL1        0.3030
      3  O          9.5650   -2.4920   -3.0640 O.2     1  UNL1       -0.2520
      4  O          7.3100   -2.4550   -3.3980 O.3     1  UNL1       -0.4810
      5  H          6.8040   -2.0930   -4.2280 H       1  UNL1        0.2960
      6  C          7.0210   -0.1150   -2.1740 C.3     1  UNL1        0.0470
      7  C          6.4950   -0.0040   -0.8020 C.2     1  UNL1       -0.0470
      8  C          5.8570    1.1770   -0.4410 C.2     1  UNL1        0.0040
      9  C          6.5910   -0.9780    0.1570 C.2     1  UNL1        0.0040
     10  C          5.3510    1.3220    0.8500 C.2     1  UNL1        0.0000
     11  C          6.1010   -0.8640    1.4430 C.2     1  UNL1        0.0000
     12  C          5.4730    0.3210    1.7730 C.2     1  UNL1        0.0000
@<TRIPOS>BOND
     1     5     4    1
     2     4     2    1
     3     3     2    2
     4     2     1    1
     5     1     6    1
     6     6     7    1
     7     7     8    2
     8     7     9    1
     9     8    10    1
    10     9    11    2
    11    10    12    2
    12    11    12    1
