@<TRIPOS>MOLECULE
/home/cewinharhar/GITHUB/reincatalyze/data/processed/docking_pred/2023-Apr-25-1829_maxeplen10_maxtrainstep200_exh32_gamma099_lrac3e-4_lrcr1e-3/a6201df4fd59712db5137144eee8a96fed35f0a9_ligand_2.pdbqt
 12 12 0 0 0
SMALL
GASTEIGER

@<TRIPOS>ATOM
      1  C          4.9760    1.7790    0.7050 C.3     1  UNL1        0.1270
      2  C          4.4680    1.1190    1.9200 C.2     1  UNL1        0.3030
      3  O          5.1680    0.2340    2.4660 O.2     1  UNL1       -0.2520
      4  O          3.2440    1.4580    2.4650 O.3     1  UNL1       -0.4810
      5  H          2.4640    0.7860    2.5840 H       1  UNL1        0.2960
      6  C          6.4960    1.8170    0.8170 C.3     1  UNL1        0.0470
      7  C          7.1530    1.1040   -0.2920 C.2     1  UNL1       -0.0470
      8  C          6.3790    0.2530   -1.0720 C.2     1  UNL1        0.0040
      9  C          8.4810    1.2090   -0.6150 C.2     1  UNL1        0.0040
     10  C          6.9670   -0.4440   -2.1260 C.2     1  UNL1        0.0000
     11  C          9.0920    0.5330   -1.6530 C.2     1  UNL1        0.0000
     12  C          8.2980   -0.3060   -2.4100 C.2     1  UNL1        0.0000
@<TRIPOS>BOND
     1    12    10    2
     2    12    11    1
     3    10     8    1
     4    11     9    2
     5     8     7    2
     6     9     7    1
     7     7     6    1
     8     1     6    1
     9     1     2    1
    10     2     4    1
    11     2     3    2
    12     4     5    1
