@<TRIPOS>MOLECULE
/home/cewinharhar/GITHUB/reincatalyze/data/processed/docking_pred/2023-Apr-25-1829_maxeplen10_maxtrainstep200_exh32_gamma099_lrac3e-4_lrcr1e-3/a6201df4fd59712db5137144eee8a96fed35f0a9_ligand_2.pdbqt
 12 12 0 0 0
SMALL
GASTEIGER

@<TRIPOS>ATOM
      1  C          8.4570   -0.6420   -2.1440 C.3     1  UNL1        0.1270
      2  C          8.4770   -1.8990   -2.9120 C.2     1  UNL1        0.3030
      3  O          9.5710   -2.4870   -3.0820 O.2     1  UNL1       -0.2520
      4  O          7.3200   -2.4380   -3.4410 O.3     1  UNL1       -0.4810
      5  H          6.5340   -2.7890   -2.8620 H       1  UNL1        0.2960
      6  C          7.0240   -0.1240   -2.1690 C.3     1  UNL1        0.0470
      7  C          6.4810    0.0740   -0.8130 C.2     1  UNL1       -0.0470
      8  C          6.6330   -0.9550    0.1080 C.2     1  UNL1        0.0040
      9  C          5.8250    1.2000   -0.3870 C.2     1  UNL1        0.0040
     10  C          6.1270   -0.8080    1.3980 C.2     1  UNL1        0.0000
     11  C          5.3140    1.3750    0.8840 C.2     1  UNL1        0.0000
     12  C          5.4790    0.3360    1.7780 C.2     1  UNL1        0.0000
@<TRIPOS>BOND
     1     4     2    1
     2     4     5    1
     3     3     2    2
     4     2     1    1
     5     6     1    1
     6     6     7    1
     7     7     9    2
     8     7     8    1
     9     9    11    1
    10     8    10    2
    11    11    12    2
    12    10    12    1
