@<TRIPOS>MOLECULE
/home/cewinharhar/GITHUB/reincatalyze/data/processed/docking_pred/2023-Apr-25-1829_maxeplen10_maxtrainstep200_exh32_gamma099_lrac3e-4_lrcr1e-3/a6201df4fd59712db5137144eee8a96fed35f0a9_ligand_2.pdbqt
 12 12 0 0 0
SMALL
GASTEIGER

@<TRIPOS>ATOM
      1  C          5.4640    2.9220    0.0480 C.3     1  UNL1        0.1270
      2  C          6.2650    3.8610    0.8530 C.2     1  UNL1        0.3030
      3  O          6.8930    4.7750    0.2690 O.2     1  UNL1       -0.2520
      4  O          6.3340    3.7520    2.2290 O.3     1  UNL1       -0.4810
      5  H          7.2080    3.5380    2.7430 H       1  UNL1        0.2960
      6  C          4.9100    1.8710    1.0040 C.3     1  UNL1        0.0470
      7  C          5.6940    0.6240    0.9740 C.2     1  UNL1       -0.0470
      8  C          6.3240    0.2760   -0.2150 C.2     1  UNL1        0.0040
      9  C          5.8490   -0.2320    2.0330 C.2     1  UNL1        0.0040
     10  C          7.0690   -0.8990   -0.2850 C.2     1  UNL1        0.0000
     11  C          6.5810   -1.4020    1.9960 C.2     1  UNL1        0.0000
     12  C          7.1940   -1.7220    0.8000 C.2     1  UNL1        0.0000
@<TRIPOS>BOND
     1    10     8    1
     2    10    12    2
     3     8     7    2
     4     1     2    1
     5     1     6    1
     6     3     2    2
     7    12    11    1
     8     2     4    1
     9     7     6    1
    10     7     9    1
    11    11     9    2
    12     4     5    1
