MODEL 1
REMARK VINA RESULT:      -7.3      0.000      0.000
REMARK SMILES O=C(O)CCc1ccccc1
REMARK SMILES IDX 4 1 2 2 1 3 3 4 5 6 6 7 7 8 11 9 8 10 10 11 9 12
REMARK H PARENT 3 5
REMARK Flexibility Score: inf
ROOT
ATOM      1  C   UNL     1       8.465  -0.603  -2.199  1.00  0.00     0.127 C 
ENDROOT
BRANCH   1   2
ATOM      2  C   UNL     1       8.474  -1.895  -2.908  1.00  0.00     0.303 C 
ATOM      3  O   UNL     1       9.565  -2.492  -3.064  1.00  0.00    -0.252 OA
BRANCH   2   4
ATOM      4  O   UNL     1       7.310  -2.455  -3.398  1.00  0.00    -0.481 OA
ATOM      5  H   UNL     1       6.804  -2.093  -4.228  1.00  0.00     0.296 HD
ENDBRANCH   2   4
ENDBRANCH   1   2
BRANCH   1   6
ATOM      6  C   UNL     1       7.021  -0.115  -2.174  1.00  0.00     0.047 C 
BRANCH   6   7
ATOM      7  C   UNL     1       6.495  -0.004  -0.802  1.00  0.00    -0.047 A 
ATOM      8  C   UNL     1       5.857   1.177  -0.441  1.00  0.00     0.004 A 
ATOM      9  C   UNL     1       6.591  -0.978   0.157  1.00  0.00     0.004 A 
ATOM     10  C   UNL     1       5.351   1.322   0.850  1.00  0.00     0.000 A 
ATOM     11  C   UNL     1       6.101  -0.864   1.443  1.00  0.00     0.000 A 
ATOM     12  C   UNL     1       5.473   0.321   1.773  1.00  0.00     0.000 A 
ENDBRANCH   6   7
ENDBRANCH   1   6
TORSDOF 4
ENDMDL
MODEL 2
REMARK VINA RESULT:      -7.3      0.056      1.430
REMARK SMILES O=C(O)CCc1ccccc1
REMARK SMILES IDX 4 1 2 2 1 3 3 4 5 6 6 7 7 8 11 9 8 10 10 11 9 12
REMARK H PARENT 3 5
REMARK Flexibility Score: inf
ROOT
ATOM      1  C   UNL     1       8.457  -0.642  -2.144  1.00  0.00     0.127 C 
ENDROOT
BRANCH   1   2
ATOM      2  C   UNL     1       8.477  -1.899  -2.912  1.00  0.00     0.303 C 
ATOM      3  O   UNL     1       9.571  -2.487  -3.082  1.00  0.00    -0.252 OA
BRANCH   2   4
ATOM      4  O   UNL     1       7.320  -2.438  -3.441  1.00  0.00    -0.481 OA
ATOM      5  H   UNL     1       6.534  -2.789  -2.862  1.00  0.00     0.296 HD
ENDBRANCH   2   4
ENDBRANCH   1   2
BRANCH   1   6
ATOM      6  C   UNL     1       7.024  -0.124  -2.169  1.00  0.00     0.047 C 
BRANCH   6   7
ATOM      7  C   UNL     1       6.481   0.074  -0.813  1.00  0.00    -0.047 A 
ATOM      8  C   UNL     1       6.633  -0.955   0.108  1.00  0.00     0.004 A 
ATOM      9  C   UNL     1       5.825   1.200  -0.387  1.00  0.00     0.004 A 
ATOM     10  C   UNL     1       6.127  -0.808   1.398  1.00  0.00     0.000 A 
ATOM     11  C   UNL     1       5.314   1.375   0.884  1.00  0.00     0.000 A 
ATOM     12  C   UNL     1       5.479   0.336   1.778  1.00  0.00     0.000 A 
ENDBRANCH   6   7
ENDBRANCH   1   6
TORSDOF 4
ENDMDL
MODEL 3
REMARK VINA RESULT:      -6.8      3.379      5.086
REMARK SMILES O=C(O)CCc1ccccc1
REMARK SMILES IDX 4 1 2 2 1 3 3 4 5 6 6 7 7 8 11 9 8 10 10 11 9 12
REMARK H PARENT 3 5
REMARK Flexibility Score: inf
ROOT
ATOM      1  C   UNL     1       4.976   1.779   0.705  1.00  0.00     0.127 C 
ENDROOT
BRANCH   1   2
ATOM      2  C   UNL     1       4.468   1.119   1.920  1.00  0.00     0.303 C 
ATOM      3  O   UNL     1       5.168   0.234   2.466  1.00  0.00    -0.252 OA
BRANCH   2   4
ATOM      4  O   UNL     1       3.244   1.458   2.465  1.00  0.00    -0.481 OA
ATOM      5  H   UNL     1       2.464   0.786   2.584  1.00  0.00     0.296 HD
ENDBRANCH   2   4
ENDBRANCH   1   2
BRANCH   1   6
ATOM      6  C   UNL     1       6.496   1.817   0.817  1.00  0.00     0.047 C 
BRANCH   6   7
ATOM      7  C   UNL     1       7.153   1.104  -0.292  1.00  0.00    -0.047 A 
ATOM      8  C   UNL     1       6.379   0.253  -1.072  1.00  0.00     0.004 A 
ATOM      9  C   UNL     1       8.481   1.209  -0.615  1.00  0.00     0.004 A 
ATOM     10  C   UNL     1       6.967  -0.444  -2.126  1.00  0.00     0.000 A 
ATOM     11  C   UNL     1       9.092   0.533  -1.653  1.00  0.00     0.000 A 
ATOM     12  C   UNL     1       8.298  -0.306  -2.410  1.00  0.00     0.000 A 
ENDBRANCH   6   7
ENDBRANCH   1   6
TORSDOF 4
ENDMDL
MODEL 4
REMARK VINA RESULT:      -6.6      3.819      4.929
REMARK SMILES O=C(O)CCc1ccccc1
REMARK SMILES IDX 4 1 2 2 1 3 3 4 5 6 6 7 7 8 11 9 8 10 10 11 9 12
REMARK H PARENT 3 5
REMARK Flexibility Score: inf
ROOT
ATOM      1  C   UNL     1       5.464   2.922   0.048  1.00  0.00     0.127 C 
ENDROOT
BRANCH   1   2
ATOM      2  C   UNL     1       6.265   3.861   0.853  1.00  0.00     0.303 C 
ATOM      3  O   UNL     1       6.893   4.775   0.269  1.00  0.00    -0.252 OA
BRANCH   2   4
ATOM      4  O   UNL     1       6.334   3.752   2.229  1.00  0.00    -0.481 OA
ATOM      5  H   UNL     1       7.208   3.538   2.743  1.00  0.00     0.296 HD
ENDBRANCH   2   4
ENDBRANCH   1   2
BRANCH   1   6
ATOM      6  C   UNL     1       4.910   1.871   1.004  1.00  0.00     0.047 C 
BRANCH   6   7
ATOM      7  C   UNL     1       5.694   0.624   0.974  1.00  0.00    -0.047 A 
ATOM      8  C   UNL     1       6.324   0.276  -0.215  1.00  0.00     0.004 A 
ATOM      9  C   UNL     1       5.849  -0.232   2.033  1.00  0.00     0.004 A 
ATOM     10  C   UNL     1       7.069  -0.899  -0.285  1.00  0.00     0.000 A 
ATOM     11  C   UNL     1       6.581  -1.402   1.996  1.00  0.00     0.000 A 
ATOM     12  C   UNL     1       7.194  -1.722   0.800  1.00  0.00     0.000 A 
ENDBRANCH   6   7
ENDBRANCH   1   6
TORSDOF 4
ENDMDL
MODEL 5
REMARK VINA RESULT:      -6.6      1.941      2.666
REMARK SMILES O=C(O)CCc1ccccc1
REMARK SMILES IDX 4 1 2 2 1 3 3 4 5 6 6 7 7 8 11 9 8 10 10 11 9 12
REMARK H PARENT 3 5
REMARK Flexibility Score: inf
ROOT
ATOM      1  C   UNL     1       8.301   0.116  -2.152  1.00  0.00     0.127 C 
ENDROOT
BRANCH   1   2
ATOM      2  C   UNL     1       9.421   0.326  -1.217  1.00  0.00     0.303 C 
ATOM      3  O   UNL     1       9.490  -0.383  -0.186  1.00  0.00    -0.252 OA
BRANCH   2   4
ATOM      4  O   UNL     1      10.389   1.283  -1.457  1.00  0.00    -0.481 OA
ATOM      5  H   UNL     1      11.341   1.249  -1.049  1.00  0.00     0.296 HD
ENDBRANCH   2   4
ENDBRANCH   1   2
BRANCH   1   6
ATOM      6  C   UNL     1       7.228  -0.661  -1.397  1.00  0.00     0.047 C 
BRANCH   6   7
ATOM      7  C   UNL     1       6.401   0.215  -0.548  1.00  0.00    -0.047 A 
ATOM      8  C   UNL     1       6.140  -0.194   0.754  1.00  0.00     0.004 A 
ATOM      9  C   UNL     1       5.859   1.410  -0.946  1.00  0.00     0.004 A 
ATOM     10  C   UNL     1       5.357   0.604   1.586  1.00  0.00     0.000 A 
ATOM     11  C   UNL     1       5.081   2.222  -0.146  1.00  0.00     0.000 A 
ATOM     12  C   UNL     1       4.837   1.789   1.143  1.00  0.00     0.000 A 
ENDBRANCH   6   7
ENDBRANCH   1   6
TORSDOF 4
ENDMDL
