@<TRIPOS>MOLECULE
/home/cewinharhar/GITHUB/reincatalyze/data/processed/docking_pred/2023-Apr-25-1829_maxeplen10_maxtrainstep200_exh32_gamma099_lrac3e-4_lrcr1e-3/a7c8c9f10e55c2841f25afbe7e611a3f864293db_ligand_2.pdbqt
 12 12 0 0 0
SMALL
GASTEIGER

@<TRIPOS>ATOM
      1  C          7.8660   -2.3310    0.8460 C.3     1  UNL1        0.1270
      2  C          8.7370   -3.3940    0.3130 C.2     1  UNL1        0.3030
      3  O          9.6310   -3.8700    1.0510 O.2     1  UNL1       -0.2520
      4  O          8.5840   -3.8710   -0.9740 O.3     1  UNL1       -0.4810
      5  H          9.0020   -3.4160   -1.8070 H       1  UNL1        0.2960
      6  C          7.4970   -1.4260   -0.3230 C.3     1  UNL1        0.0470
      7  C          6.6050   -0.3260    0.0860 C.2     1  UNL1       -0.0470
      8  C          6.3360    0.6760   -0.8390 C.2     1  UNL1        0.0040
      9  C          6.0190   -0.2070    1.3200 C.2     1  UNL1        0.0040
     10  C          5.5030    1.7360   -0.4870 C.2     1  UNL1        0.0000
     11  C          5.1900    0.8300    1.6980 C.2     1  UNL1        0.0000
     12  C          4.9420    1.8110    0.7580 C.2     1  UNL1        0.0000
@<TRIPOS>BOND
     1     5     4    1
     2     4     2    1
     3     8    10    1
     4     8     7    2
     5    10    12    2
     6     6     7    1
     7     6     1    1
     8     7     9    1
     9     2     1    1
    10     2     3    2
    11    12    11    1
    12     9    11    2
