@<TRIPOS>MOLECULE
/home/cewinharhar/GITHUB/reincatalyze/data/processed/docking_pred/2023-Apr-25-1829_maxeplen10_maxtrainstep200_exh32_gamma099_lrac3e-4_lrcr1e-3/a7c8c9f10e55c2841f25afbe7e611a3f864293db_ligand_2.pdbqt
 12 12 0 0 0
SMALL
GASTEIGER

@<TRIPOS>ATOM
      1  C          4.9780    1.7810    0.7070 C.3     1  UNL1        0.1270
      2  C          4.4650    1.1170    1.9190 C.2     1  UNL1        0.3030
      3  O          5.1610    0.2260    2.4600 O.2     1  UNL1       -0.2520
      4  O          3.2430    1.4600    2.4650 O.3     1  UNL1       -0.4810
      5  H          2.3530    1.4390    1.9340 H       1  UNL1        0.2960
      6  C          6.5000    1.7510    0.7890 C.3     1  UNL1        0.0470
      7  C          7.1010    0.9810   -0.3150 C.2     1  UNL1       -0.0470
      8  C          8.4270    1.2350   -0.6420 C.2     1  UNL1        0.0040
      9  C          6.4480    0.0300   -1.0550 C.2     1  UNL1        0.0040
     10  C          9.0290    0.5310   -1.6840 C.2     1  UNL1        0.0000
     11  C          7.0160   -0.6830   -2.0920 C.2     1  UNL1        0.0000
     12  C          8.3350   -0.4090   -2.3950 C.2     1  UNL1        0.0000
@<TRIPOS>BOND
     1    12    11    2
     2    12    10    1
     3    11     9    1
     4    10     8    2
     5     9     7    2
     6     8     7    1
     7     7     6    1
     8     1     6    1
     9     1     2    1
    10     2     3    2
    11     2     4    1
    12     5     4    1
