@<TRIPOS>MOLECULE
/home/cewinharhar/GITHUB/reincatalyze/data/processed/docking_pred/2023-Apr-25-1829_maxeplen10_maxtrainstep200_exh32_gamma099_lrac3e-4_lrcr1e-3/a7c8c9f10e55c2841f25afbe7e611a3f864293db_ligand_2.pdbqt
 12 12 0 0 0
SMALL
GASTEIGER

@<TRIPOS>ATOM
      1  C          8.4370   -0.5590   -2.2620 C.3     1  UNL1        0.1270
      2  C          8.4540   -1.8730   -2.9270 C.2     1  UNL1        0.3030
      3  O          9.5430   -2.4850   -3.0320 O.2     1  UNL1       -0.2520
      4  O          7.2990   -2.4390   -3.4320 O.3     1  UNL1       -0.4810
      5  H          6.7160   -3.1170   -2.9070 H       1  UNL1        0.2960
      6  C          6.9830   -0.1050   -2.2020 C.3     1  UNL1        0.0470
      7  C          6.4870   -0.0100   -0.8170 C.2     1  UNL1       -0.0470
      8  C          5.8680    1.1710   -0.4240 C.2     1  UNL1        0.0040
      9  C          6.5940   -1.0000    0.1250 C.2     1  UNL1        0.0040
     10  C          5.3920    1.3010    0.8790 C.2     1  UNL1        0.0000
     11  C          6.1320   -0.9010    1.4220 C.2     1  UNL1        0.0000
     12  C          5.5220    0.2840    1.7840 C.2     1  UNL1        0.0000
@<TRIPOS>BOND
     1     4     2    1
     2     4     5    1
     3     3     2    2
     4     2     1    1
     5     1     6    1
     6     6     7    1
     7     7     8    2
     8     7     9    1
     9     8    10    1
    10     9    11    2
    11    10    12    2
    12    11    12    1
