MODEL 1
REMARK VINA RESULT:      -7.3      0.000      0.000
REMARK SMILES O=C(O)CCc1ccccc1
REMARK SMILES IDX 4 1 2 2 1 3 3 4 5 6 6 7 7 8 11 9 8 10 10 11 9 12
REMARK H PARENT 3 5
REMARK Flexibility Score: inf
ROOT
ATOM      1  C   UNL     1       8.466  -0.660  -2.117  1.00  0.00     0.127 C 
ENDROOT
BRANCH   1   2
ATOM      2  C   UNL     1       8.464  -1.912  -2.894  1.00  0.00     0.303 C 
ATOM      3  O   UNL     1       9.549  -2.512  -3.079  1.00  0.00    -0.252 OA
BRANCH   2   4
ATOM      4  O   UNL     1       7.296  -2.432  -3.418  1.00  0.00    -0.481 OA
ATOM      5  H   UNL     1       6.411  -1.896  -3.488  1.00  0.00     0.296 HD
ENDBRANCH   2   4
ENDBRANCH   1   2
BRANCH   1   6
ATOM      6  C   UNL     1       7.049  -0.101  -2.164  1.00  0.00     0.047 C 
BRANCH   6   7
ATOM      7  C   UNL     1       6.485   0.099  -0.817  1.00  0.00    -0.047 A 
ATOM      8  C   UNL     1       6.607  -0.936   0.102  1.00  0.00     0.004 A 
ATOM      9  C   UNL     1       5.838   1.232  -0.397  1.00  0.00     0.004 A 
ATOM     10  C   UNL     1       6.081  -0.788   1.384  1.00  0.00     0.000 A 
ATOM     11  C   UNL     1       5.307   1.409   0.865  1.00  0.00     0.000 A 
ATOM     12  C   UNL     1       5.443   0.364   1.757  1.00  0.00     0.000 A 
ENDBRANCH   6   7
ENDBRANCH   1   6
TORSDOF 4
ENDMDL
MODEL 2
REMARK VINA RESULT:      -7.3      0.102      1.433
REMARK SMILES O=C(O)CCc1ccccc1
REMARK SMILES IDX 4 1 2 2 1 3 3 4 5 6 6 7 7 8 11 9 8 10 10 11 9 12
REMARK H PARENT 3 5
REMARK Flexibility Score: inf
ROOT
ATOM      1  C   UNL     1       8.437  -0.559  -2.262  1.00  0.00     0.127 C 
ENDROOT
BRANCH   1   2
ATOM      2  C   UNL     1       8.454  -1.873  -2.927  1.00  0.00     0.303 C 
ATOM      3  O   UNL     1       9.543  -2.485  -3.032  1.00  0.00    -0.252 OA
BRANCH   2   4
ATOM      4  O   UNL     1       7.299  -2.439  -3.432  1.00  0.00    -0.481 OA
ATOM      5  H   UNL     1       6.716  -3.117  -2.907  1.00  0.00     0.296 HD
ENDBRANCH   2   4
ENDBRANCH   1   2
BRANCH   1   6
ATOM      6  C   UNL     1       6.983  -0.105  -2.202  1.00  0.00     0.047 C 
BRANCH   6   7
ATOM      7  C   UNL     1       6.487  -0.010  -0.817  1.00  0.00    -0.047 A 
ATOM      8  C   UNL     1       5.868   1.171  -0.424  1.00  0.00     0.004 A 
ATOM      9  C   UNL     1       6.594  -1.000   0.125  1.00  0.00     0.004 A 
ATOM     10  C   UNL     1       5.392   1.301   0.879  1.00  0.00     0.000 A 
ATOM     11  C   UNL     1       6.132  -0.901   1.422  1.00  0.00     0.000 A 
ATOM     12  C   UNL     1       5.522   0.284   1.784  1.00  0.00     0.000 A 
ENDBRANCH   6   7
ENDBRANCH   1   6
TORSDOF 4
ENDMDL
MODEL 3
REMARK VINA RESULT:      -7.2      0.607      1.082
REMARK SMILES O=C(O)CCc1ccccc1
REMARK SMILES IDX 4 1 2 2 1 3 3 4 5 6 6 7 7 8 11 9 8 10 10 11 9 12
REMARK H PARENT 3 5
REMARK Flexibility Score: inf
ROOT
ATOM      1  C   UNL     1       8.195  -0.799  -2.020  1.00  0.00     0.127 C 
ENDROOT
BRANCH   1   2
ATOM      2  C   UNL     1       8.360  -1.963  -2.908  1.00  0.00     0.303 C 
ATOM      3  O   UNL     1       9.511  -2.422  -3.098  1.00  0.00    -0.252 OA
BRANCH   2   4
ATOM      4  O   UNL     1       7.276  -2.554  -3.529  1.00  0.00    -0.481 OA
ATOM      5  H   UNL     1       7.092  -3.574  -3.512  1.00  0.00     0.296 HD
ENDBRANCH   2   4
ENDBRANCH   1   2
BRANCH   1   6
ATOM      6  C   UNL     1       7.443  -1.281  -0.785  1.00  0.00     0.047 C 
BRANCH   6   7
ATOM      7  C   UNL     1       6.590  -0.227  -0.208  1.00  0.00    -0.047 A 
ATOM      8  C   UNL     1       6.173  -0.372   1.110  1.00  0.00     0.004 A 
ATOM      9  C   UNL     1       6.165   0.893  -0.875  1.00  0.00     0.004 A 
ATOM     10  C   UNL     1       5.361   0.601   1.690  1.00  0.00     0.000 A 
ATOM     11  C   UNL     1       5.361   1.874  -0.329  1.00  0.00     0.000 A 
ATOM     12  C   UNL     1       4.962   1.702   0.982  1.00  0.00     0.000 A 
ENDBRANCH   6   7
ENDBRANCH   1   6
TORSDOF 4
ENDMDL
MODEL 4
REMARK VINA RESULT:      -6.8      3.367      5.088
REMARK SMILES O=C(O)CCc1ccccc1
REMARK SMILES IDX 4 1 2 2 1 3 3 4 5 6 6 7 7 8 11 9 8 10 10 11 9 12
REMARK H PARENT 3 5
REMARK Flexibility Score: inf
ROOT
ATOM      1  C   UNL     1       4.978   1.781   0.707  1.00  0.00     0.127 C 
ENDROOT
BRANCH   1   2
ATOM      2  C   UNL     1       4.465   1.117   1.919  1.00  0.00     0.303 C 
ATOM      3  O   UNL     1       5.161   0.226   2.460  1.00  0.00    -0.252 OA
BRANCH   2   4
ATOM      4  O   UNL     1       3.243   1.460   2.465  1.00  0.00    -0.481 OA
ATOM      5  H   UNL     1       2.353   1.439   1.934  1.00  0.00     0.296 HD
ENDBRANCH   2   4
ENDBRANCH   1   2
BRANCH   1   6
ATOM      6  C   UNL     1       6.500   1.751   0.789  1.00  0.00     0.047 C 
BRANCH   6   7
ATOM      7  C   UNL     1       7.101   0.981  -0.315  1.00  0.00    -0.047 A 
ATOM      8  C   UNL     1       8.427   1.235  -0.642  1.00  0.00     0.004 A 
ATOM      9  C   UNL     1       6.448   0.030  -1.055  1.00  0.00     0.004 A 
ATOM     10  C   UNL     1       9.029   0.531  -1.684  1.00  0.00     0.000 A 
ATOM     11  C   UNL     1       7.016  -0.683  -2.092  1.00  0.00     0.000 A 
ATOM     12  C   UNL     1       8.335  -0.409  -2.395  1.00  0.00     0.000 A 
ENDBRANCH   6   7
ENDBRANCH   1   6
TORSDOF 4
ENDMDL
MODEL 5
REMARK VINA RESULT:      -6.5      2.002      2.741
REMARK SMILES O=C(O)CCc1ccccc1
REMARK SMILES IDX 4 1 2 2 1 3 3 4 5 6 6 7 7 8 11 9 8 10 10 11 9 12
REMARK H PARENT 3 5
REMARK Flexibility Score: inf
ROOT
ATOM      1  C   UNL     1       7.866  -2.331   0.846  1.00  0.00     0.127 C 
ENDROOT
BRANCH   1   2
ATOM      2  C   UNL     1       8.737  -3.394   0.313  1.00  0.00     0.303 C 
ATOM      3  O   UNL     1       9.631  -3.870   1.051  1.00  0.00    -0.252 OA
BRANCH   2   4
ATOM      4  O   UNL     1       8.584  -3.871  -0.974  1.00  0.00    -0.481 OA
ATOM      5  H   UNL     1       9.002  -3.416  -1.807  1.00  0.00     0.296 HD
ENDBRANCH   2   4
ENDBRANCH   1   2
BRANCH   1   6
ATOM      6  C   UNL     1       7.497  -1.426  -0.323  1.00  0.00     0.047 C 
BRANCH   6   7
ATOM      7  C   UNL     1       6.605  -0.326   0.086  1.00  0.00    -0.047 A 
ATOM      8  C   UNL     1       6.336   0.676  -0.839  1.00  0.00     0.004 A 
ATOM      9  C   UNL     1       6.019  -0.207   1.320  1.00  0.00     0.004 A 
ATOM     10  C   UNL     1       5.503   1.736  -0.487  1.00  0.00     0.000 A 
ATOM     11  C   UNL     1       5.190   0.830   1.698  1.00  0.00     0.000 A 
ATOM     12  C   UNL     1       4.942   1.811   0.758  1.00  0.00     0.000 A 
ENDBRANCH   6   7
ENDBRANCH   1   6
TORSDOF 4
ENDMDL
