@<TRIPOS>MOLECULE
/home/cewinharhar/GITHUB/reincatalyze/data/processed/docking_pred/2023-Apr-25-1829_maxeplen10_maxtrainstep200_exh32_gamma099_lrac3e-4_lrcr1e-3/a7c8c9f10e55c2841f25afbe7e611a3f864293db_ligand_2.pdbqt
 12 12 0 0 0
SMALL
GASTEIGER

@<TRIPOS>ATOM
      1  C          8.1950   -0.7990   -2.0200 C.3     1  UNL1        0.1270
      2  C          8.3600   -1.9630   -2.9080 C.2     1  UNL1        0.3030
      3  O          9.5110   -2.4220   -3.0980 O.2     1  UNL1       -0.2520
      4  O          7.2760   -2.5540   -3.5290 O.3     1  UNL1       -0.4810
      5  H          7.0920   -3.5740   -3.5120 H       1  UNL1        0.2960
      6  C          7.4430   -1.2810   -0.7850 C.3     1  UNL1        0.0470
      7  C          6.5900   -0.2270   -0.2080 C.2     1  UNL1       -0.0470
      8  C          6.1730   -0.3720    1.1100 C.2     1  UNL1        0.0040
      9  C          6.1650    0.8930   -0.8750 C.2     1  UNL1        0.0040
     10  C          5.3610    0.6010    1.6900 C.2     1  UNL1        0.0000
     11  C          5.3610    1.8740   -0.3290 C.2     1  UNL1        0.0000
     12  C          4.9620    1.7020    0.9820 C.2     1  UNL1        0.0000
@<TRIPOS>BOND
     1     4     5    1
     2     4     2    1
     3     3     2    2
     4     2     1    1
     5     1     6    1
     6     9    11    1
     7     9     7    2
     8     6     7    1
     9    11    12    2
    10     7     8    1
    11    12    10    1
    12     8    10    2
