@<TRIPOS>MOLECULE
/home/cewinharhar/GITHUB/reincatalyze/data/processed/docking_pred/2023-Apr-25-1829_maxeplen10_maxtrainstep200_exh32_gamma099_lrac3e-4_lrcr1e-3/a7c8c9f10e55c2841f25afbe7e611a3f864293db_ligand_2.pdbqt
 12 12 0 0 0
SMALL
GASTEIGER

@<TRIPOS>ATOM
      1  C          8.4660   -0.6600   -2.1170 C.3     1  UNL1        0.1270
      2  C          8.4640   -1.9120   -2.8940 C.2     1  UNL1        0.3030
      3  O          9.5490   -2.5120   -3.0790 O.2     1  UNL1       -0.2520
      4  O          7.2960   -2.4320   -3.4180 O.3     1  UNL1       -0.4810
      5  H          6.4110   -1.8960   -3.4880 H       1  UNL1        0.2960
      6  C          7.0490   -0.1010   -2.1640 C.3     1  UNL1        0.0470
      7  C          6.4850    0.0990   -0.8170 C.2     1  UNL1       -0.0470
      8  C          6.6070   -0.9360    0.1020 C.2     1  UNL1        0.0040
      9  C          5.8380    1.2320   -0.3970 C.2     1  UNL1        0.0040
     10  C          6.0810   -0.7880    1.3840 C.2     1  UNL1        0.0000
     11  C          5.3070    1.4090    0.8650 C.2     1  UNL1        0.0000
     12  C          5.4430    0.3640    1.7570 C.2     1  UNL1        0.0000
@<TRIPOS>BOND
     1     5     4    1
     2     4     2    1
     3     3     2    2
     4     2     1    1
     5     6     1    1
     6     6     7    1
     7     7     9    2
     8     7     8    1
     9     9    11    1
    10     8    10    2
    11    11    12    2
    12    10    12    1
