@<TRIPOS>MOLECULE
/home/cewinharhar/GITHUB/reincatalyze/data/processed/docking_pred/2023-Apr-25-1829_maxeplen10_maxtrainstep200_exh32_gamma099_lrac3e-4_lrcr1e-3/a8cbf1bb962d04eb60783bb2dc55df042853f03a_ligand_2.pdbqt
 12 12 0 0 0
SMALL
GASTEIGER

@<TRIPOS>ATOM
      1  C          8.4250   -0.6550   -2.1060 C.3     1  UNL1        0.1270
      2  C          8.4040   -1.9070   -2.8840 C.2     1  UNL1        0.3030
      3  O          7.2980   -2.3950   -3.2150 O.2     1  UNL1       -0.2520
      4  O          9.5730   -2.5440   -3.2530 O.3     1  UNL1       -0.4810
      5  H          9.7020   -3.5720   -3.2140 H       1  UNL1        0.2960
      6  C          7.0110   -0.0850   -2.1370 C.3     1  UNL1        0.0470
      7  C          6.4590    0.1070   -0.7840 C.2     1  UNL1       -0.0470
      8  C          6.5870   -0.9340    0.1280 C.2     1  UNL1        0.0040
      9  C          5.8190    1.2390   -0.3510 C.2     1  UNL1        0.0040
     10  C          6.0720   -0.7920    1.4150 C.2     1  UNL1        0.0000
     11  C          5.2990    1.4100    0.9160 C.2     1  UNL1        0.0000
     12  C          5.4400    0.3580    1.8010 C.2     1  UNL1        0.0000
@<TRIPOS>BOND
     1     4     5    1
     2     4     2    1
     3     3     2    2
     4     2     1    1
     5     6     1    1
     6     6     7    1
     7     7     9    2
     8     7     8    1
     9     9    11    1
    10     8    10    2
    11    11    12    2
    12    10    12    1
