@<TRIPOS>MOLECULE
/home/cewinharhar/GITHUB/reincatalyze/data/processed/docking_pred/2023-Apr-25-1829_maxeplen10_maxtrainstep200_exh32_gamma099_lrac3e-4_lrcr1e-3/a8cbf1bb962d04eb60783bb2dc55df042853f03a_ligand_2.pdbqt
 12 12 0 0 0
SMALL
GASTEIGER

@<TRIPOS>ATOM
      1  C          8.2730   -0.8350   -1.9590 C.3     1  UNL1        0.1270
      2  C          8.3900   -1.9740   -2.8860 C.2     1  UNL1        0.3030
      3  O          9.5240   -2.4660   -3.1000 O.2     1  UNL1       -0.2520
      4  O          7.2820   -2.5070   -3.5160 O.3     1  UNL1       -0.4810
      5  H          7.0620   -3.5200   -3.5290 H       1  UNL1        0.2960
      6  C          7.4760   -1.3190   -0.7530 C.3     1  UNL1        0.0470
      7  C          6.6170   -0.2600   -0.1930 C.2     1  UNL1       -0.0470
      8  C          6.1780   -0.4000    1.1180 C.2     1  UNL1        0.0040
      9  C          6.2080    0.8590   -0.8710 C.2     1  UNL1        0.0040
     10  C          5.3590    0.5780    1.6810 C.2     1  UNL1        0.0000
     11  C          5.3990    1.8440   -0.3410 C.2     1  UNL1        0.0000
     12  C          4.9770    1.6780    0.9640 C.2     1  UNL1        0.0000
@<TRIPOS>BOND
     1     5     4    1
     2     4     2    1
     3     3     2    2
     4     2     1    1
     5     1     6    1
     6     9    11    1
     7     9     7    2
     8     6     7    1
     9    11    12    2
    10     7     8    1
    11    12    10    1
    12     8    10    2
