@<TRIPOS>MOLECULE
/home/cewinharhar/GITHUB/reincatalyze/data/processed/docking_pred/2023-Apr-25-1829_maxeplen10_maxtrainstep200_exh32_gamma099_lrac3e-4_lrcr1e-3/a8cbf1bb962d04eb60783bb2dc55df042853f03a_ligand_2.pdbqt
 12 12 0 0 0
SMALL
GASTEIGER

@<TRIPOS>ATOM
      1  C          4.9790    1.7800    0.7360 C.3     1  UNL1        0.1270
      2  C          4.4620    1.1040    1.9390 C.2     1  UNL1        0.3030
      3  O          5.1560    0.2080    2.4760 O.2     1  UNL1       -0.2520
      4  O          3.2370    1.4400    2.4830 O.3     1  UNL1       -0.4810
      5  H          2.4390    1.7930    1.9230 H       1  UNL1        0.2960
      6  C          6.4990    1.7990    0.8510 C.3     1  UNL1        0.0470
      7  C          7.1510    1.1130   -0.2780 C.2     1  UNL1       -0.0470
      8  C          6.3660    0.3090   -1.0960 C.2     1  UNL1        0.0040
      9  C          8.4840    1.2010   -0.5870 C.2     1  UNL1        0.0040
     10  C          6.9470   -0.3620   -2.1700 C.2     1  UNL1        0.0000
     11  C          9.0890    0.5500   -1.6440 C.2     1  UNL1        0.0000
     12  C          8.2840   -0.2430   -2.4380 C.2     1  UNL1        0.0000
@<TRIPOS>BOND
     1    12    10    2
     2    12    11    1
     3    10     8    1
     4    11     9    2
     5     8     7    2
     6     9     7    1
     7     7     6    1
     8     1     6    1
     9     1     2    1
    10     5     4    1
    11     2     3    2
    12     2     4    1
