@<TRIPOS>MOLECULE
/home/cewinharhar/GITHUB/reincatalyze/data/processed/docking_pred/2023-Apr-25-1829_maxeplen10_maxtrainstep200_exh32_gamma099_lrac3e-4_lrcr1e-3/a8cbf1bb962d04eb60783bb2dc55df042853f03a_ligand_2.pdbqt
 12 12 0 0 0
SMALL
GASTEIGER

@<TRIPOS>ATOM
      1  C          8.2740    0.2130   -2.1870 C.3     1  UNL1        0.1270
      2  C          9.3910    0.3760   -1.2410 C.2     1  UNL1        0.3030
      3  O          9.4640   -0.3910   -0.2520 O.2     1  UNL1       -0.2520
      4  O         10.3530    1.3510   -1.4240 O.3     1  UNL1       -0.4810
      5  H         10.2130    2.1910   -2.0150 H       1  UNL1        0.2960
      6  C          7.1930   -0.5880   -1.4700 C.3     1  UNL1        0.0470
      7  C          6.3800    0.2530   -0.5740 C.2     1  UNL1       -0.0470
      8  C          6.1440   -0.2050    0.7170 C.2     1  UNL1        0.0040
      9  C          5.8270    1.4600   -0.9170 C.2     1  UNL1        0.0040
     10  C          5.3740    0.5600    1.5920 C.2     1  UNL1        0.0000
     11  C          5.0610    2.2400   -0.0730 C.2     1  UNL1        0.0000
     12  C          4.8430    1.7590    1.2030 C.2     1  UNL1        0.0000
@<TRIPOS>BOND
     1     1     6    1
     2     1     2    1
     3     5     4    1
     4     6     7    1
     5     4     2    1
     6     2     3    2
     7     9     7    2
     8     9    11    1
     9     7     8    1
    10    11    12    2
    11     8    10    2
    12    12    10    1
