MODEL 1
REMARK VINA RESULT:      -7.3      0.000      0.000
REMARK SMILES O=C(O)CCc1ccccc1
REMARK SMILES IDX 4 1 2 2 1 3 3 4 5 6 6 7 7 8 11 9 8 10 10 11 9 12
REMARK H PARENT 3 5
REMARK Flexibility Score: inf
ROOT
ATOM      1  C   UNL     1       8.451  -0.680  -2.073  1.00  0.00     0.127 C 
ENDROOT
BRANCH   1   2
ATOM      2  C   UNL     1       8.408  -1.916  -2.873  1.00  0.00     0.303 C 
ATOM      3  O   UNL     1       7.293  -2.381  -3.210  1.00  0.00    -0.252 OA
BRANCH   2   4
ATOM      4  O   UNL     1       9.565  -2.567  -3.257  1.00  0.00    -0.481 OA
ATOM      5  H   UNL     1      10.198  -2.219  -4.001  1.00  0.00     0.296 HD
ENDBRANCH   2   4
ENDBRANCH   1   2
BRANCH   1   6
ATOM      6  C   UNL     1       7.047  -0.085  -2.092  1.00  0.00     0.047 C 
BRANCH   6   7
ATOM      7  C   UNL     1       6.480   0.044  -0.738  1.00  0.00    -0.047 A 
ATOM      8  C   UNL     1       5.832   1.229  -0.411  1.00  0.00     0.004 A 
ATOM      9  C   UNL     1       6.546  -0.919   0.236  1.00  0.00     0.004 A 
ATOM     10  C   UNL     1       5.288   1.391   0.862  1.00  0.00     0.000 A 
ATOM     11  C   UNL     1       6.017  -0.789   1.504  1.00  0.00     0.000 A 
ATOM     12  C   UNL     1       5.380   0.400   1.801  1.00  0.00     0.000 A 
ENDBRANCH   6   7
ENDBRANCH   1   6
TORSDOF 4
ENDMDL
MODEL 2
REMARK VINA RESULT:      -7.2      0.631      1.869
REMARK SMILES O=C(O)CCc1ccccc1
REMARK SMILES IDX 4 1 2 2 1 3 3 4 5 6 6 7 7 8 11 9 8 10 10 11 9 12
REMARK H PARENT 3 5
REMARK Flexibility Score: inf
ROOT
ATOM      1  C   UNL     1       8.273  -0.835  -1.959  1.00  0.00     0.127 C 
ENDROOT
BRANCH   1   2
ATOM      2  C   UNL     1       8.390  -1.974  -2.886  1.00  0.00     0.303 C 
ATOM      3  O   UNL     1       9.524  -2.466  -3.100  1.00  0.00    -0.252 OA
BRANCH   2   4
ATOM      4  O   UNL     1       7.282  -2.507  -3.516  1.00  0.00    -0.481 OA
ATOM      5  H   UNL     1       7.062  -3.520  -3.529  1.00  0.00     0.296 HD
ENDBRANCH   2   4
ENDBRANCH   1   2
BRANCH   1   6
ATOM      6  C   UNL     1       7.476  -1.319  -0.753  1.00  0.00     0.047 C 
BRANCH   6   7
ATOM      7  C   UNL     1       6.617  -0.260  -0.193  1.00  0.00    -0.047 A 
ATOM      8  C   UNL     1       6.178  -0.400   1.118  1.00  0.00     0.004 A 
ATOM      9  C   UNL     1       6.208   0.859  -0.871  1.00  0.00     0.004 A 
ATOM     10  C   UNL     1       5.359   0.578   1.681  1.00  0.00     0.000 A 
ATOM     11  C   UNL     1       5.399   1.844  -0.341  1.00  0.00     0.000 A 
ATOM     12  C   UNL     1       4.977   1.678   0.964  1.00  0.00     0.000 A 
ENDBRANCH   6   7
ENDBRANCH   1   6
TORSDOF 4
ENDMDL
MODEL 3
REMARK VINA RESULT:      -7.2      0.068      1.429
REMARK SMILES O=C(O)CCc1ccccc1
REMARK SMILES IDX 4 1 2 2 1 3 3 4 5 6 6 7 7 8 11 9 8 10 10 11 9 12
REMARK H PARENT 3 5
REMARK Flexibility Score: inf
ROOT
ATOM      1  C   UNL     1       8.425  -0.655  -2.106  1.00  0.00     0.127 C 
ENDROOT
BRANCH   1   2
ATOM      2  C   UNL     1       8.404  -1.907  -2.884  1.00  0.00     0.303 C 
ATOM      3  O   UNL     1       7.298  -2.395  -3.215  1.00  0.00    -0.252 OA
BRANCH   2   4
ATOM      4  O   UNL     1       9.573  -2.544  -3.253  1.00  0.00    -0.481 OA
ATOM      5  H   UNL     1       9.702  -3.572  -3.214  1.00  0.00     0.296 HD
ENDBRANCH   2   4
ENDBRANCH   1   2
BRANCH   1   6
ATOM      6  C   UNL     1       7.011  -0.085  -2.137  1.00  0.00     0.047 C 
BRANCH   6   7
ATOM      7  C   UNL     1       6.459   0.107  -0.784  1.00  0.00    -0.047 A 
ATOM      8  C   UNL     1       6.587  -0.934   0.128  1.00  0.00     0.004 A 
ATOM      9  C   UNL     1       5.819   1.239  -0.351  1.00  0.00     0.004 A 
ATOM     10  C   UNL     1       6.072  -0.792   1.415  1.00  0.00     0.000 A 
ATOM     11  C   UNL     1       5.299   1.410   0.916  1.00  0.00     0.000 A 
ATOM     12  C   UNL     1       5.440   0.358   1.801  1.00  0.00     0.000 A 
ENDBRANCH   6   7
ENDBRANCH   1   6
TORSDOF 4
ENDMDL
MODEL 4
REMARK VINA RESULT:      -6.8      3.306      5.172
REMARK SMILES O=C(O)CCc1ccccc1
REMARK SMILES IDX 4 1 2 2 1 3 3 4 5 6 6 7 7 8 11 9 8 10 10 11 9 12
REMARK H PARENT 3 5
REMARK Flexibility Score: inf
ROOT
ATOM      1  C   UNL     1       4.979   1.780   0.736  1.00  0.00     0.127 C 
ENDROOT
BRANCH   1   2
ATOM      2  C   UNL     1       4.462   1.104   1.939  1.00  0.00     0.303 C 
ATOM      3  O   UNL     1       5.156   0.208   2.476  1.00  0.00    -0.252 OA
BRANCH   2   4
ATOM      4  O   UNL     1       3.237   1.440   2.483  1.00  0.00    -0.481 OA
ATOM      5  H   UNL     1       2.439   1.793   1.923  1.00  0.00     0.296 HD
ENDBRANCH   2   4
ENDBRANCH   1   2
BRANCH   1   6
ATOM      6  C   UNL     1       6.499   1.799   0.851  1.00  0.00     0.047 C 
BRANCH   6   7
ATOM      7  C   UNL     1       7.151   1.113  -0.278  1.00  0.00    -0.047 A 
ATOM      8  C   UNL     1       6.366   0.309  -1.096  1.00  0.00     0.004 A 
ATOM      9  C   UNL     1       8.484   1.201  -0.587  1.00  0.00     0.004 A 
ATOM     10  C   UNL     1       6.947  -0.362  -2.170  1.00  0.00     0.000 A 
ATOM     11  C   UNL     1       9.089   0.550  -1.644  1.00  0.00     0.000 A 
ATOM     12  C   UNL     1       8.284  -0.243  -2.438  1.00  0.00     0.000 A 
ENDBRANCH   6   7
ENDBRANCH   1   6
TORSDOF 4
ENDMDL
MODEL 5
REMARK VINA RESULT:      -6.6      1.925      2.602
REMARK SMILES O=C(O)CCc1ccccc1
REMARK SMILES IDX 4 1 2 2 1 3 3 4 5 6 6 7 7 8 11 9 8 10 10 11 9 12
REMARK H PARENT 3 5
REMARK Flexibility Score: inf
ROOT
ATOM      1  C   UNL     1       8.274   0.213  -2.187  1.00  0.00     0.127 C 
ENDROOT
BRANCH   1   2
ATOM      2  C   UNL     1       9.391   0.376  -1.241  1.00  0.00     0.303 C 
ATOM      3  O   UNL     1       9.464  -0.391  -0.252  1.00  0.00    -0.252 OA
BRANCH   2   4
ATOM      4  O   UNL     1      10.353   1.351  -1.424  1.00  0.00    -0.481 OA
ATOM      5  H   UNL     1      10.213   2.191  -2.015  1.00  0.00     0.296 HD
ENDBRANCH   2   4
ENDBRANCH   1   2
BRANCH   1   6
ATOM      6  C   UNL     1       7.193  -0.588  -1.470  1.00  0.00     0.047 C 
BRANCH   6   7
ATOM      7  C   UNL     1       6.380   0.253  -0.574  1.00  0.00    -0.047 A 
ATOM      8  C   UNL     1       6.144  -0.205   0.717  1.00  0.00     0.004 A 
ATOM      9  C   UNL     1       5.827   1.460  -0.917  1.00  0.00     0.004 A 
ATOM     10  C   UNL     1       5.374   0.560   1.592  1.00  0.00     0.000 A 
ATOM     11  C   UNL     1       5.061   2.240  -0.073  1.00  0.00     0.000 A 
ATOM     12  C   UNL     1       4.843   1.759   1.203  1.00  0.00     0.000 A 
ENDBRANCH   6   7
ENDBRANCH   1   6
TORSDOF 4
ENDMDL
