@<TRIPOS>MOLECULE
/home/cewinharhar/GITHUB/reincatalyze/data/processed/docking_pred/2023-Apr-25-1829_maxeplen10_maxtrainstep200_exh32_gamma099_lrac3e-4_lrcr1e-3/a991e05863b38587be5f018959c733685726fb49_ligand_2.pdbqt
 12 12 0 0 0
SMALL
GASTEIGER

@<TRIPOS>ATOM
      1  C          8.4340   -0.6650   -2.1090 C.3     1  UNL1        0.1270
      2  C          8.4100   -1.9190   -2.8820 C.2     1  UNL1        0.3030
      3  O          7.3030   -2.4020   -3.2190 O.2     1  UNL1       -0.2520
      4  O          9.5770   -2.5660   -3.2410 O.3     1  UNL1       -0.4810
      5  H          9.9260   -3.4210   -2.7710 H       1  UNL1        0.2960
      6  C          7.0270   -0.0800   -2.1610 C.3     1  UNL1        0.0470
      7  C          6.4630    0.1310   -0.8160 C.2     1  UNL1       -0.0470
      8  C          6.6080   -0.8850    0.1200 C.2     1  UNL1        0.0040
      9  C          5.7950    1.2590   -0.4140 C.2     1  UNL1        0.0040
     10  C          6.0820   -0.7250    1.4010 C.2     1  UNL1        0.0000
     11  C          5.2630    1.4470    0.8470 C.2     1  UNL1        0.0000
     12  C          5.4220    0.4200    1.7560 C.2     1  UNL1        0.0000
@<TRIPOS>BOND
     1     4     2    1
     2     4     5    1
     3     3     2    2
     4     2     1    1
     5     6     1    1
     6     6     7    1
     7     7     9    2
     8     7     8    1
     9     9    11    1
    10     8    10    2
    11    11    12    2
    12    10    12    1
