@<TRIPOS>MOLECULE
/home/cewinharhar/GITHUB/reincatalyze/data/processed/docking_pred/2023-Apr-25-1829_maxeplen10_maxtrainstep200_exh32_gamma099_lrac3e-4_lrcr1e-3/a991e05863b38587be5f018959c733685726fb49_ligand_2.pdbqt
 12 12 0 0 0
SMALL
GASTEIGER

@<TRIPOS>ATOM
      1  C          8.1840    0.2310   -2.1640 C.3     1  UNL1        0.1270
      2  C          9.3270    0.3960   -1.2480 C.2     1  UNL1        0.3030
      3  O          9.4550   -0.4040   -0.2910 O.2     1  UNL1       -0.2520
      4  O         10.2520    1.4070   -1.4250 O.3     1  UNL1       -0.4810
      5  H         10.0350    2.4120   -1.2900 H       1  UNL1        0.2960
      6  C          7.1280   -0.5800   -1.4220 C.3     1  UNL1        0.0470
      7  C          6.3270    0.2550   -0.5090 C.2     1  UNL1       -0.0470
      8  C          6.1280   -0.2000    0.7890 C.2     1  UNL1        0.0040
      9  C          5.7510    1.4540   -0.8430 C.2     1  UNL1        0.0040
     10  C          5.3700    0.5580    1.6790 C.2     1  UNL1        0.0000
     11  C          4.9960    2.2280    0.0160 C.2     1  UNL1        0.0000
     12  C          4.8150    1.7490    1.2990 C.2     1  UNL1        0.0000
@<TRIPOS>BOND
     1     1     6    1
     2     1     2    1
     3     4     5    1
     4     4     2    1
     5     6     7    1
     6     2     3    2
     7     9     7    2
     8     9    11    1
     9     7     8    1
    10    11    12    2
    11     8    10    2
    12    12    10    1
