MODEL 1
REMARK VINA RESULT:      -7.3      0.000      0.000
REMARK SMILES O=C(O)CCc1ccccc1
REMARK SMILES IDX 4 1 2 2 1 3 3 4 5 6 6 7 7 8 11 9 8 10 10 11 9 12
REMARK H PARENT 3 5
REMARK Flexibility Score: inf
ROOT
ATOM      1  C   UNL     1       8.444  -0.580  -2.237  1.00  0.00     0.127 C 
ENDROOT
BRANCH   1   2
ATOM      2  C   UNL     1       8.468  -1.890  -2.911  1.00  0.00     0.303 C 
ATOM      3  O   UNL     1       9.564  -2.486  -3.036  1.00  0.00    -0.252 OA
BRANCH   2   4
ATOM      4  O   UNL     1       7.314  -2.469  -3.402  1.00  0.00    -0.481 OA
ATOM      5  H   UNL     1       6.714  -2.028  -4.124  1.00  0.00     0.296 HD
ENDBRANCH   2   4
ENDBRANCH   1   2
BRANCH   1   6
ATOM      6  C   UNL     1       6.989  -0.127  -2.190  1.00  0.00     0.047 C 
BRANCH   6   7
ATOM      7  C   UNL     1       6.484  -0.019  -0.810  1.00  0.00    -0.047 A 
ATOM      8  C   UNL     1       5.859   1.163  -0.433  1.00  0.00     0.004 A 
ATOM      9  C   UNL     1       6.587  -1.000   0.143  1.00  0.00     0.004 A 
ATOM     10  C   UNL     1       5.374   1.306   0.866  1.00  0.00     0.000 A 
ATOM     11  C   UNL     1       6.117  -0.889   1.436  1.00  0.00     0.000 A 
ATOM     12  C   UNL     1       5.502   0.298   1.782  1.00  0.00     0.000 A 
ENDBRANCH   6   7
ENDBRANCH   1   6
TORSDOF 4
ENDMDL
MODEL 2
REMARK VINA RESULT:      -7.2      0.152      1.730
REMARK SMILES O=C(O)CCc1ccccc1
REMARK SMILES IDX 4 1 2 2 1 3 3 4 5 6 6 7 7 8 11 9 8 10 10 11 9 12
REMARK H PARENT 3 5
REMARK Flexibility Score: inf
ROOT
ATOM      1  C   UNL     1       8.434  -0.665  -2.109  1.00  0.00     0.127 C 
ENDROOT
BRANCH   1   2
ATOM      2  C   UNL     1       8.410  -1.919  -2.882  1.00  0.00     0.303 C 
ATOM      3  O   UNL     1       7.303  -2.402  -3.219  1.00  0.00    -0.252 OA
BRANCH   2   4
ATOM      4  O   UNL     1       9.577  -2.566  -3.241  1.00  0.00    -0.481 OA
ATOM      5  H   UNL     1       9.926  -3.421  -2.771  1.00  0.00     0.296 HD
ENDBRANCH   2   4
ENDBRANCH   1   2
BRANCH   1   6
ATOM      6  C   UNL     1       7.027  -0.080  -2.161  1.00  0.00     0.047 C 
BRANCH   6   7
ATOM      7  C   UNL     1       6.463   0.131  -0.816  1.00  0.00    -0.047 A 
ATOM      8  C   UNL     1       6.608  -0.885   0.120  1.00  0.00     0.004 A 
ATOM      9  C   UNL     1       5.795   1.259  -0.414  1.00  0.00     0.004 A 
ATOM     10  C   UNL     1       6.082  -0.725   1.401  1.00  0.00     0.000 A 
ATOM     11  C   UNL     1       5.263   1.447   0.847  1.00  0.00     0.000 A 
ATOM     12  C   UNL     1       5.422   0.420   1.756  1.00  0.00     0.000 A 
ENDBRANCH   6   7
ENDBRANCH   1   6
TORSDOF 4
ENDMDL
MODEL 3
REMARK VINA RESULT:      -6.8      3.388      5.091
REMARK SMILES O=C(O)CCc1ccccc1
REMARK SMILES IDX 4 1 2 2 1 3 3 4 5 6 6 7 7 8 11 9 8 10 10 11 9 12
REMARK H PARENT 3 5
REMARK Flexibility Score: inf
ROOT
ATOM      1  C   UNL     1       4.974   1.760   0.722  1.00  0.00     0.127 C 
ENDROOT
BRANCH   1   2
ATOM      2  C   UNL     1       4.456   1.101   1.934  1.00  0.00     0.303 C 
ATOM      3  O   UNL     1       5.144   0.204   2.476  1.00  0.00    -0.252 OA
BRANCH   2   4
ATOM      4  O   UNL     1       3.236   1.453   2.479  1.00  0.00    -0.481 OA
ATOM      5  H   UNL     1       2.330   1.315   1.993  1.00  0.00     0.296 HD
ENDBRANCH   2   4
ENDBRANCH   1   2
BRANCH   1   6
ATOM      6  C   UNL     1       6.493   1.786   0.840  1.00  0.00     0.047 C 
BRANCH   6   7
ATOM      7  C   UNL     1       7.150   1.093  -0.282  1.00  0.00    -0.047 A 
ATOM      8  C   UNL     1       6.381   0.240  -1.064  1.00  0.00     0.004 A 
ATOM      9  C   UNL     1       8.474   1.220  -0.616  1.00  0.00     0.004 A 
ATOM     10  C   UNL     1       6.968  -0.438  -2.131  1.00  0.00     0.000 A 
ATOM     11  C   UNL     1       9.084   0.563  -1.666  1.00  0.00     0.000 A 
ATOM     12  C   UNL     1       8.295  -0.279  -2.425  1.00  0.00     0.000 A 
ENDBRANCH   6   7
ENDBRANCH   1   6
TORSDOF 4
ENDMDL
MODEL 4
REMARK VINA RESULT:      -6.6      2.000      2.752
REMARK SMILES O=C(O)CCc1ccccc1
REMARK SMILES IDX 4 1 2 2 1 3 3 4 5 6 6 7 7 8 11 9 8 10 10 11 9 12
REMARK H PARENT 3 5
REMARK Flexibility Score: inf
ROOT
ATOM      1  C   UNL     1       8.063  -2.161   0.822  1.00  0.00     0.127 C 
ENDROOT
BRANCH   1   2
ATOM      2  C   UNL     1       8.784  -3.341   0.310  1.00  0.00     0.303 C 
ATOM      3  O   UNL     1       9.615  -3.912   1.055  1.00  0.00    -0.252 OA
BRANCH   2   4
ATOM      4  O   UNL     1       8.560  -3.824  -0.964  1.00  0.00    -0.481 OA
ATOM      5  H   UNL     1       9.307  -4.212  -1.570  1.00  0.00     0.296 HD
ENDBRANCH   2   4
ENDBRANCH   1   2
BRANCH   1   6
ATOM      6  C   UNL     1       7.495  -1.425  -0.386  1.00  0.00     0.047 C 
BRANCH   6   7
ATOM      7  C   UNL     1       6.621  -0.305   0.006  1.00  0.00    -0.047 A 
ATOM      8  C   UNL     1       6.090  -0.309   1.290  1.00  0.00     0.004 A 
ATOM      9  C   UNL     1       6.282   0.747  -0.804  1.00  0.00     0.004 A 
ATOM     10  C   UNL     1       5.254   0.729   1.696  1.00  0.00     0.000 A 
ATOM     11  C   UNL     1       5.458   1.790  -0.431  1.00  0.00     0.000 A 
ATOM     12  C   UNL     1       4.944   1.759   0.850  1.00  0.00     0.000 A 
ENDBRANCH   6   7
ENDBRANCH   1   6
TORSDOF 4
ENDMDL
MODEL 5
REMARK VINA RESULT:      -6.6      1.919      2.664
REMARK SMILES O=C(O)CCc1ccccc1
REMARK SMILES IDX 4 1 2 2 1 3 3 4 5 6 6 7 7 8 11 9 8 10 10 11 9 12
REMARK H PARENT 3 5
REMARK Flexibility Score: inf
ROOT
ATOM      1  C   UNL     1       8.184   0.231  -2.164  1.00  0.00     0.127 C 
ENDROOT
BRANCH   1   2
ATOM      2  C   UNL     1       9.327   0.396  -1.248  1.00  0.00     0.303 C 
ATOM      3  O   UNL     1       9.455  -0.404  -0.291  1.00  0.00    -0.252 OA
BRANCH   2   4
ATOM      4  O   UNL     1      10.252   1.407  -1.425  1.00  0.00    -0.481 OA
ATOM      5  H   UNL     1      10.035   2.412  -1.290  1.00  0.00     0.296 HD
ENDBRANCH   2   4
ENDBRANCH   1   2
BRANCH   1   6
ATOM      6  C   UNL     1       7.128  -0.580  -1.422  1.00  0.00     0.047 C 
BRANCH   6   7
ATOM      7  C   UNL     1       6.327   0.255  -0.509  1.00  0.00    -0.047 A 
ATOM      8  C   UNL     1       6.128  -0.200   0.789  1.00  0.00     0.004 A 
ATOM      9  C   UNL     1       5.751   1.454  -0.843  1.00  0.00     0.004 A 
ATOM     10  C   UNL     1       5.370   0.558   1.679  1.00  0.00     0.000 A 
ATOM     11  C   UNL     1       4.996   2.228   0.016  1.00  0.00     0.000 A 
ATOM     12  C   UNL     1       4.815   1.749   1.299  1.00  0.00     0.000 A 
ENDBRANCH   6   7
ENDBRANCH   1   6
TORSDOF 4
ENDMDL
