@<TRIPOS>MOLECULE
/home/cewinharhar/GITHUB/reincatalyze/data/processed/docking_pred/2023-Apr-25-1829_maxeplen10_maxtrainstep200_exh32_gamma099_lrac3e-4_lrcr1e-3/a991e05863b38587be5f018959c733685726fb49_ligand_2.pdbqt
 12 12 0 0 0
SMALL
GASTEIGER

@<TRIPOS>ATOM
      1  C          8.0630   -2.1610    0.8220 C.3     1  UNL1        0.1270
      2  C          8.7840   -3.3410    0.3100 C.2     1  UNL1        0.3030
      3  O          9.6150   -3.9120    1.0550 O.2     1  UNL1       -0.2520
      4  O          8.5600   -3.8240   -0.9640 O.3     1  UNL1       -0.4810
      5  H          9.3070   -4.2120   -1.5700 H       1  UNL1        0.2960
      6  C          7.4950   -1.4250   -0.3860 C.3     1  UNL1        0.0470
      7  C          6.6210   -0.3050    0.0060 C.2     1  UNL1       -0.0470
      8  C          6.0900   -0.3090    1.2900 C.2     1  UNL1        0.0040
      9  C          6.2820    0.7470   -0.8040 C.2     1  UNL1        0.0040
     10  C          5.2540    0.7290    1.6960 C.2     1  UNL1        0.0000
     11  C          5.4580    1.7900   -0.4310 C.2     1  UNL1        0.0000
     12  C          4.9440    1.7590    0.8500 C.2     1  UNL1        0.0000
@<TRIPOS>BOND
     1     5     4    1
     2     4     2    1
     3     9    11    1
     4     9     7    2
     5    11    12    2
     6     6     7    1
     7     6     1    1
     8     7     8    1
     9     2     1    1
    10     2     3    2
    11    12    10    1
    12     8    10    2
