@<TRIPOS>MOLECULE
/home/cewinharhar/GITHUB/reincatalyze/data/processed/docking_pred/2023-Apr-25-1829_maxeplen10_maxtrainstep200_exh32_gamma099_lrac3e-4_lrcr1e-3/a991e05863b38587be5f018959c733685726fb49_ligand_2.pdbqt
 12 12 0 0 0
SMALL
GASTEIGER

@<TRIPOS>ATOM
      1  C          8.4440   -0.5800   -2.2370 C.3     1  UNL1        0.1270
      2  C          8.4680   -1.8900   -2.9110 C.2     1  UNL1        0.3030
      3  O          9.5640   -2.4860   -3.0360 O.2     1  UNL1       -0.2520
      4  O          7.3140   -2.4690   -3.4020 O.3     1  UNL1       -0.4810
      5  H          6.7140   -2.0280   -4.1240 H       1  UNL1        0.2960
      6  C          6.9890   -0.1270   -2.1900 C.3     1  UNL1        0.0470
      7  C          6.4840   -0.0190   -0.8100 C.2     1  UNL1       -0.0470
      8  C          5.8590    1.1630   -0.4330 C.2     1  UNL1        0.0040
      9  C          6.5870   -1.0000    0.1430 C.2     1  UNL1        0.0040
     10  C          5.3740    1.3060    0.8660 C.2     1  UNL1        0.0000
     11  C          6.1170   -0.8890    1.4360 C.2     1  UNL1        0.0000
     12  C          5.5020    0.2980    1.7820 C.2     1  UNL1        0.0000
@<TRIPOS>BOND
     1     5     4    1
     2     4     2    1
     3     3     2    2
     4     2     1    1
     5     1     6    1
     6     6     7    1
     7     7     8    2
     8     7     9    1
     9     8    10    1
    10     9    11    2
    11    10    12    2
    12    11    12    1
