@<TRIPOS>MOLECULE
/home/cewinharhar/GITHUB/reincatalyze/data/processed/docking_pred/2023-Apr-25-1829_maxeplen10_maxtrainstep200_exh32_gamma099_lrac3e-4_lrcr1e-3/ab317eb7565d030be4138c7249420e244018cf00_ligand_2.pdbqt
 12 12 0 0 0
SMALL
GASTEIGER

@<TRIPOS>ATOM
      1  C          4.9320    1.6980    0.6910 C.3     1  UNL1        0.1270
      2  C          4.4400    1.0710    1.9310 C.2     1  UNL1        0.3030
      3  O          5.1400    0.1900    2.4820 O.2     1  UNL1       -0.2520
      4  O          3.2310    1.4360    2.4910 O.3     1  UNL1       -0.4810
      5  H          2.3520    1.5300    1.9480 H       1  UNL1        0.2960
      6  C          6.4500    1.7760    0.8010 C.3     1  UNL1        0.0470
      7  C          7.1240    1.0500   -0.2900 C.2     1  UNL1       -0.0470
      8  C          6.3790    0.1340   -1.0240 C.2     1  UNL1        0.0040
      9  C          8.4410    1.2020   -0.6380 C.2     1  UNL1        0.0040
     10  C          6.9830   -0.5770   -2.0590 C.2     1  UNL1        0.0000
     11  C          9.0680    0.5140   -1.6580 C.2     1  UNL1        0.0000
     12  C          8.3020   -0.3900   -2.3690 C.2     1  UNL1        0.0000
@<TRIPOS>BOND
     1    12    10    2
     2    12    11    1
     3    10     8    1
     4    11     9    2
     5     8     7    2
     6     9     7    1
     7     7     6    1
     8     1     6    1
     9     1     2    1
    10     2     3    2
    11     2     4    1
    12     5     4    1
