@<TRIPOS>MOLECULE
/home/cewinharhar/GITHUB/reincatalyze/data/processed/docking_pred/2023-Apr-25-1829_maxeplen10_maxtrainstep200_exh32_gamma099_lrac3e-4_lrcr1e-3/ab317eb7565d030be4138c7249420e244018cf00_ligand_2.pdbqt
 12 12 0 0 0
SMALL
GASTEIGER

@<TRIPOS>ATOM
      1  C          8.2510   -0.8870   -1.9040 C.3     1  UNL1        0.1270
      2  C          8.3140   -1.9850   -2.8840 C.2     1  UNL1        0.3030
      3  O          7.2450   -2.4280   -3.3660 O.2     1  UNL1       -0.2520
      4  O          9.5210   -2.5290   -3.2790 O.3     1  UNL1       -0.4810
      5  H          9.8820   -3.4370   -2.9310 H       1  UNL1        0.2960
      6  C          7.4590   -1.4000   -0.7060 C.3     1  UNL1        0.0470
      7  C          6.5850   -0.3620   -0.1320 C.2     1  UNL1       -0.0470
      8  C          6.0360   -0.5910    1.1230 C.2     1  UNL1        0.0040
      9  C          6.2630    0.8210   -0.7470 C.2     1  UNL1        0.0040
     10  C          5.1990    0.3650    1.6970 C.2     1  UNL1        0.0000
     11  C          5.4370    1.7870   -0.2050 C.2     1  UNL1        0.0000
     12  C          4.9060    1.5310    1.0440 C.2     1  UNL1        0.0000
@<TRIPOS>BOND
     1     3     2    2
     2     4     5    1
     3     4     2    1
     4     2     1    1
     5     1     6    1
     6     9    11    1
     7     9     7    2
     8     6     7    1
     9    11    12    2
    10     7     8    1
    11    12    10    1
    12     8    10    2
