MODEL 1
REMARK VINA RESULT:      -7.3      0.000      0.000
REMARK SMILES O=C(O)CCc1ccccc1
REMARK SMILES IDX 4 1 2 2 1 3 3 4 5 6 6 7 7 8 11 9 8 10 10 11 9 12
REMARK H PARENT 3 5
REMARK Flexibility Score: inf
ROOT
ATOM      1  C   UNL     1       8.380  -1.000  -1.754  1.00  0.00     0.127 C 
ENDROOT
BRANCH   1   2
ATOM      2  C   UNL     1       8.400  -2.032  -2.806  1.00  0.00     0.303 C 
ATOM      3  O   UNL     1       9.498  -2.538  -3.136  1.00  0.00    -0.252 OA
BRANCH   2   4
ATOM      4  O   UNL     1       7.239  -2.448  -3.428  1.00  0.00    -0.481 OA
ATOM      5  H   UNL     1       6.828  -1.972  -4.253  1.00  0.00     0.296 HD
ENDBRANCH   2   4
ENDBRANCH   1   2
BRANCH   1   6
ATOM      6  C   UNL     1       7.082  -0.217  -1.918  1.00  0.00     0.047 C 
BRANCH   6   7
ATOM      7  C   UNL     1       6.410   0.021  -0.629  1.00  0.00    -0.047 A 
ATOM      8  C   UNL     1       5.777   1.244  -0.438  1.00  0.00     0.004 A 
ATOM      9  C   UNL     1       6.363  -0.873   0.410  1.00  0.00     0.004 A 
ATOM     10  C   UNL     1       5.136   1.509   0.770  1.00  0.00     0.000 A 
ATOM     11  C   UNL     1       5.736  -0.639   1.617  1.00  0.00     0.000 A 
ATOM     12  C   UNL     1       5.117   0.585   1.778  1.00  0.00     0.000 A 
ENDBRANCH   6   7
ENDBRANCH   1   6
TORSDOF 4
ENDMDL
MODEL 2
REMARK VINA RESULT:      -7.2      0.272      1.005
REMARK SMILES O=C(O)CCc1ccccc1
REMARK SMILES IDX 4 1 2 2 1 3 3 4 5 6 6 7 7 8 11 9 8 10 10 11 9 12
REMARK H PARENT 3 5
REMARK Flexibility Score: inf
ROOT
ATOM      1  C   UNL     1       8.431  -0.666  -2.087  1.00  0.00     0.127 C 
ENDROOT
BRANCH   1   2
ATOM      2  C   UNL     1       8.390  -1.919  -2.861  1.00  0.00     0.303 C 
ATOM      3  O   UNL     1       7.277  -2.375  -3.215  1.00  0.00    -0.252 OA
BRANCH   2   4
ATOM      4  O   UNL     1       9.546  -2.594  -3.201  1.00  0.00    -0.481 OA
ATOM      5  H   UNL     1      10.275  -2.864  -2.515  1.00  0.00     0.296 HD
ENDBRANCH   2   4
ENDBRANCH   1   2
BRANCH   1   6
ATOM      6  C   UNL     1       7.022  -0.085  -2.099  1.00  0.00     0.047 C 
BRANCH   6   7
ATOM      7  C   UNL     1       6.444   0.000  -0.747  1.00  0.00    -0.047 A 
ATOM      8  C   UNL     1       5.794   1.174  -0.386  1.00  0.00     0.004 A 
ATOM      9  C   UNL     1       6.501  -0.994   0.195  1.00  0.00     0.004 A 
ATOM     10  C   UNL     1       5.240   1.295   0.887  1.00  0.00     0.000 A 
ATOM     11  C   UNL     1       5.962  -0.906   1.463  1.00  0.00     0.000 A 
ATOM     12  C   UNL     1       5.323   0.274   1.794  1.00  0.00     0.000 A 
ENDBRANCH   6   7
ENDBRANCH   1   6
TORSDOF 4
ENDMDL
MODEL 3
REMARK VINA RESULT:      -7.2      0.279      1.738
REMARK SMILES O=C(O)CCc1ccccc1
REMARK SMILES IDX 4 1 2 2 1 3 3 4 5 6 6 7 7 8 11 9 8 10 10 11 9 12
REMARK H PARENT 3 5
REMARK Flexibility Score: inf
ROOT
ATOM      1  C   UNL     1       8.416  -0.689  -2.038  1.00  0.00     0.127 C 
ENDROOT
BRANCH   1   2
ATOM      2  C   UNL     1       8.390  -1.915  -2.856  1.00  0.00     0.303 C 
ATOM      3  O   UNL     1       7.282  -2.383  -3.209  1.00  0.00    -0.252 OA
BRANCH   2   4
ATOM      4  O   UNL     1       9.556  -2.549  -3.239  1.00  0.00    -0.481 OA
ATOM      5  H   UNL     1      10.325  -2.780  -2.583  1.00  0.00     0.296 HD
ENDBRANCH   2   4
ENDBRANCH   1   2
BRANCH   1   6
ATOM      6  C   UNL     1       7.019  -0.083  -2.094  1.00  0.00     0.047 C 
BRANCH   6   7
ATOM      7  C   UNL     1       6.426   0.073  -0.754  1.00  0.00    -0.047 A 
ATOM      8  C   UNL     1       6.529  -0.991   0.134  1.00  0.00     0.004 A 
ATOM      9  C   UNL     1       5.770   1.192  -0.311  1.00  0.00     0.004 A 
ATOM     10  C   UNL     1       5.975  -0.884   1.408  1.00  0.00     0.000 A 
ATOM     11  C   UNL     1       5.211   1.329   0.944  1.00  0.00     0.000 A 
ATOM     12  C   UNL     1       5.328   0.255   1.805  1.00  0.00     0.000 A 
ENDBRANCH   6   7
ENDBRANCH   1   6
TORSDOF 4
ENDMDL
MODEL 4
REMARK VINA RESULT:      -7.1      0.612      1.832
REMARK SMILES O=C(O)CCc1ccccc1
REMARK SMILES IDX 4 1 2 2 1 3 3 4 5 6 6 7 7 8 11 9 8 10 10 11 9 12
REMARK H PARENT 3 5
REMARK Flexibility Score: inf
ROOT
ATOM      1  C   UNL     1       8.251  -0.887  -1.904  1.00  0.00     0.127 C 
ENDROOT
BRANCH   1   2
ATOM      2  C   UNL     1       8.314  -1.985  -2.884  1.00  0.00     0.303 C 
ATOM      3  O   UNL     1       7.245  -2.428  -3.366  1.00  0.00    -0.252 OA
BRANCH   2   4
ATOM      4  O   UNL     1       9.521  -2.529  -3.279  1.00  0.00    -0.481 OA
ATOM      5  H   UNL     1       9.882  -3.437  -2.931  1.00  0.00     0.296 HD
ENDBRANCH   2   4
ENDBRANCH   1   2
BRANCH   1   6
ATOM      6  C   UNL     1       7.459  -1.400  -0.706  1.00  0.00     0.047 C 
BRANCH   6   7
ATOM      7  C   UNL     1       6.585  -0.362  -0.132  1.00  0.00    -0.047 A 
ATOM      8  C   UNL     1       6.036  -0.591   1.123  1.00  0.00     0.004 A 
ATOM      9  C   UNL     1       6.263   0.821  -0.747  1.00  0.00     0.004 A 
ATOM     10  C   UNL     1       5.199   0.365   1.697  1.00  0.00     0.000 A 
ATOM     11  C   UNL     1       5.437   1.787  -0.205  1.00  0.00     0.000 A 
ATOM     12  C   UNL     1       4.906   1.531   1.044  1.00  0.00     0.000 A 
ENDBRANCH   6   7
ENDBRANCH   1   6
TORSDOF 4
ENDMDL
MODEL 5
REMARK VINA RESULT:      -6.9      3.386      5.129
REMARK SMILES O=C(O)CCc1ccccc1
REMARK SMILES IDX 4 1 2 2 1 3 3 4 5 6 6 7 7 8 11 9 8 10 10 11 9 12
REMARK H PARENT 3 5
REMARK Flexibility Score: inf
ROOT
ATOM      1  C   UNL     1       4.932   1.698   0.691  1.00  0.00     0.127 C 
ENDROOT
BRANCH   1   2
ATOM      2  C   UNL     1       4.440   1.071   1.931  1.00  0.00     0.303 C 
ATOM      3  O   UNL     1       5.140   0.190   2.482  1.00  0.00    -0.252 OA
BRANCH   2   4
ATOM      4  O   UNL     1       3.231   1.436   2.491  1.00  0.00    -0.481 OA
ATOM      5  H   UNL     1       2.352   1.530   1.948  1.00  0.00     0.296 HD
ENDBRANCH   2   4
ENDBRANCH   1   2
BRANCH   1   6
ATOM      6  C   UNL     1       6.450   1.776   0.801  1.00  0.00     0.047 C 
BRANCH   6   7
ATOM      7  C   UNL     1       7.124   1.050  -0.290  1.00  0.00    -0.047 A 
ATOM      8  C   UNL     1       6.379   0.134  -1.024  1.00  0.00     0.004 A 
ATOM      9  C   UNL     1       8.441   1.202  -0.638  1.00  0.00     0.004 A 
ATOM     10  C   UNL     1       6.983  -0.577  -2.059  1.00  0.00     0.000 A 
ATOM     11  C   UNL     1       9.068   0.514  -1.658  1.00  0.00     0.000 A 
ATOM     12  C   UNL     1       8.302  -0.390  -2.369  1.00  0.00     0.000 A 
ENDBRANCH   6   7
ENDBRANCH   1   6
TORSDOF 4
ENDMDL
