@<TRIPOS>MOLECULE
/home/cewinharhar/GITHUB/reincatalyze/data/processed/docking_pred/2023-Apr-25-1829_maxeplen10_maxtrainstep200_exh32_gamma099_lrac3e-4_lrcr1e-3/ab317eb7565d030be4138c7249420e244018cf00_ligand_2.pdbqt
 12 12 0 0 0
SMALL
GASTEIGER

@<TRIPOS>ATOM
      1  C          8.3800   -1.0000   -1.7540 C.3     1  UNL1        0.1270
      2  C          8.4000   -2.0320   -2.8060 C.2     1  UNL1        0.3030
      3  O          9.4980   -2.5380   -3.1360 O.2     1  UNL1       -0.2520
      4  O          7.2390   -2.4480   -3.4280 O.3     1  UNL1       -0.4810
      5  H          6.8280   -1.9720   -4.2530 H       1  UNL1        0.2960
      6  C          7.0820   -0.2170   -1.9180 C.3     1  UNL1        0.0470
      7  C          6.4100    0.0210   -0.6290 C.2     1  UNL1       -0.0470
      8  C          5.7770    1.2440   -0.4380 C.2     1  UNL1        0.0040
      9  C          6.3630   -0.8730    0.4100 C.2     1  UNL1        0.0040
     10  C          5.1360    1.5090    0.7700 C.2     1  UNL1        0.0000
     11  C          5.7360   -0.6390    1.6170 C.2     1  UNL1        0.0000
     12  C          5.1170    0.5850    1.7780 C.2     1  UNL1        0.0000
@<TRIPOS>BOND
     1     5     4    1
     2     4     2    1
     3     3     2    2
     4     2     1    1
     5     6     1    1
     6     6     7    1
     7     7     8    2
     8     7     9    1
     9     8    10    1
    10     9    11    2
    11    10    12    2
    12    11    12    1
