@<TRIPOS>MOLECULE
/home/cewinharhar/GITHUB/reincatalyze/data/processed/docking_pred/2023-Apr-25-1829_maxeplen10_maxtrainstep200_exh32_gamma099_lrac3e-4_lrcr1e-3/ab317eb7565d030be4138c7249420e244018cf00_ligand_2.pdbqt
 12 12 0 0 0
SMALL
GASTEIGER

@<TRIPOS>ATOM
      1  C          8.4310   -0.6660   -2.0870 C.3     1  UNL1        0.1270
      2  C          8.3900   -1.9190   -2.8610 C.2     1  UNL1        0.3030
      3  O          7.2770   -2.3750   -3.2150 O.2     1  UNL1       -0.2520
      4  O          9.5460   -2.5940   -3.2010 O.3     1  UNL1       -0.4810
      5  H         10.2750   -2.8640   -2.5150 H       1  UNL1        0.2960
      6  C          7.0220   -0.0850   -2.0990 C.3     1  UNL1        0.0470
      7  C          6.4440    0.0000   -0.7470 C.2     1  UNL1       -0.0470
      8  C          5.7940    1.1740   -0.3860 C.2     1  UNL1        0.0040
      9  C          6.5010   -0.9940    0.1950 C.2     1  UNL1        0.0040
     10  C          5.2400    1.2950    0.8870 C.2     1  UNL1        0.0000
     11  C          5.9620   -0.9060    1.4630 C.2     1  UNL1        0.0000
     12  C          5.3230    0.2740    1.7940 C.2     1  UNL1        0.0000
@<TRIPOS>BOND
     1     3     2    2
     2     4     2    1
     3     4     5    1
     4     2     1    1
     5     6     1    1
     6     6     7    1
     7     7     8    2
     8     7     9    1
     9     8    10    1
    10     9    11    2
    11    10    12    2
    12    11    12    1
