@<TRIPOS>MOLECULE
/home/cewinharhar/GITHUB/reincatalyze/data/processed/docking_pred/2023-Apr-25-1829_maxeplen10_maxtrainstep200_exh32_gamma099_lrac3e-4_lrcr1e-3/ab317eb7565d030be4138c7249420e244018cf00_ligand_2.pdbqt
 12 12 0 0 0
SMALL
GASTEIGER

@<TRIPOS>ATOM
      1  C          8.4160   -0.6890   -2.0380 C.3     1  UNL1        0.1270
      2  C          8.3900   -1.9150   -2.8560 C.2     1  UNL1        0.3030
      3  O          7.2820   -2.3830   -3.2090 O.2     1  UNL1       -0.2520
      4  O          9.5560   -2.5490   -3.2390 O.3     1  UNL1       -0.4810
      5  H         10.3250   -2.7800   -2.5830 H       1  UNL1        0.2960
      6  C          7.0190   -0.0830   -2.0940 C.3     1  UNL1        0.0470
      7  C          6.4260    0.0730   -0.7540 C.2     1  UNL1       -0.0470
      8  C          6.5290   -0.9910    0.1340 C.2     1  UNL1        0.0040
      9  C          5.7700    1.1920   -0.3110 C.2     1  UNL1        0.0040
     10  C          5.9750   -0.8840    1.4080 C.2     1  UNL1        0.0000
     11  C          5.2110    1.3290    0.9440 C.2     1  UNL1        0.0000
     12  C          5.3280    0.2550    1.8050 C.2     1  UNL1        0.0000
@<TRIPOS>BOND
     1     4     2    1
     2     4     5    1
     3     3     2    2
     4     2     1    1
     5     6     1    1
     6     6     7    1
     7     7     9    2
     8     7     8    1
     9     9    11    1
    10     8    10    2
    11    11    12    2
    12    10    12    1
