@<TRIPOS>MOLECULE
/home/cewinharhar/GITHUB/reincatalyze/data/processed/docking_pred/2023-Apr-25-1829_maxeplen10_maxtrainstep200_exh32_gamma099_lrac3e-4_lrcr1e-3/ab5903e155d5198269deee73f32ad6fb308dffee_ligand_2.pdbqt
 12 12 0 0 0
SMALL
GASTEIGER

@<TRIPOS>ATOM
      1  C          8.4390   -0.6920   -2.0740 C.3     1  UNL1        0.1270
      2  C          8.4040   -1.9230   -2.8830 C.2     1  UNL1        0.3030
      3  O          7.2930   -2.3860   -3.2330 O.2     1  UNL1       -0.2520
      4  O          9.5650   -2.5690   -3.2620 O.3     1  UNL1       -0.4810
      5  H         10.1470   -2.2760   -4.0680 H       1  UNL1        0.2960
      6  C          7.0300   -0.1100   -2.0820 C.3     1  UNL1        0.0470
      7  C          6.4710    0.0130   -0.7240 C.2     1  UNL1       -0.0470
      8  C          5.8260    1.1960   -0.3880 C.2     1  UNL1        0.0040
      9  C          6.5430   -0.9550    0.2450 C.2     1  UNL1        0.0040
     10  C          5.2900    1.3520    0.8890 C.2     1  UNL1        0.0000
     11  C          6.0230   -0.8300    1.5170 C.2     1  UNL1        0.0000
     12  C          5.3870    0.3570    1.8230 C.2     1  UNL1        0.0000
@<TRIPOS>BOND
     1     5     4    1
     2     4     2    1
     3     3     2    2
     4     2     1    1
     5     6     1    1
     6     6     7    1
     7     7     8    2
     8     7     9    1
     9     8    10    1
    10     9    11    2
    11    10    12    2
    12    11    12    1
