@<TRIPOS>MOLECULE
/home/cewinharhar/GITHUB/reincatalyze/data/processed/docking_pred/2023-Apr-25-1829_maxeplen10_maxtrainstep200_exh32_gamma099_lrac3e-4_lrcr1e-3/ab5903e155d5198269deee73f32ad6fb308dffee_ligand_2.pdbqt
 12 12 0 0 0
SMALL
GASTEIGER

@<TRIPOS>ATOM
      1  C          4.9700    1.7960    0.7050 C.3     1  UNL1        0.1270
      2  C          4.4770    1.1280    1.9230 C.2     1  UNL1        0.3030
      3  O          5.1940    0.2550    2.4660 O.2     1  UNL1       -0.2520
      4  O          3.2490    1.4460    2.4710 O.3     1  UNL1       -0.4810
      5  H          2.5460    0.7380    2.7510 H       1  UNL1        0.2960
      6  C          6.4900    1.8530    0.8100 C.3     1  UNL1        0.0470
      7  C          7.1500    1.1410   -0.2980 C.2     1  UNL1       -0.0470
      8  C          6.3650    0.3440   -1.1230 C.2     1  UNL1        0.0040
      9  C          8.4910    1.1980   -0.5800 C.2     1  UNL1        0.0040
     10  C          6.9550   -0.3510   -2.1780 C.2     1  UNL1        0.0000
     11  C          9.1040    0.5230   -1.6170 C.2     1  UNL1        0.0000
     12  C          8.2990   -0.2630   -2.4190 C.2     1  UNL1        0.0000
@<TRIPOS>BOND
     1    12    10    2
     2    12    11    1
     3    10     8    1
     4    11     9    2
     5     8     7    2
     6     9     7    1
     7     7     6    1
     8     1     6    1
     9     1     2    1
    10     2     3    2
    11     2     4    1
    12     4     5    1
