@<TRIPOS>MOLECULE
/home/cewinharhar/GITHUB/reincatalyze/data/processed/docking_pred/2023-Apr-25-1829_maxeplen10_maxtrainstep200_exh32_gamma099_lrac3e-4_lrcr1e-3/ab5903e155d5198269deee73f32ad6fb308dffee_ligand_2.pdbqt
 12 12 0 0 0
SMALL
GASTEIGER

@<TRIPOS>ATOM
      1  C          8.4910   -0.6650   -2.1220 C.3     1  UNL1        0.1270
      2  C          8.4830   -1.9140   -2.9030 C.2     1  UNL1        0.3030
      3  O          9.5680   -2.5120   -3.0990 O.2     1  UNL1       -0.2520
      4  O          7.3120   -2.4340   -3.4190 O.3     1  UNL1       -0.4810
      5  H          6.4040   -1.9330   -3.3970 H       1  UNL1        0.2960
      6  C          7.0810   -0.0890   -2.1840 C.3     1  UNL1        0.0470
      7  C          6.5030    0.1140   -0.8430 C.2     1  UNL1       -0.0470
      8  C          6.6310   -0.9120    0.0860 C.2     1  UNL1        0.0040
      9  C          5.8390    1.2420   -0.4370 C.2     1  UNL1        0.0040
     10  C          6.0930   -0.7590    1.3620 C.2     1  UNL1        0.0000
     11  C          5.2950    1.4230    0.8190 C.2     1  UNL1        0.0000
     12  C          5.4370    0.3860    1.7200 C.2     1  UNL1        0.0000
@<TRIPOS>BOND
     1     4     5    1
     2     4     2    1
     3     3     2    2
     4     2     1    1
     5     6     1    1
     6     6     7    1
     7     7     9    2
     8     7     8    1
     9     9    11    1
    10     8    10    2
    11    11    12    2
    12    10    12    1
