@<TRIPOS>MOLECULE
/home/cewinharhar/GITHUB/reincatalyze/data/processed/docking_pred/2023-Apr-25-1829_maxeplen10_maxtrainstep200_exh32_gamma099_lrac3e-4_lrcr1e-3/ab5903e155d5198269deee73f32ad6fb308dffee_ligand_2.pdbqt
 12 12 0 0 0
SMALL
GASTEIGER

@<TRIPOS>ATOM
      1  C          8.3270   -1.0060   -1.7580 C.3     1  UNL1        0.1270
      2  C          8.4300   -2.0230   -2.8190 C.2     1  UNL1        0.3030
      3  O          9.5640   -2.4590   -3.1320 O.2     1  UNL1       -0.2520
      4  O          7.3090   -2.5030   -3.4670 O.3     1  UNL1       -0.4810
      5  H          7.3120   -2.8310   -4.4510 H       1  UNL1        0.2960
      6  C          7.2390   -1.4700   -0.7960 C.3     1  UNL1        0.0470
      7  C          6.4910   -0.3410   -0.2160 C.2     1  UNL1       -0.0470
      8  C          6.0810   -0.4390    1.1080 C.2     1  UNL1        0.0040
      9  C          6.1600    0.8080   -0.8870 C.2     1  UNL1        0.0040
     10  C          5.3660    0.6060    1.6900 C.2     1  UNL1        0.0000
     11  C          5.4530    1.8600   -0.3380 C.2     1  UNL1        0.0000
     12  C          5.0580    1.7330    0.9790 C.2     1  UNL1        0.0000
@<TRIPOS>BOND
     1     5     4    1
     2     4     2    1
     3     3     2    2
     4     2     1    1
     5     1     6    1
     6     9    11    1
     7     9     7    2
     8     6     7    1
     9    11    12    2
    10     7     8    1
    11    12    10    1
    12     8    10    2
