@<TRIPOS>MOLECULE
/home/cewinharhar/GITHUB/reincatalyze/data/processed/docking_pred/2023-Apr-25-1829_maxeplen10_maxtrainstep200_exh32_gamma099_lrac3e-4_lrcr1e-3/ab955c776f37f5544fae82246801d9a2769dfb79_ligand_2.pdbqt
 12 12 0 0 0
SMALL
GASTEIGER

@<TRIPOS>ATOM
      1  C          8.3480    0.1990   -2.1570 C.3     1  UNL1        0.1270
      2  C          9.4430    0.3670   -1.1850 C.2     1  UNL1        0.3030
      3  O          9.4850   -0.3880   -0.1850 O.2     1  UNL1       -0.2520
      4  O         10.4160    1.3320   -1.3570 O.3     1  UNL1       -0.4810
      5  H         10.2530    2.2290   -1.8510 H       1  UNL1        0.2960
      6  C          7.2450   -0.5880   -1.4580 C.3     1  UNL1        0.0470
      7  C          6.4160    0.2680   -0.5910 C.2     1  UNL1       -0.0470
      8  C          6.1610   -0.1660    0.7040 C.2     1  UNL1        0.0040
      9  C          5.8660    1.4660   -0.9660 C.2     1  UNL1        0.0040
     10  C          5.3750    0.6130    1.5520 C.2     1  UNL1        0.0000
     11  C          5.0840    2.2600   -0.1500 C.2     1  UNL1        0.0000
     12  C          4.8470    1.8030    1.1320 C.2     1  UNL1        0.0000
@<TRIPOS>BOND
     1     1     6    1
     2     1     2    1
     3     5     4    1
     4     6     7    1
     5     4     2    1
     6     2     3    2
     7     9     7    2
     8     9    11    1
     9     7     8    1
    10    11    12    2
    11     8    10    2
    12    12    10    1
