@<TRIPOS>MOLECULE
/home/cewinharhar/GITHUB/reincatalyze/data/processed/docking_pred/2023-Apr-25-1829_maxeplen10_maxtrainstep200_exh32_gamma099_lrac3e-4_lrcr1e-3/ab955c776f37f5544fae82246801d9a2769dfb79_ligand_2.pdbqt
 12 12 0 0 0
SMALL
GASTEIGER

@<TRIPOS>ATOM
      1  C          5.5030    2.8940   -0.0460 C.3     1  UNL1        0.1270
      2  C          6.2590    3.8380    0.7950 C.2     1  UNL1        0.3030
      3  O          6.8850    4.7730    0.2430 O.2     1  UNL1       -0.2520
      4  O          6.2890    3.7110    2.1710 O.3     1  UNL1       -0.4810
      5  H          7.0170    4.1410    2.7700 H       1  UNL1        0.2960
      6  C          4.9360    1.8230    0.8790 C.3     1  UNL1        0.0470
      7  C          5.7640    0.6040    0.8920 C.2     1  UNL1       -0.0470
      8  C          5.7360   -0.1930    2.0290 C.2     1  UNL1        0.0040
      9  C          6.5730    0.1940   -0.1370 C.2     1  UNL1        0.0040
     10  C          6.5110   -1.3510    2.0810 C.2     1  UNL1        0.0000
     11  C          7.3510   -0.9470   -0.1160 C.2     1  UNL1        0.0000
     12  C          7.3030   -1.7190    1.0280 C.2     1  UNL1        0.0000
@<TRIPOS>BOND
     1     9    11    1
     2     9     7    2
     3    11    12    2
     4     1     2    1
     5     1     6    1
     6     3     2    2
     7     2     4    1
     8     6     7    1
     9     7     8    1
    10    12    10    1
    11     8    10    2
    12     4     5    1
