@<TRIPOS>MOLECULE
/home/cewinharhar/GITHUB/reincatalyze/data/processed/docking_pred/2023-Apr-25-1829_maxeplen10_maxtrainstep200_exh32_gamma099_lrac3e-4_lrcr1e-3/ab955c776f37f5544fae82246801d9a2769dfb79_ligand_2.pdbqt
 12 12 0 0 0
SMALL
GASTEIGER

@<TRIPOS>ATOM
      1  C          4.9750    1.7960    0.7200 C.3     1  UNL1        0.1270
      2  C          4.4620    1.1220    1.9260 C.2     1  UNL1        0.3030
      3  O          5.1600    0.2300    2.4630 O.2     1  UNL1       -0.2520
      4  O          3.2370    1.4560    2.4720 O.3     1  UNL1       -0.4810
      5  H          2.8100    2.3970    2.3890 H       1  UNL1        0.2960
      6  C          6.4940    1.8280    0.8360 C.3     1  UNL1        0.0470
      7  C          7.1520    1.1260   -0.2790 C.2     1  UNL1       -0.0470
      8  C          6.3740    0.3030   -1.0840 C.2     1  UNL1        0.0040
      9  C          8.4860    1.2150   -0.5860 C.2     1  UNL1        0.0040
     10  C          6.9610   -0.3830   -2.1460 C.2     1  UNL1        0.0000
     11  C          9.0970    0.5490   -1.6300 C.2     1  UNL1        0.0000
     12  C          8.2970   -0.2620   -2.4120 C.2     1  UNL1        0.0000
@<TRIPOS>BOND
     1    12    10    2
     2    12    11    1
     3    10     8    1
     4    11     9    2
     5     8     7    2
     6     9     7    1
     7     7     6    1
     8     1     6    1
     9     1     2    1
    10     2     3    2
    11     2     4    1
    12     5     4    1
