@<TRIPOS>MOLECULE
/home/cewinharhar/GITHUB/reincatalyze/data/processed/docking_pred/2023-Apr-25-1829_maxeplen10_maxtrainstep200_exh32_gamma099_lrac3e-4_lrcr1e-3/ab955c776f37f5544fae82246801d9a2769dfb79_ligand_2.pdbqt
 12 12 0 0 0
SMALL
GASTEIGER

@<TRIPOS>ATOM
      1  C          8.4320   -0.5960   -2.1740 C.3     1  UNL1        0.1270
      2  C          8.4770   -1.8740   -2.9070 C.2     1  UNL1        0.3030
      3  O          9.5860   -2.4300   -3.0860 O.2     1  UNL1       -0.2520
      4  O          7.3270   -2.4650   -3.3940 O.3     1  UNL1       -0.4810
      5  H          7.2320   -3.4840   -3.5580 H       1  UNL1        0.2960
      6  C          6.9850   -0.1180   -2.1960 C.3     1  UNL1        0.0470
      7  C          6.4530    0.1060   -0.8400 C.2     1  UNL1       -0.0470
      8  C          6.5880   -0.9160    0.0920 C.2     1  UNL1        0.0040
      9  C          5.8250    1.2510   -0.4220 C.2     1  UNL1        0.0040
     10  C          6.0920   -0.7450    1.3830 C.2     1  UNL1        0.0000
     11  C          5.3240    1.4510    0.8490 C.2     1  UNL1        0.0000
     12  C          5.4720    0.4170    1.7530 C.2     1  UNL1        0.0000
@<TRIPOS>BOND
     1     5     4    1
     2     4     2    1
     3     3     2    2
     4     2     1    1
     5     6     1    1
     6     6     7    1
     7     7     9    2
     8     7     8    1
     9     9    11    1
    10     8    10    2
    11    11    12    2
    12    10    12    1
