@<TRIPOS>MOLECULE
/home/cewinharhar/GITHUB/reincatalyze/data/processed/docking_pred/2023-Apr-25-1829_maxeplen10_maxtrainstep200_exh32_gamma099_lrac3e-4_lrcr1e-3/ab955c776f37f5544fae82246801d9a2769dfb79_ligand_2.pdbqt
 12 12 0 0 0
SMALL
GASTEIGER

@<TRIPOS>ATOM
      1  C          8.4180   -0.6200   -2.1570 C.3     1  UNL1        0.1270
      2  C          8.3880   -1.8930   -2.8990 C.2     1  UNL1        0.3030
      3  O          7.2790   -2.3820   -3.2180 O.2     1  UNL1       -0.2520
      4  O          9.5520   -2.5510   -3.2470 O.3     1  UNL1       -0.4810
      5  H         10.4810   -2.0920   -3.2820 H       1  UNL1        0.2960
      6  C          6.9890   -0.0900   -2.1190 C.3     1  UNL1        0.0470
      7  C          6.4680    0.0070   -0.7440 C.2     1  UNL1       -0.0470
      8  C          5.8430    1.1880   -0.3630 C.2     1  UNL1        0.0040
      9  C          6.5580   -0.9830    0.2010 C.2     1  UNL1        0.0040
     10  C          5.3440    1.3200    0.9310 C.2     1  UNL1        0.0000
     11  C          6.0730   -0.8820    1.4900 C.2     1  UNL1        0.0000
     12  C          5.4580    0.3040    1.8400 C.2     1  UNL1        0.0000
@<TRIPOS>BOND
     1     5     4    1
     2     4     2    1
     3     3     2    2
     4     2     1    1
     5     1     6    1
     6     6     7    1
     7     7     8    2
     8     7     9    1
     9     8    10    1
    10     9    11    2
    11    10    12    2
    12    11    12    1
