@<TRIPOS>MOLECULE
/home/cewinharhar/GITHUB/reincatalyze/data/processed/docking_pred/2023-Apr-25-1829_maxeplen10_maxtrainstep200_exh32_gamma099_lrac3e-4_lrcr1e-3/ada201db5b439d74c350b173ce56903753062bb1_ligand_2.pdbqt
 12 12 0 0 0
SMALL
GASTEIGER

@<TRIPOS>ATOM
      1  C          8.4250   -0.6420   -2.1360 C.3     1  UNL1        0.1270
      2  C          8.3890   -1.9070   -2.8900 C.2     1  UNL1        0.3030
      3  O          7.2780   -2.3800   -3.2270 O.2     1  UNL1       -0.2520
      4  O          9.5500   -2.5740   -3.2310 O.3     1  UNL1       -0.4810
      5  H         10.0120   -2.4860   -4.1560 H       1  UNL1        0.2960
      6  C          7.0040   -0.0890   -2.1220 C.3     1  UNL1        0.0470
      7  C          6.4660    0.0290   -0.7550 C.2     1  UNL1       -0.0470
      8  C          5.8320    1.2130   -0.4020 C.2     1  UNL1        0.0040
      9  C          6.5480   -0.9450    0.2060 C.2     1  UNL1        0.0040
     10  C          5.3170    1.3640    0.8840 C.2     1  UNL1        0.0000
     11  C          6.0470   -0.8260    1.4870 C.2     1  UNL1        0.0000
     12  C          5.4230    0.3630    1.8100 C.2     1  UNL1        0.0000
@<TRIPOS>BOND
     1     5     4    1
     2     4     2    1
     3     3     2    2
     4     2     1    1
     5     1     6    1
     6     6     7    1
     7     7     8    2
     8     7     9    1
     9     8    10    1
    10     9    11    2
    11    10    12    2
    12    11    12    1
