@<TRIPOS>MOLECULE
/home/cewinharhar/GITHUB/reincatalyze/data/processed/docking_pred/2023-Apr-25-1829_maxeplen10_maxtrainstep200_exh32_gamma099_lrac3e-4_lrcr1e-3/ada201db5b439d74c350b173ce56903753062bb1_ligand_2.pdbqt
 12 12 0 0 0
SMALL
GASTEIGER

@<TRIPOS>ATOM
      1  C          4.9850    1.7750    0.7310 C.3     1  UNL1        0.1270
      2  C          4.4590    1.0970    1.9290 C.2     1  UNL1        0.3030
      3  O          5.1380    0.1830    2.4550 O.2     1  UNL1       -0.2520
      4  O          3.2420    1.4500    2.4790 O.3     1  UNL1       -0.4810
      5  H          2.3880    1.6220    1.9180 H       1  UNL1        0.2960
      6  C          6.5070    1.7160    0.8140 C.3     1  UNL1        0.0470
      7  C          7.0940    0.9430   -0.2940 C.2     1  UNL1       -0.0470
      8  C          8.4040    1.2230   -0.6650 C.2     1  UNL1        0.0040
      9  C          6.4440   -0.0370   -1.0000 C.2     1  UNL1        0.0040
     10  C          8.9920    0.5180   -1.7130 C.2     1  UNL1        0.0000
     11  C          6.9990   -0.7530   -2.0410 C.2     1  UNL1        0.0000
     12  C          8.3020   -0.4510   -2.3880 C.2     1  UNL1        0.0000
@<TRIPOS>BOND
     1    12    11    2
     2    12    10    1
     3    11     9    1
     4    10     8    2
     5     9     7    2
     6     8     7    1
     7     7     6    1
     8     1     6    1
     9     1     2    1
    10     5     4    1
    11     2     3    2
    12     2     4    1
