@<TRIPOS>MOLECULE
/home/cewinharhar/GITHUB/reincatalyze/data/processed/docking_pred/2023-Apr-25-1829_maxeplen10_maxtrainstep200_exh32_gamma099_lrac3e-4_lrcr1e-3/ada201db5b439d74c350b173ce56903753062bb1_ligand_2.pdbqt
 12 12 0 0 0
SMALL
GASTEIGER

@<TRIPOS>ATOM
      1  C          8.3010   -0.9160   -1.8650 C.3     1  UNL1        0.1270
      2  C          8.4180   -1.9960   -2.8600 C.2     1  UNL1        0.3030
      3  O          9.5550   -2.4550   -3.1250 O.2     1  UNL1       -0.2520
      4  O          7.3060   -2.5090   -3.5000 O.3     1  UNL1       -0.4810
      5  H          6.3650   -2.5510   -3.0670 H       1  UNL1        0.2960
      6  C          7.4490   -1.4520   -0.7200 C.3     1  UNL1        0.0470
      7  C          6.6080   -0.4040   -0.1150 C.2     1  UNL1       -0.0470
      8  C          6.2760    0.6980   -0.8940 C.2     1  UNL1        0.0040
      9  C          6.1280   -0.4260    1.1690 C.2     1  UNL1        0.0040
     10  C          5.4880    1.7140   -0.3550 C.2     1  UNL1        0.0000
     11  C          5.3460    0.5630    1.7310 C.2     1  UNL1        0.0000
     12  C          5.0320    1.6460    0.9330 C.2     1  UNL1        0.0000
@<TRIPOS>BOND
     1     4     5    1
     2     4     2    1
     3     3     2    2
     4     2     1    1
     5     1     6    1
     6     8    10    1
     7     8     7    2
     8     6     7    1
     9    10    12    2
    10     7     9    1
    11    12    11    1
    12     9    11    2
