@<TRIPOS>MOLECULE
/home/cewinharhar/GITHUB/reincatalyze/data/processed/docking_pred/2023-Apr-25-1829_maxeplen10_maxtrainstep200_exh32_gamma099_lrac3e-4_lrcr1e-3/ada201db5b439d74c350b173ce56903753062bb1_ligand_2.pdbqt
 12 12 0 0 0
SMALL
GASTEIGER

@<TRIPOS>ATOM
      1  C          8.2800    0.1200   -2.1750 C.3     1  UNL1        0.1270
      2  C          9.3840    0.3280   -1.2230 C.2     1  UNL1        0.3030
      3  O          9.4590   -0.4090   -0.2110 O.2     1  UNL1       -0.2520
      4  O         10.3330    1.3130   -1.4240 O.3     1  UNL1       -0.4810
      5  H         10.1970    2.3040   -1.1510 H       1  UNL1        0.2960
      6  C          7.1860   -0.6400   -1.4330 C.3     1  UNL1        0.0470
      7  C          6.3770    0.2450   -0.5770 C.2     1  UNL1       -0.0470
      8  C          6.1130   -0.1670    0.7240 C.2     1  UNL1        0.0040
      9  C          5.8530    1.4510   -0.9670 C.2     1  UNL1        0.0040
     10  C          5.3460    0.6400    1.5620 C.2     1  UNL1        0.0000
     11  C          5.0910    2.2720   -0.1600 C.2     1  UNL1        0.0000
     12  C          4.8440    1.8360    1.1270 C.2     1  UNL1        0.0000
@<TRIPOS>BOND
     1     1     6    1
     2     1     2    1
     3     6     7    1
     4     4     2    1
     5     4     5    1
     6     2     3    2
     7     9     7    2
     8     9    11    1
     9     7     8    1
    10    11    12    2
    11     8    10    2
    12    12    10    1
