MODEL 1
REMARK VINA RESULT:      -7.2      0.000      0.000
REMARK SMILES O=C(O)CCc1ccccc1
REMARK SMILES IDX 4 1 2 2 1 3 3 4 5 6 6 7 7 8 11 9 8 10 10 11 9 12
REMARK H PARENT 3 5
REMARK Flexibility Score: inf
ROOT
ATOM      1  C   UNL     1       8.425  -0.642  -2.136  1.00  0.00     0.127 C 
ENDROOT
BRANCH   1   2
ATOM      2  C   UNL     1       8.389  -1.907  -2.890  1.00  0.00     0.303 C 
ATOM      3  O   UNL     1       7.278  -2.380  -3.227  1.00  0.00    -0.252 OA
BRANCH   2   4
ATOM      4  O   UNL     1       9.550  -2.574  -3.231  1.00  0.00    -0.481 OA
ATOM      5  H   UNL     1      10.012  -2.486  -4.156  1.00  0.00     0.296 HD
ENDBRANCH   2   4
ENDBRANCH   1   2
BRANCH   1   6
ATOM      6  C   UNL     1       7.004  -0.089  -2.122  1.00  0.00     0.047 C 
BRANCH   6   7
ATOM      7  C   UNL     1       6.466   0.029  -0.755  1.00  0.00    -0.047 A 
ATOM      8  C   UNL     1       5.832   1.213  -0.402  1.00  0.00     0.004 A 
ATOM      9  C   UNL     1       6.548  -0.945   0.206  1.00  0.00     0.004 A 
ATOM     10  C   UNL     1       5.317   1.364   0.884  1.00  0.00     0.000 A 
ATOM     11  C   UNL     1       6.047  -0.826   1.487  1.00  0.00     0.000 A 
ATOM     12  C   UNL     1       5.423   0.363   1.810  1.00  0.00     0.000 A 
ENDBRANCH   6   7
ENDBRANCH   1   6
TORSDOF 4
ENDMDL
MODEL 2
REMARK VINA RESULT:      -7.2      0.169      1.436
REMARK SMILES O=C(O)CCc1ccccc1
REMARK SMILES IDX 4 1 2 2 1 3 3 4 5 6 6 7 7 8 11 9 8 10 10 11 9 12
REMARK H PARENT 3 5
REMARK Flexibility Score: inf
ROOT
ATOM      1  C   UNL     1       8.455  -0.738  -2.019  1.00  0.00     0.127 C 
ENDROOT
BRANCH   1   2
ATOM      2  C   UNL     1       8.411  -1.949  -2.858  1.00  0.00     0.303 C 
ATOM      3  O   UNL     1       7.296  -2.405  -3.204  1.00  0.00    -0.252 OA
BRANCH   2   4
ATOM      4  O   UNL     1       9.569  -2.584  -3.266  1.00  0.00    -0.481 OA
ATOM      5  H   UNL     1       9.917  -3.466  -2.847  1.00  0.00     0.296 HD
ENDBRANCH   2   4
ENDBRANCH   1   2
BRANCH   1   6
ATOM      6  C   UNL     1       7.093  -0.064  -2.134  1.00  0.00     0.047 C 
BRANCH   6   7
ATOM      7  C   UNL     1       6.484   0.186  -0.816  1.00  0.00    -0.047 A 
ATOM      8  C   UNL     1       6.658  -0.770   0.177  1.00  0.00     0.004 A 
ATOM      9  C   UNL     1       5.746   1.295  -0.489  1.00  0.00     0.004 A 
ATOM     10  C   UNL     1       6.092  -0.572   1.435  1.00  0.00     0.000 A 
ATOM     11  C   UNL     1       5.173   1.520   0.747  1.00  0.00     0.000 A 
ATOM     12  C   UNL     1       5.363   0.552   1.713  1.00  0.00     0.000 A 
ENDBRANCH   6   7
ENDBRANCH   1   6
TORSDOF 4
ENDMDL
MODEL 3
REMARK VINA RESULT:      -7.2      0.638      1.475
REMARK SMILES O=C(O)CCc1ccccc1
REMARK SMILES IDX 4 1 2 2 1 3 3 4 5 6 6 7 7 8 11 9 8 10 10 11 9 12
REMARK H PARENT 3 5
REMARK Flexibility Score: inf
ROOT
ATOM      1  C   UNL     1       8.301  -0.916  -1.865  1.00  0.00     0.127 C 
ENDROOT
BRANCH   1   2
ATOM      2  C   UNL     1       8.418  -1.996  -2.860  1.00  0.00     0.303 C 
ATOM      3  O   UNL     1       9.555  -2.455  -3.125  1.00  0.00    -0.252 OA
BRANCH   2   4
ATOM      4  O   UNL     1       7.306  -2.509  -3.500  1.00  0.00    -0.481 OA
ATOM      5  H   UNL     1       6.365  -2.551  -3.067  1.00  0.00     0.296 HD
ENDBRANCH   2   4
ENDBRANCH   1   2
BRANCH   1   6
ATOM      6  C   UNL     1       7.449  -1.452  -0.720  1.00  0.00     0.047 C 
BRANCH   6   7
ATOM      7  C   UNL     1       6.608  -0.404  -0.115  1.00  0.00    -0.047 A 
ATOM      8  C   UNL     1       6.276   0.698  -0.894  1.00  0.00     0.004 A 
ATOM      9  C   UNL     1       6.128  -0.426   1.169  1.00  0.00     0.004 A 
ATOM     10  C   UNL     1       5.488   1.714  -0.355  1.00  0.00     0.000 A 
ATOM     11  C   UNL     1       5.346   0.563   1.731  1.00  0.00     0.000 A 
ATOM     12  C   UNL     1       5.032   1.646   0.933  1.00  0.00     0.000 A 
ENDBRANCH   6   7
ENDBRANCH   1   6
TORSDOF 4
ENDMDL
MODEL 4
REMARK VINA RESULT:      -6.8      3.295      5.126
REMARK SMILES O=C(O)CCc1ccccc1
REMARK SMILES IDX 4 1 2 2 1 3 3 4 5 6 6 7 7 8 11 9 8 10 10 11 9 12
REMARK H PARENT 3 5
REMARK Flexibility Score: inf
ROOT
ATOM      1  C   UNL     1       4.985   1.775   0.731  1.00  0.00     0.127 C 
ENDROOT
BRANCH   1   2
ATOM      2  C   UNL     1       4.459   1.097   1.929  1.00  0.00     0.303 C 
ATOM      3  O   UNL     1       5.138   0.183   2.455  1.00  0.00    -0.252 OA
BRANCH   2   4
ATOM      4  O   UNL     1       3.242   1.450   2.479  1.00  0.00    -0.481 OA
ATOM      5  H   UNL     1       2.388   1.622   1.918  1.00  0.00     0.296 HD
ENDBRANCH   2   4
ENDBRANCH   1   2
BRANCH   1   6
ATOM      6  C   UNL     1       6.507   1.716   0.814  1.00  0.00     0.047 C 
BRANCH   6   7
ATOM      7  C   UNL     1       7.094   0.943  -0.294  1.00  0.00    -0.047 A 
ATOM      8  C   UNL     1       8.404   1.223  -0.665  1.00  0.00     0.004 A 
ATOM      9  C   UNL     1       6.444  -0.037  -1.000  1.00  0.00     0.004 A 
ATOM     10  C   UNL     1       8.992   0.518  -1.713  1.00  0.00     0.000 A 
ATOM     11  C   UNL     1       6.999  -0.753  -2.041  1.00  0.00     0.000 A 
ATOM     12  C   UNL     1       8.302  -0.451  -2.388  1.00  0.00     0.000 A 
ENDBRANCH   6   7
ENDBRANCH   1   6
TORSDOF 4
ENDMDL
MODEL 5
REMARK VINA RESULT:      -6.6      1.926      2.612
REMARK SMILES O=C(O)CCc1ccccc1
REMARK SMILES IDX 4 1 2 2 1 3 3 4 5 6 6 7 7 8 11 9 8 10 10 11 9 12
REMARK H PARENT 3 5
REMARK Flexibility Score: inf
ROOT
ATOM      1  C   UNL     1       8.280   0.120  -2.175  1.00  0.00     0.127 C 
ENDROOT
BRANCH   1   2
ATOM      2  C   UNL     1       9.384   0.328  -1.223  1.00  0.00     0.303 C 
ATOM      3  O   UNL     1       9.459  -0.409  -0.211  1.00  0.00    -0.252 OA
BRANCH   2   4
ATOM      4  O   UNL     1      10.333   1.313  -1.424  1.00  0.00    -0.481 OA
ATOM      5  H   UNL     1      10.197   2.304  -1.151  1.00  0.00     0.296 HD
ENDBRANCH   2   4
ENDBRANCH   1   2
BRANCH   1   6
ATOM      6  C   UNL     1       7.186  -0.640  -1.433  1.00  0.00     0.047 C 
BRANCH   6   7
ATOM      7  C   UNL     1       6.377   0.245  -0.577  1.00  0.00    -0.047 A 
ATOM      8  C   UNL     1       6.113  -0.167   0.724  1.00  0.00     0.004 A 
ATOM      9  C   UNL     1       5.853   1.451  -0.967  1.00  0.00     0.004 A 
ATOM     10  C   UNL     1       5.346   0.640   1.562  1.00  0.00     0.000 A 
ATOM     11  C   UNL     1       5.091   2.272  -0.160  1.00  0.00     0.000 A 
ATOM     12  C   UNL     1       4.844   1.836   1.127  1.00  0.00     0.000 A 
ENDBRANCH   6   7
ENDBRANCH   1   6
TORSDOF 4
ENDMDL
