@<TRIPOS>MOLECULE
/home/cewinharhar/GITHUB/reincatalyze/data/processed/docking_pred/2023-Apr-25-1829_maxeplen10_maxtrainstep200_exh32_gamma099_lrac3e-4_lrcr1e-3/ae62664a3c9eef67376bdc077c2faa7ac5a69a78_ligand_2.pdbqt
 12 12 0 0 0
SMALL
GASTEIGER

@<TRIPOS>ATOM
      1  C          5.4520    2.9000   -0.0200 C.3     1  UNL1        0.1270
      2  C          6.2400    3.8390    0.7980 C.2     1  UNL1        0.3030
      3  O          6.8540    4.7710    0.2270 O.2     1  UNL1       -0.2520
      4  O          6.3110    3.7120    2.1720 O.3     1  UNL1       -0.4810
      5  H          5.6370    3.1580    2.7320 H       1  UNL1        0.2960
      6  C          4.8880    1.8460    0.9260 C.3     1  UNL1        0.0470
      7  C          5.6890    0.6090    0.9210 C.2     1  UNL1       -0.0470
      8  C          5.7240   -0.1520    2.0830 C.2     1  UNL1        0.0040
      9  C          6.4140    0.1480   -0.1480 C.2     1  UNL1        0.0040
     10  C          6.4760   -1.3250    2.1190 C.2     1  UNL1        0.0000
     11  C          7.1670   -1.0100   -0.1430 C.2     1  UNL1        0.0000
     12  C          7.1840   -1.7440    1.0260 C.2     1  UNL1        0.0000
@<TRIPOS>BOND
     1     9    11    1
     2     9     7    2
     3    11    12    2
     4     1     2    1
     5     1     6    1
     6     3     2    2
     7     2     4    1
     8     7     6    1
     9     7     8    1
    10    12    10    1
    11     8    10    2
    12     4     5    1
