MODEL 1
REMARK VINA RESULT:      -7.3      0.000      0.000
REMARK SMILES O=C(O)CCc1ccccc1
REMARK SMILES IDX 4 1 2 2 1 3 3 4 5 6 6 7 7 8 11 9 8 10 10 11 9 12
REMARK H PARENT 3 5
REMARK Flexibility Score: inf
ROOT
ATOM      1  C   UNL     1       8.474  -0.655  -2.138  1.00  0.00     0.127 C 
ENDROOT
BRANCH   1   2
ATOM      2  C   UNL     1       8.477  -1.916  -2.902  1.00  0.00     0.303 C 
ATOM      3  O   UNL     1       9.567  -2.507  -3.089  1.00  0.00    -0.252 OA
BRANCH   2   4
ATOM      4  O   UNL     1       7.310  -2.453  -3.409  1.00  0.00    -0.481 OA
ATOM      5  H   UNL     1       7.056  -2.427  -4.414  1.00  0.00     0.296 HD
ENDBRANCH   2   4
ENDBRANCH   1   2
BRANCH   1   6
ATOM      6  C   UNL     1       7.042  -0.134  -2.139  1.00  0.00     0.047 C 
BRANCH   6   7
ATOM      7  C   UNL     1       6.496  -0.006  -0.777  1.00  0.00    -0.047 A 
ATOM      8  C   UNL     1       5.864   1.183  -0.435  1.00  0.00     0.004 A 
ATOM      9  C   UNL     1       6.568  -0.974   0.192  1.00  0.00     0.004 A 
ATOM     10  C   UNL     1       5.341   1.344   0.847  1.00  0.00     0.000 A 
ATOM     11  C   UNL     1       6.059  -0.845   1.469  1.00  0.00     0.000 A 
ATOM     12  C   UNL     1       5.437   0.349   1.780  1.00  0.00     0.000 A 
ENDBRANCH   6   7
ENDBRANCH   1   6
TORSDOF 4
ENDMDL
MODEL 2
REMARK VINA RESULT:      -7.2      0.109      1.728
REMARK SMILES O=C(O)CCc1ccccc1
REMARK SMILES IDX 4 1 2 2 1 3 3 4 5 6 6 7 7 8 11 9 8 10 10 11 9 12
REMARK H PARENT 3 5
REMARK Flexibility Score: inf
ROOT
ATOM      1  C   UNL     1       8.409  -0.646  -2.132  1.00  0.00     0.127 C 
ENDROOT
BRANCH   1   2
ATOM      2  C   UNL     1       8.384  -1.908  -2.891  1.00  0.00     0.303 C 
ATOM      3  O   UNL     1       7.277  -2.386  -3.234  1.00  0.00    -0.252 OA
BRANCH   2   4
ATOM      4  O   UNL     1       9.550  -2.567  -3.231  1.00  0.00    -0.481 OA
ATOM      5  H   UNL     1       9.842  -2.748  -4.209  1.00  0.00     0.296 HD
ENDBRANCH   2   4
ENDBRANCH   1   2
BRANCH   1   6
ATOM      6  C   UNL     1       6.992  -0.082  -2.152  1.00  0.00     0.047 C 
BRANCH   6   7
ATOM      7  C   UNL     1       6.450   0.107  -0.796  1.00  0.00    -0.047 A 
ATOM      8  C   UNL     1       6.582  -0.936   0.113  1.00  0.00     0.004 A 
ATOM      9  C   UNL     1       5.814   1.239  -0.355  1.00  0.00     0.004 A 
ATOM     10  C   UNL     1       6.075  -0.797   1.404  1.00  0.00     0.000 A 
ATOM     11  C   UNL     1       5.303   1.408   0.916  1.00  0.00     0.000 A 
ATOM     12  C   UNL     1       5.448   0.353   1.797  1.00  0.00     0.000 A 
ENDBRANCH   6   7
ENDBRANCH   1   6
TORSDOF 4
ENDMDL
MODEL 3
REMARK VINA RESULT:      -7.1      0.651      1.497
REMARK SMILES O=C(O)CCc1ccccc1
REMARK SMILES IDX 4 1 2 2 1 3 3 4 5 6 6 7 7 8 11 9 8 10 10 11 9 12
REMARK H PARENT 3 5
REMARK Flexibility Score: inf
ROOT
ATOM      1  C   UNL     1       8.358  -0.901  -1.836  1.00  0.00     0.127 C 
ENDROOT
BRANCH   1   2
ATOM      2  C   UNL     1       8.357  -1.980  -2.839  1.00  0.00     0.303 C 
ATOM      3  O   UNL     1       7.260  -2.398  -3.278  1.00  0.00    -0.252 OA
BRANCH   2   4
ATOM      4  O   UNL     1       9.536  -2.535  -3.300  1.00  0.00    -0.481 OA
ATOM      5  H   UNL     1      10.122  -2.103  -4.038  1.00  0.00     0.296 HD
ENDBRANCH   2   4
ENDBRANCH   1   2
BRANCH   1   6
ATOM      6  C   UNL     1       7.567  -1.405  -0.634  1.00  0.00     0.047 C 
BRANCH   6   7
ATOM      7  C   UNL     1       6.676  -0.370  -0.081  1.00  0.00    -0.047 A 
ATOM      8  C   UNL     1       6.338   0.704  -0.895  1.00  0.00     0.004 A 
ATOM      9  C   UNL     1       6.153  -0.380   1.186  1.00  0.00     0.004 A 
ATOM     10  C   UNL     1       5.502   1.707  -0.406  1.00  0.00     0.000 A 
ATOM     11  C   UNL     1       5.323   0.597   1.699  1.00  0.00     0.000 A 
ATOM     12  C   UNL     1       5.005   1.653   0.868  1.00  0.00     0.000 A 
ENDBRANCH   6   7
ENDBRANCH   1   6
TORSDOF 4
ENDMDL
MODEL 4
REMARK VINA RESULT:      -6.8      3.374      5.065
REMARK SMILES O=C(O)CCc1ccccc1
REMARK SMILES IDX 4 1 2 2 1 3 3 4 5 6 6 7 7 8 11 9 8 10 10 11 9 12
REMARK H PARENT 3 5
REMARK Flexibility Score: inf
ROOT
ATOM      1  C   UNL     1       4.993   1.770   0.741  1.00  0.00     0.127 C 
ENDROOT
BRANCH   1   2
ATOM      2  C   UNL     1       4.455   1.097   1.937  1.00  0.00     0.303 C 
ATOM      3  O   UNL     1       5.128   0.184   2.471  1.00  0.00    -0.252 OA
BRANCH   2   4
ATOM      4  O   UNL     1       3.234   1.453   2.475  1.00  0.00    -0.481 OA
ATOM      5  H   UNL     1       2.977   2.428   2.718  1.00  0.00     0.296 HD
ENDBRANCH   2   4
ENDBRANCH   1   2
BRANCH   1   6
ATOM      6  C   UNL     1       6.513   1.695   0.830  1.00  0.00     0.047 C 
BRANCH   6   7
ATOM      7  C   UNL     1       7.098   0.935  -0.289  1.00  0.00    -0.047 A 
ATOM      8  C   UNL     1       8.404   1.227  -0.665  1.00  0.00     0.004 A 
ATOM      9  C   UNL     1       6.450  -0.042  -0.999  1.00  0.00     0.004 A 
ATOM     10  C   UNL     1       8.990   0.535  -1.723  1.00  0.00     0.000 A 
ATOM     11  C   UNL     1       7.003  -0.746  -2.050  1.00  0.00     0.000 A 
ATOM     12  C   UNL     1       8.301  -0.433  -2.402  1.00  0.00     0.000 A 
ENDBRANCH   6   7
ENDBRANCH   1   6
TORSDOF 4
ENDMDL
MODEL 5
REMARK VINA RESULT:      -6.7      3.831      4.980
REMARK SMILES O=C(O)CCc1ccccc1
REMARK SMILES IDX 4 1 2 2 1 3 3 4 5 6 6 7 7 8 11 9 8 10 10 11 9 12
REMARK H PARENT 3 5
REMARK Flexibility Score: inf
ROOT
ATOM      1  C   UNL     1       5.452   2.900  -0.020  1.00  0.00     0.127 C 
ENDROOT
BRANCH   1   2
ATOM      2  C   UNL     1       6.240   3.839   0.798  1.00  0.00     0.303 C 
ATOM      3  O   UNL     1       6.854   4.771   0.227  1.00  0.00    -0.252 OA
BRANCH   2   4
ATOM      4  O   UNL     1       6.311   3.712   2.172  1.00  0.00    -0.481 OA
ATOM      5  H   UNL     1       5.637   3.158   2.732  1.00  0.00     0.296 HD
ENDBRANCH   2   4
ENDBRANCH   1   2
BRANCH   1   6
ATOM      6  C   UNL     1       4.888   1.846   0.926  1.00  0.00     0.047 C 
BRANCH   6   7
ATOM      7  C   UNL     1       5.689   0.609   0.921  1.00  0.00    -0.047 A 
ATOM      8  C   UNL     1       5.724  -0.152   2.083  1.00  0.00     0.004 A 
ATOM      9  C   UNL     1       6.414   0.148  -0.148  1.00  0.00     0.004 A 
ATOM     10  C   UNL     1       6.476  -1.325   2.119  1.00  0.00     0.000 A 
ATOM     11  C   UNL     1       7.167  -1.010  -0.143  1.00  0.00     0.000 A 
ATOM     12  C   UNL     1       7.184  -1.744   1.026  1.00  0.00     0.000 A 
ENDBRANCH   6   7
ENDBRANCH   1   6
TORSDOF 4
ENDMDL
