@<TRIPOS>MOLECULE
/home/cewinharhar/GITHUB/reincatalyze/data/processed/docking_pred/2023-Apr-25-1829_maxeplen10_maxtrainstep200_exh32_gamma099_lrac3e-4_lrcr1e-3/ae62664a3c9eef67376bdc077c2faa7ac5a69a78_ligand_2.pdbqt
 12 12 0 0 0
SMALL
GASTEIGER

@<TRIPOS>ATOM
      1  C          8.4740   -0.6550   -2.1380 C.3     1  UNL1        0.1270
      2  C          8.4770   -1.9160   -2.9020 C.2     1  UNL1        0.3030
      3  O          9.5670   -2.5070   -3.0890 O.2     1  UNL1       -0.2520
      4  O          7.3100   -2.4530   -3.4090 O.3     1  UNL1       -0.4810
      5  H          7.0560   -2.4270   -4.4140 H       1  UNL1        0.2960
      6  C          7.0420   -0.1340   -2.1390 C.3     1  UNL1        0.0470
      7  C          6.4960   -0.0060   -0.7770 C.2     1  UNL1       -0.0470
      8  C          5.8640    1.1830   -0.4350 C.2     1  UNL1        0.0040
      9  C          6.5680   -0.9740    0.1920 C.2     1  UNL1        0.0040
     10  C          5.3410    1.3440    0.8470 C.2     1  UNL1        0.0000
     11  C          6.0590   -0.8450    1.4690 C.2     1  UNL1        0.0000
     12  C          5.4370    0.3490    1.7800 C.2     1  UNL1        0.0000
@<TRIPOS>BOND
     1     5     4    1
     2     4     2    1
     3     3     2    2
     4     2     1    1
     5     6     1    1
     6     6     7    1
     7     7     8    2
     8     7     9    1
     9     8    10    1
    10     9    11    2
    11    10    12    2
    12    11    12    1
