@<TRIPOS>MOLECULE
/home/cewinharhar/GITHUB/reincatalyze/data/processed/docking_pred/2023-Apr-25-1829_maxeplen10_maxtrainstep200_exh32_gamma099_lrac3e-4_lrcr1e-3/ae62664a3c9eef67376bdc077c2faa7ac5a69a78_ligand_2.pdbqt
 12 12 0 0 0
SMALL
GASTEIGER

@<TRIPOS>ATOM
      1  C          8.3580   -0.9010   -1.8360 C.3     1  UNL1        0.1270
      2  C          8.3570   -1.9800   -2.8390 C.2     1  UNL1        0.3030
      3  O          7.2600   -2.3980   -3.2780 O.2     1  UNL1       -0.2520
      4  O          9.5360   -2.5350   -3.3000 O.3     1  UNL1       -0.4810
      5  H         10.1220   -2.1030   -4.0380 H       1  UNL1        0.2960
      6  C          7.5670   -1.4050   -0.6340 C.3     1  UNL1        0.0470
      7  C          6.6760   -0.3700   -0.0810 C.2     1  UNL1       -0.0470
      8  C          6.3380    0.7040   -0.8950 C.2     1  UNL1        0.0040
      9  C          6.1530   -0.3800    1.1860 C.2     1  UNL1        0.0040
     10  C          5.5020    1.7070   -0.4060 C.2     1  UNL1        0.0000
     11  C          5.3230    0.5970    1.6990 C.2     1  UNL1        0.0000
     12  C          5.0050    1.6530    0.8680 C.2     1  UNL1        0.0000
@<TRIPOS>BOND
     1     5     4    1
     2     4     2    1
     3     3     2    2
     4     2     1    1
     5     1     6    1
     6     8    10    1
     7     8     7    2
     8     6     7    1
     9    10    12    2
    10     7     9    1
    11    12    11    1
    12     9    11    2
