@<TRIPOS>MOLECULE
/home/cewinharhar/GITHUB/reincatalyze/data/processed/docking_pred/2023-Apr-25-1829_maxeplen10_maxtrainstep200_exh32_gamma099_lrac3e-4_lrcr1e-3/ae62664a3c9eef67376bdc077c2faa7ac5a69a78_ligand_2.pdbqt
 12 12 0 0 0
SMALL
GASTEIGER

@<TRIPOS>ATOM
      1  C          4.9930    1.7700    0.7410 C.3     1  UNL1        0.1270
      2  C          4.4550    1.0970    1.9370 C.2     1  UNL1        0.3030
      3  O          5.1280    0.1840    2.4710 O.2     1  UNL1       -0.2520
      4  O          3.2340    1.4530    2.4750 O.3     1  UNL1       -0.4810
      5  H          2.9770    2.4280    2.7180 H       1  UNL1        0.2960
      6  C          6.5130    1.6950    0.8300 C.3     1  UNL1        0.0470
      7  C          7.0980    0.9350   -0.2890 C.2     1  UNL1       -0.0470
      8  C          8.4040    1.2270   -0.6650 C.2     1  UNL1        0.0040
      9  C          6.4500   -0.0420   -0.9990 C.2     1  UNL1        0.0040
     10  C          8.9900    0.5350   -1.7230 C.2     1  UNL1        0.0000
     11  C          7.0030   -0.7460   -2.0500 C.2     1  UNL1        0.0000
     12  C          8.3010   -0.4330   -2.4020 C.2     1  UNL1        0.0000
@<TRIPOS>BOND
     1    12    11    2
     2    12    10    1
     3    11     9    1
     4    10     8    2
     5     9     7    2
     6     8     7    1
     7     7     6    1
     8     1     6    1
     9     1     2    1
    10     2     3    2
    11     2     4    1
    12     4     5    1
