@<TRIPOS>MOLECULE
/home/cewinharhar/GITHUB/reincatalyze/data/processed/docking_pred/2023-Apr-25-1829_maxeplen10_maxtrainstep200_exh32_gamma099_lrac3e-4_lrcr1e-3/ae62664a3c9eef67376bdc077c2faa7ac5a69a78_ligand_2.pdbqt
 12 12 0 0 0
SMALL
GASTEIGER

@<TRIPOS>ATOM
      1  C          8.4090   -0.6460   -2.1320 C.3     1  UNL1        0.1270
      2  C          8.3840   -1.9080   -2.8910 C.2     1  UNL1        0.3030
      3  O          7.2770   -2.3860   -3.2340 O.2     1  UNL1       -0.2520
      4  O          9.5500   -2.5670   -3.2310 O.3     1  UNL1       -0.4810
      5  H          9.8420   -2.7480   -4.2090 H       1  UNL1        0.2960
      6  C          6.9920   -0.0820   -2.1520 C.3     1  UNL1        0.0470
      7  C          6.4500    0.1070   -0.7960 C.2     1  UNL1       -0.0470
      8  C          6.5820   -0.9360    0.1130 C.2     1  UNL1        0.0040
      9  C          5.8140    1.2390   -0.3550 C.2     1  UNL1        0.0040
     10  C          6.0750   -0.7970    1.4040 C.2     1  UNL1        0.0000
     11  C          5.3030    1.4080    0.9160 C.2     1  UNL1        0.0000
     12  C          5.4480    0.3530    1.7970 C.2     1  UNL1        0.0000
@<TRIPOS>BOND
     1     5     4    1
     2     3     2    2
     3     4     2    1
     4     2     1    1
     5     6     1    1
     6     6     7    1
     7     7     9    2
     8     7     8    1
     9     9    11    1
    10     8    10    2
    11    11    12    2
    12    10    12    1
