MODEL 1
REMARK VINA RESULT:      -7.3      0.000      0.000
REMARK SMILES O=C(O)CCc1ccccc1
REMARK SMILES IDX 4 1 2 2 1 3 3 4 5 6 6 7 7 8 11 9 8 10 10 11 9 12
REMARK H PARENT 3 5
REMARK Flexibility Score: inf
ROOT
ATOM      1  C   UNL     1       8.450  -0.583  -2.239  1.00  0.00     0.127 C 
ENDROOT
BRANCH   1   2
ATOM      2  C   UNL     1       8.465  -1.890  -2.919  1.00  0.00     0.303 C 
ATOM      3  O   UNL     1       9.557  -2.492  -3.048  1.00  0.00    -0.252 OA
BRANCH   2   4
ATOM      4  O   UNL     1       7.306  -2.458  -3.412  1.00  0.00    -0.481 OA
ATOM      5  H   UNL     1       6.400  -1.958  -3.464  1.00  0.00     0.296 HD
ENDBRANCH   2   4
ENDBRANCH   1   2
BRANCH   1   6
ATOM      6  C   UNL     1       6.999  -0.119  -2.192  1.00  0.00     0.047 C 
BRANCH   6   7
ATOM      7  C   UNL     1       6.495  -0.009  -0.811  1.00  0.00    -0.047 A 
ATOM      8  C   UNL     1       5.875   1.176  -0.434  1.00  0.00     0.004 A 
ATOM      9  C   UNL     1       6.595  -0.990   0.141  1.00  0.00     0.004 A 
ATOM     10  C   UNL     1       5.391   1.320   0.865  1.00  0.00     0.000 A 
ATOM     11  C   UNL     1       6.126  -0.877   1.435  1.00  0.00     0.000 A 
ATOM     12  C   UNL     1       5.515   0.312   1.781  1.00  0.00     0.000 A 
ENDBRANCH   6   7
ENDBRANCH   1   6
TORSDOF 4
ENDMDL
MODEL 2
REMARK VINA RESULT:      -7.3      0.157      1.730
REMARK SMILES O=C(O)CCc1ccccc1
REMARK SMILES IDX 4 1 2 2 1 3 3 4 5 6 6 7 7 8 11 9 8 10 10 11 9 12
REMARK H PARENT 3 5
REMARK Flexibility Score: inf
ROOT
ATOM      1  C   UNL     1       8.440  -0.688  -2.068  1.00  0.00     0.127 C 
ENDROOT
BRANCH   1   2
ATOM      2  C   UNL     1       8.411  -1.920  -2.874  1.00  0.00     0.303 C 
ATOM      3  O   UNL     1       7.302  -2.397  -3.213  1.00  0.00    -0.252 OA
BRANCH   2   4
ATOM      4  O   UNL     1       9.576  -2.554  -3.262  1.00  0.00    -0.481 OA
ATOM      5  H   UNL     1      10.317  -2.097  -3.825  1.00  0.00     0.296 HD
ENDBRANCH   2   4
ENDBRANCH   1   2
BRANCH   1   6
ATOM      6  C   UNL     1       7.043  -0.080  -2.129  1.00  0.00     0.047 C 
BRANCH   6   7
ATOM      7  C   UNL     1       6.468   0.129  -0.788  1.00  0.00    -0.047 A 
ATOM      8  C   UNL     1       6.606  -0.889   0.147  1.00  0.00     0.004 A 
ATOM      9  C   UNL     1       5.796   1.255  -0.389  1.00  0.00     0.004 A 
ATOM     10  C   UNL     1       6.070  -0.732   1.424  1.00  0.00     0.000 A 
ATOM     11  C   UNL     1       5.254   1.440   0.868  1.00  0.00     0.000 A 
ATOM     12  C   UNL     1       5.407   0.411   1.776  1.00  0.00     0.000 A 
ENDBRANCH   6   7
ENDBRANCH   1   6
TORSDOF 4
ENDMDL
MODEL 3
REMARK VINA RESULT:      -7.2      0.659      1.623
REMARK SMILES O=C(O)CCc1ccccc1
REMARK SMILES IDX 4 1 2 2 1 3 3 4 5 6 6 7 7 8 11 9 8 10 10 11 9 12
REMARK H PARENT 3 5
REMARK Flexibility Score: inf
ROOT
ATOM      1  C   UNL     1       8.303  -0.919  -1.912  1.00  0.00     0.127 C 
ENDROOT
BRANCH   1   2
ATOM      2  C   UNL     1       8.412  -2.053  -2.847  1.00  0.00     0.303 C 
ATOM      3  O   UNL     1       9.540  -2.561  -3.053  1.00  0.00    -0.252 OA
BRANCH   2   4
ATOM      4  O   UNL     1       7.302  -2.563  -3.492  1.00  0.00    -0.481 OA
ATOM      5  H   UNL     1       7.066  -3.573  -3.516  1.00  0.00     0.296 HD
ENDBRANCH   2   4
ENDBRANCH   1   2
BRANCH   1   6
ATOM      6  C   UNL     1       7.500  -1.404  -0.711  1.00  0.00     0.047 C 
BRANCH   6   7
ATOM      7  C   UNL     1       6.636  -0.346  -0.156  1.00  0.00    -0.047 A 
ATOM      8  C   UNL     1       6.186  -0.489   1.151  1.00  0.00     0.004 A 
ATOM      9  C   UNL     1       6.234   0.775  -0.835  1.00  0.00     0.004 A 
ATOM     10  C   UNL     1       5.362   0.487   1.708  1.00  0.00     0.000 A 
ATOM     11  C   UNL     1       5.420   1.759  -0.311  1.00  0.00     0.000 A 
ATOM     12  C   UNL     1       4.986   1.590   0.990  1.00  0.00     0.000 A 
ENDBRANCH   6   7
ENDBRANCH   1   6
TORSDOF 4
ENDMDL
MODEL 4
REMARK VINA RESULT:      -7.1      0.718      1.541
REMARK SMILES O=C(O)CCc1ccccc1
REMARK SMILES IDX 4 1 2 2 1 3 3 4 5 6 6 7 7 8 11 9 8 10 10 11 9 12
REMARK H PARENT 3 5
REMARK Flexibility Score: inf
ROOT
ATOM      1  C   UNL     1       8.308  -1.038  -1.721  1.00  0.00     0.127 C 
ENDROOT
BRANCH   1   2
ATOM      2  C   UNL     1       8.347  -2.022  -2.818  1.00  0.00     0.303 C 
ATOM      3  O   UNL     1       7.266  -2.418  -3.314  1.00  0.00    -0.252 OA
BRANCH   2   4
ATOM      4  O   UNL     1       9.544  -2.509  -3.305  1.00  0.00    -0.481 OA
ATOM      5  H   UNL     1      10.005  -2.148  -4.161  1.00  0.00     0.296 HD
ENDBRANCH   2   4
ENDBRANCH   1   2
BRANCH   1   6
ATOM      6  C   UNL     1       7.267  -1.525  -0.720  1.00  0.00     0.047 C 
BRANCH   6   7
ATOM      7  C   UNL     1       6.499  -0.413  -0.132  1.00  0.00    -0.047 A 
ATOM      8  C   UNL     1       6.230   0.691  -0.932  1.00  0.00     0.004 A 
ATOM      9  C   UNL     1       6.028  -0.378   1.155  1.00  0.00     0.004 A 
ATOM     10  C   UNL     1       5.512   1.766  -0.411  1.00  0.00     0.000 A 
ATOM     11  C   UNL     1       5.314   0.671   1.701  1.00  0.00     0.000 A 
ATOM     12  C   UNL     1       5.063   1.754   0.882  1.00  0.00     0.000 A 
ENDBRANCH   6   7
ENDBRANCH   1   6
TORSDOF 4
ENDMDL
MODEL 5
REMARK VINA RESULT:      -6.8      3.391      5.095
REMARK SMILES O=C(O)CCc1ccccc1
REMARK SMILES IDX 4 1 2 2 1 3 3 4 5 6 6 7 7 8 11 9 8 10 10 11 9 12
REMARK H PARENT 3 5
REMARK Flexibility Score: inf
ROOT
ATOM      1  C   UNL     1       4.982   1.788   0.747  1.00  0.00     0.127 C 
ENDROOT
BRANCH   1   2
ATOM      2  C   UNL     1       4.451   1.115   1.946  1.00  0.00     0.303 C 
ATOM      3  O   UNL     1       5.132   0.210   2.483  1.00  0.00    -0.252 OA
BRANCH   2   4
ATOM      4  O   UNL     1       3.227   1.462   2.483  1.00  0.00    -0.481 OA
ATOM      5  H   UNL     1       2.515   2.019   1.975  1.00  0.00     0.296 HD
ENDBRANCH   2   4
ENDBRANCH   1   2
BRANCH   1   6
ATOM      6  C   UNL     1       6.502   1.780   0.866  1.00  0.00     0.047 C 
BRANCH   6   7
ATOM      7  C   UNL     1       7.144   1.085  -0.264  1.00  0.00    -0.047 A 
ATOM      8  C   UNL     1       6.372   0.209  -1.017  1.00  0.00     0.004 A 
ATOM      9  C   UNL     1       8.457   1.232  -0.632  1.00  0.00     0.004 A 
ATOM     10  C   UNL     1       6.945  -0.472  -2.089  1.00  0.00     0.000 A 
ATOM     11  C   UNL     1       9.053   0.572  -1.689  1.00  0.00     0.000 A 
ATOM     12  C   UNL     1       8.261  -0.293  -2.418  1.00  0.00     0.000 A 
ENDBRANCH   6   7
ENDBRANCH   1   6
TORSDOF 4
ENDMDL
