@<TRIPOS>MOLECULE
/home/cewinharhar/GITHUB/reincatalyze/data/processed/docking_pred/2023-Apr-25-1829_maxeplen10_maxtrainstep200_exh32_gamma099_lrac3e-4_lrcr1e-3/af895cae38f50b8ad608cacdd29f7ae1ddca485c_ligand_2.pdbqt
 12 12 0 0 0
SMALL
GASTEIGER

@<TRIPOS>ATOM
      1  C          8.4400   -0.6880   -2.0680 C.3     1  UNL1        0.1270
      2  C          8.4110   -1.9200   -2.8740 C.2     1  UNL1        0.3030
      3  O          7.3020   -2.3970   -3.2130 O.2     1  UNL1       -0.2520
      4  O          9.5760   -2.5540   -3.2620 O.3     1  UNL1       -0.4810
      5  H         10.3170   -2.0970   -3.8250 H       1  UNL1        0.2960
      6  C          7.0430   -0.0800   -2.1290 C.3     1  UNL1        0.0470
      7  C          6.4680    0.1290   -0.7880 C.2     1  UNL1       -0.0470
      8  C          6.6060   -0.8890    0.1470 C.2     1  UNL1        0.0040
      9  C          5.7960    1.2550   -0.3890 C.2     1  UNL1        0.0040
     10  C          6.0700   -0.7320    1.4240 C.2     1  UNL1        0.0000
     11  C          5.2540    1.4400    0.8680 C.2     1  UNL1        0.0000
     12  C          5.4070    0.4110    1.7760 C.2     1  UNL1        0.0000
@<TRIPOS>BOND
     1     5     4    1
     2     4     2    1
     3     3     2    2
     4     2     1    1
     5     6     1    1
     6     6     7    1
     7     7     9    2
     8     7     8    1
     9     9    11    1
    10     8    10    2
    11    11    12    2
    12    10    12    1
