@<TRIPOS>MOLECULE
/home/cewinharhar/GITHUB/reincatalyze/data/processed/docking_pred/2023-Apr-25-1829_maxeplen10_maxtrainstep200_exh32_gamma099_lrac3e-4_lrcr1e-3/af895cae38f50b8ad608cacdd29f7ae1ddca485c_ligand_2.pdbqt
 12 12 0 0 0
SMALL
GASTEIGER

@<TRIPOS>ATOM
      1  C          8.3030   -0.9190   -1.9120 C.3     1  UNL1        0.1270
      2  C          8.4120   -2.0530   -2.8470 C.2     1  UNL1        0.3030
      3  O          9.5400   -2.5610   -3.0530 O.2     1  UNL1       -0.2520
      4  O          7.3020   -2.5630   -3.4920 O.3     1  UNL1       -0.4810
      5  H          7.0660   -3.5730   -3.5160 H       1  UNL1        0.2960
      6  C          7.5000   -1.4040   -0.7110 C.3     1  UNL1        0.0470
      7  C          6.6360   -0.3460   -0.1560 C.2     1  UNL1       -0.0470
      8  C          6.1860   -0.4890    1.1510 C.2     1  UNL1        0.0040
      9  C          6.2340    0.7750   -0.8350 C.2     1  UNL1        0.0040
     10  C          5.3620    0.4870    1.7080 C.2     1  UNL1        0.0000
     11  C          5.4200    1.7590   -0.3110 C.2     1  UNL1        0.0000
     12  C          4.9860    1.5900    0.9900 C.2     1  UNL1        0.0000
@<TRIPOS>BOND
     1     5     4    1
     2     4     2    1
     3     3     2    2
     4     2     1    1
     5     1     6    1
     6     9    11    1
     7     9     7    2
     8     6     7    1
     9    11    12    2
    10     7     8    1
    11    12    10    1
    12     8    10    2
