@<TRIPOS>MOLECULE
/home/cewinharhar/GITHUB/reincatalyze/data/processed/docking_pred/2023-Apr-25-1829_maxeplen10_maxtrainstep200_exh32_gamma099_lrac3e-4_lrcr1e-3/af895cae38f50b8ad608cacdd29f7ae1ddca485c_ligand_2.pdbqt
 12 12 0 0 0
SMALL
GASTEIGER

@<TRIPOS>ATOM
      1  C          4.9820    1.7880    0.7470 C.3     1  UNL1        0.1270
      2  C          4.4510    1.1150    1.9460 C.2     1  UNL1        0.3030
      3  O          5.1320    0.2100    2.4830 O.2     1  UNL1       -0.2520
      4  O          3.2270    1.4620    2.4830 O.3     1  UNL1       -0.4810
      5  H          2.5150    2.0190    1.9750 H       1  UNL1        0.2960
      6  C          6.5020    1.7800    0.8660 C.3     1  UNL1        0.0470
      7  C          7.1440    1.0850   -0.2640 C.2     1  UNL1       -0.0470
      8  C          6.3720    0.2090   -1.0170 C.2     1  UNL1        0.0040
      9  C          8.4570    1.2320   -0.6320 C.2     1  UNL1        0.0040
     10  C          6.9450   -0.4720   -2.0890 C.2     1  UNL1        0.0000
     11  C          9.0530    0.5720   -1.6890 C.2     1  UNL1        0.0000
     12  C          8.2610   -0.2930   -2.4180 C.2     1  UNL1        0.0000
@<TRIPOS>BOND
     1    12    10    2
     2    12    11    1
     3    10     8    1
     4    11     9    2
     5     8     7    2
     6     9     7    1
     7     7     6    1
     8     1     6    1
     9     1     2    1
    10     2     3    2
    11     2     4    1
    12     5     4    1
