@<TRIPOS>MOLECULE
/home/cewinharhar/GITHUB/reincatalyze/data/processed/docking_pred/2023-Apr-25-1829_maxeplen10_maxtrainstep200_exh32_gamma099_lrac3e-4_lrcr1e-3/af895cae38f50b8ad608cacdd29f7ae1ddca485c_ligand_2.pdbqt
 12 12 0 0 0
SMALL
GASTEIGER

@<TRIPOS>ATOM
      1  C          8.3080   -1.0380   -1.7210 C.3     1  UNL1        0.1270
      2  C          8.3470   -2.0220   -2.8180 C.2     1  UNL1        0.3030
      3  O          7.2660   -2.4180   -3.3140 O.2     1  UNL1       -0.2520
      4  O          9.5440   -2.5090   -3.3050 O.3     1  UNL1       -0.4810
      5  H         10.0050   -2.1480   -4.1610 H       1  UNL1        0.2960
      6  C          7.2670   -1.5250   -0.7200 C.3     1  UNL1        0.0470
      7  C          6.4990   -0.4130   -0.1320 C.2     1  UNL1       -0.0470
      8  C          6.2300    0.6910   -0.9320 C.2     1  UNL1        0.0040
      9  C          6.0280   -0.3780    1.1550 C.2     1  UNL1        0.0040
     10  C          5.5120    1.7660   -0.4110 C.2     1  UNL1        0.0000
     11  C          5.3140    0.6710    1.7010 C.2     1  UNL1        0.0000
     12  C          5.0630    1.7540    0.8820 C.2     1  UNL1        0.0000
@<TRIPOS>BOND
     1     5     4    1
     2     3     2    2
     3     4     2    1
     4     2     1    1
     5     1     6    1
     6     8    10    1
     7     8     7    2
     8     6     7    1
     9    10    12    2
    10     7     9    1
    11    12    11    1
    12     9    11    2
