@<TRIPOS>MOLECULE
/home/cewinharhar/GITHUB/reincatalyze/data/processed/docking_pred/2023-Apr-25-1829_maxeplen10_maxtrainstep200_exh32_gamma099_lrac3e-4_lrcr1e-3/af9628f04dddfdfce7c60ac864c84e5664a7a69f_ligand_2.pdbqt
 12 12 0 0 0
SMALL
GASTEIGER

@<TRIPOS>ATOM
      1  C          4.9800    1.7410    0.7080 C.3     1  UNL1        0.1270
      2  C          4.4620    1.0980    1.9290 C.2     1  UNL1        0.3030
      3  O          5.1510    0.2090    2.4830 O.2     1  UNL1       -0.2520
      4  O          3.2410    1.4550    2.4680 O.3     1  UNL1       -0.4810
      5  H          2.5600    2.0720    1.9870 H       1  UNL1        0.2960
      6  C          6.5010    1.7060    0.7950 C.3     1  UNL1        0.0470
      7  C          7.1030    0.9410   -0.3120 C.2     1  UNL1       -0.0470
      8  C          8.4220    1.2150   -0.6540 C.2     1  UNL1        0.0040
      9  C          6.4580   -0.0240   -1.0410 C.2     1  UNL1        0.0040
     10  C          9.0240    0.5170   -1.7000 C.2     1  UNL1        0.0000
     11  C          7.0270   -0.7330   -2.0810 C.2     1  UNL1        0.0000
     12  C          8.3390   -0.4380   -2.3990 C.2     1  UNL1        0.0000
@<TRIPOS>BOND
     1    12    11    2
     2    12    10    1
     3    11     9    1
     4    10     8    2
     5     9     7    2
     6     8     7    1
     7     7     6    1
     8     1     6    1
     9     1     2    1
    10     2     4    1
    11     2     3    2
    12     5     4    1
