MODEL 1
REMARK VINA RESULT:      -7.3      0.000      0.000
REMARK SMILES O=C(O)CCc1ccccc1
REMARK SMILES IDX 4 1 2 2 1 3 3 4 5 6 6 7 7 8 11 9 8 10 10 11 9 12
REMARK H PARENT 3 5
REMARK Flexibility Score: inf
ROOT
ATOM      1  C   UNL     1       8.444  -0.842  -1.891  1.00  0.00     0.127 C 
ENDROOT
BRANCH   1   2
ATOM      2  C   UNL     1       8.453  -1.968  -2.840  1.00  0.00     0.303 C 
ATOM      3  O   UNL     1       9.550  -2.491  -3.148  1.00  0.00    -0.252 OA
BRANCH   2   4
ATOM      4  O   UNL     1       7.283  -2.456  -3.391  1.00  0.00    -0.481 OA
ATOM      5  H   UNL     1       6.996  -3.451  -3.338  1.00  0.00     0.296 HD
ENDBRANCH   2   4
ENDBRANCH   1   2
BRANCH   1   6
ATOM      6  C   UNL     1       7.087  -0.158  -2.020  1.00  0.00     0.047 C 
BRANCH   6   7
ATOM      7  C   UNL     1       6.461   0.088  -0.709  1.00  0.00    -0.047 A 
ATOM      8  C   UNL     1       5.786   1.288  -0.522  1.00  0.00     0.004 A 
ATOM      9  C   UNL     1       6.497  -0.779   0.353  1.00  0.00     0.004 A 
ATOM     10  C   UNL     1       5.186   1.560   0.707  1.00  0.00     0.000 A 
ATOM     11  C   UNL     1       5.913  -0.539   1.581  1.00  0.00     0.000 A 
ATOM     12  C   UNL     1       5.250   0.663   1.738  1.00  0.00     0.000 A 
ENDBRANCH   6   7
ENDBRANCH   1   6
TORSDOF 4
ENDMDL
MODEL 2
REMARK VINA RESULT:      -7.3      0.292      1.447
REMARK SMILES O=C(O)CCc1ccccc1
REMARK SMILES IDX 4 1 2 2 1 3 3 4 5 6 6 7 7 8 11 9 8 10 10 11 9 12
REMARK H PARENT 3 5
REMARK Flexibility Score: inf
ROOT
ATOM      1  C   UNL     1       8.428  -0.586  -2.221  1.00  0.00     0.127 C 
ENDROOT
BRANCH   1   2
ATOM      2  C   UNL     1       8.467  -1.880  -2.925  1.00  0.00     0.303 C 
ATOM      3  O   UNL     1       9.571  -2.455  -3.073  1.00  0.00    -0.252 OA
BRANCH   2   4
ATOM      4  O   UNL     1       7.317  -2.466  -3.418  1.00  0.00    -0.481 OA
ATOM      5  H   UNL     1       6.535  -2.787  -2.818  1.00  0.00     0.296 HD
ENDBRANCH   2   4
ENDBRANCH   1   2
BRANCH   1   6
ATOM      6  C   UNL     1       6.974  -0.129  -2.202  1.00  0.00     0.047 C 
BRANCH   6   7
ATOM      7  C   UNL     1       6.470   0.064  -0.831  1.00  0.00    -0.047 A 
ATOM      8  C   UNL     1       6.609  -0.984   0.070  1.00  0.00     0.004 A 
ATOM      9  C   UNL     1       5.863   1.204  -0.372  1.00  0.00     0.004 A 
ATOM     10  C   UNL     1       6.139  -0.842   1.375  1.00  0.00     0.000 A 
ATOM     11  C   UNL     1       5.387   1.376   0.913  1.00  0.00     0.000 A 
ATOM     12  C   UNL     1       5.539   0.317   1.787  1.00  0.00     0.000 A 
ENDBRANCH   6   7
ENDBRANCH   1   6
TORSDOF 4
ENDMDL
MODEL 3
REMARK VINA RESULT:      -6.8      3.375      5.111
REMARK SMILES O=C(O)CCc1ccccc1
REMARK SMILES IDX 4 1 2 2 1 3 3 4 5 6 6 7 7 8 11 9 8 10 10 11 9 12
REMARK H PARENT 3 5
REMARK Flexibility Score: inf
ROOT
ATOM      1  C   UNL     1       4.974   1.778   0.722  1.00  0.00     0.127 C 
ENDROOT
BRANCH   1   2
ATOM      2  C   UNL     1       4.455   1.113   1.931  1.00  0.00     0.303 C 
ATOM      3  O   UNL     1       5.144   0.216   2.471  1.00  0.00    -0.252 OA
BRANCH   2   4
ATOM      4  O   UNL     1       3.233   1.460   2.474  1.00  0.00    -0.481 OA
ATOM      5  H   UNL     1       3.020   2.402   2.852  1.00  0.00     0.296 HD
ENDBRANCH   2   4
ENDBRANCH   1   2
BRANCH   1   6
ATOM      6  C   UNL     1       6.494   1.801   0.841  1.00  0.00     0.047 C 
BRANCH   6   7
ATOM      7  C   UNL     1       7.150   1.103  -0.278  1.00  0.00    -0.047 A 
ATOM      8  C   UNL     1       6.378   0.249  -1.058  1.00  0.00     0.004 A 
ATOM      9  C   UNL     1       8.474   1.224  -0.612  1.00  0.00     0.004 A 
ATOM     10  C   UNL     1       6.964  -0.435  -2.121  1.00  0.00     0.000 A 
ATOM     11  C   UNL     1       9.083   0.562  -1.659  1.00  0.00     0.000 A 
ATOM     12  C   UNL     1       8.291  -0.281  -2.415  1.00  0.00     0.000 A 
ENDBRANCH   6   7
ENDBRANCH   1   6
TORSDOF 4
ENDMDL
MODEL 4
REMARK VINA RESULT:      -6.8      3.362      5.086
REMARK SMILES O=C(O)CCc1ccccc1
REMARK SMILES IDX 4 1 2 2 1 3 3 4 5 6 6 7 7 8 11 9 8 10 10 11 9 12
REMARK H PARENT 3 5
REMARK Flexibility Score: inf
ROOT
ATOM      1  C   UNL     1       4.980   1.741   0.708  1.00  0.00     0.127 C 
ENDROOT
BRANCH   1   2
ATOM      2  C   UNL     1       4.462   1.098   1.929  1.00  0.00     0.303 C 
ATOM      3  O   UNL     1       5.151   0.209   2.483  1.00  0.00    -0.252 OA
BRANCH   2   4
ATOM      4  O   UNL     1       3.241   1.455   2.468  1.00  0.00    -0.481 OA
ATOM      5  H   UNL     1       2.560   2.072   1.987  1.00  0.00     0.296 HD
ENDBRANCH   2   4
ENDBRANCH   1   2
BRANCH   1   6
ATOM      6  C   UNL     1       6.501   1.706   0.795  1.00  0.00     0.047 C 
BRANCH   6   7
ATOM      7  C   UNL     1       7.103   0.941  -0.312  1.00  0.00    -0.047 A 
ATOM      8  C   UNL     1       8.422   1.215  -0.654  1.00  0.00     0.004 A 
ATOM      9  C   UNL     1       6.458  -0.024  -1.041  1.00  0.00     0.004 A 
ATOM     10  C   UNL     1       9.024   0.517  -1.700  1.00  0.00     0.000 A 
ATOM     11  C   UNL     1       7.027  -0.733  -2.081  1.00  0.00     0.000 A 
ATOM     12  C   UNL     1       8.339  -0.438  -2.399  1.00  0.00     0.000 A 
ENDBRANCH   6   7
ENDBRANCH   1   6
TORSDOF 4
ENDMDL
MODEL 5
REMARK VINA RESULT:      -6.6      2.040      2.674
REMARK SMILES O=C(O)CCc1ccccc1
REMARK SMILES IDX 4 1 2 2 1 3 3 4 5 6 6 7 7 8 11 9 8 10 10 11 9 12
REMARK H PARENT 3 5
REMARK Flexibility Score: inf
ROOT
ATOM      1  C   UNL     1       7.929  -2.214   0.825  1.00  0.00     0.127 C 
ENDROOT
BRANCH   1   2
ATOM      2  C   UNL     1       8.736  -3.333   0.309  1.00  0.00     0.303 C 
ATOM      3  O   UNL     1       9.585  -3.866   1.062  1.00  0.00    -0.252 OA
BRANCH   2   4
ATOM      4  O   UNL     1       8.573  -3.803  -0.980  1.00  0.00    -0.481 OA
ATOM      5  H   UNL     1       9.357  -4.129  -1.575  1.00  0.00     0.296 HD
ENDBRANCH   2   4
ENDBRANCH   1   2
BRANCH   1   6
ATOM      6  C   UNL     1       7.369  -1.471  -0.382  1.00  0.00     0.047 C 
BRANCH   6   7
ATOM      7  C   UNL     1       6.542  -0.316   0.011  1.00  0.00    -0.047 A 
ATOM      8  C   UNL     1       6.004  -0.303   1.293  1.00  0.00     0.004 A 
ATOM      9  C   UNL     1       6.252   0.754  -0.797  1.00  0.00     0.004 A 
ATOM     10  C   UNL     1       5.212   0.769   1.699  1.00  0.00     0.000 A 
ATOM     11  C   UNL     1       5.472   1.829  -0.423  1.00  0.00     0.000 A 
ATOM     12  C   UNL     1       4.951   1.815   0.856  1.00  0.00     0.000 A 
ENDBRANCH   6   7
ENDBRANCH   1   6
TORSDOF 4
ENDMDL
