@<TRIPOS>MOLECULE
/home/cewinharhar/GITHUB/reincatalyze/data/processed/docking_pred/2023-Apr-25-1829_maxeplen10_maxtrainstep200_exh32_gamma099_lrac3e-4_lrcr1e-3/af9628f04dddfdfce7c60ac864c84e5664a7a69f_ligand_2.pdbqt
 12 12 0 0 0
SMALL
GASTEIGER

@<TRIPOS>ATOM
      1  C          4.9740    1.7780    0.7220 C.3     1  UNL1        0.1270
      2  C          4.4550    1.1130    1.9310 C.2     1  UNL1        0.3030
      3  O          5.1440    0.2160    2.4710 O.2     1  UNL1       -0.2520
      4  O          3.2330    1.4600    2.4740 O.3     1  UNL1       -0.4810
      5  H          3.0200    2.4020    2.8520 H       1  UNL1        0.2960
      6  C          6.4940    1.8010    0.8410 C.3     1  UNL1        0.0470
      7  C          7.1500    1.1030   -0.2780 C.2     1  UNL1       -0.0470
      8  C          6.3780    0.2490   -1.0580 C.2     1  UNL1        0.0040
      9  C          8.4740    1.2240   -0.6120 C.2     1  UNL1        0.0040
     10  C          6.9640   -0.4350   -2.1210 C.2     1  UNL1        0.0000
     11  C          9.0830    0.5620   -1.6590 C.2     1  UNL1        0.0000
     12  C          8.2910   -0.2810   -2.4150 C.2     1  UNL1        0.0000
@<TRIPOS>BOND
     1    12    10    2
     2    12    11    1
     3    10     8    1
     4    11     9    2
     5     8     7    2
     6     9     7    1
     7     7     6    1
     8     1     6    1
     9     1     2    1
    10     2     3    2
    11     2     4    1
    12     4     5    1
