@<TRIPOS>MOLECULE
/home/cewinharhar/GITHUB/reincatalyze/data/processed/docking_pred/2023-Apr-25-1829_maxeplen10_maxtrainstep200_exh32_gamma099_lrac3e-4_lrcr1e-3/af9628f04dddfdfce7c60ac864c84e5664a7a69f_ligand_2.pdbqt
 12 12 0 0 0
SMALL
GASTEIGER

@<TRIPOS>ATOM
      1  C          7.9290   -2.2140    0.8250 C.3     1  UNL1        0.1270
      2  C          8.7360   -3.3330    0.3090 C.2     1  UNL1        0.3030
      3  O          9.5850   -3.8660    1.0620 O.2     1  UNL1       -0.2520
      4  O          8.5730   -3.8030   -0.9800 O.3     1  UNL1       -0.4810
      5  H          9.3570   -4.1290   -1.5750 H       1  UNL1        0.2960
      6  C          7.3690   -1.4710   -0.3820 C.3     1  UNL1        0.0470
      7  C          6.5420   -0.3160    0.0110 C.2     1  UNL1       -0.0470
      8  C          6.0040   -0.3030    1.2930 C.2     1  UNL1        0.0040
      9  C          6.2520    0.7540   -0.7970 C.2     1  UNL1        0.0040
     10  C          5.2120    0.7690    1.6990 C.2     1  UNL1        0.0000
     11  C          5.4720    1.8290   -0.4230 C.2     1  UNL1        0.0000
     12  C          4.9510    1.8150    0.8560 C.2     1  UNL1        0.0000
@<TRIPOS>BOND
     1     5     4    1
     2     4     2    1
     3     9    11    1
     4     9     7    2
     5    11    12    2
     6     6     7    1
     7     6     1    1
     8     7     8    1
     9     2     1    1
    10     2     3    2
    11    12    10    1
    12     8    10    2
