@<TRIPOS>MOLECULE
/home/cewinharhar/GITHUB/reincatalyze/data/processed/docking_pred/2023-Apr-25-1829_maxeplen10_maxtrainstep200_exh32_gamma099_lrac3e-4_lrcr1e-3/b0253e2818c1de1129519fa2afa58b59888d8d60_ligand_2.pdbqt
 12 12 0 0 0
SMALL
GASTEIGER

@<TRIPOS>ATOM
      1  C          7.9940   -2.2110    0.8090 C.3     1  UNL1        0.1270
      2  C          8.7620   -3.3560    0.2910 C.2     1  UNL1        0.3030
      3  O          9.6260   -3.8870    1.0280 O.2     1  UNL1       -0.2520
      4  O          8.5470   -3.8520   -0.9800 O.3     1  UNL1       -0.4810
      5  H          9.3040   -4.2060   -1.5930 H       1  UNL1        0.2960
      6  C          7.4840   -1.4310   -0.3980 C.3     1  UNL1        0.0470
      7  C          6.6200   -0.3030   -0.0070 C.2     1  UNL1       -0.0470
      8  C          6.0930   -0.2990    1.2790 C.2     1  UNL1        0.0040
      9  C          6.2870    0.7490   -0.8200 C.2     1  UNL1        0.0040
     10  C          5.2670    0.7480    1.6840 C.2     1  UNL1        0.0000
     11  C          5.4710    1.8000   -0.4480 C.2     1  UNL1        0.0000
     12  C          4.9620    1.7770    0.8360 C.2     1  UNL1        0.0000
@<TRIPOS>BOND
     1     5     4    1
     2     4     2    1
     3     9    11    1
     4     9     7    2
     5    11    12    2
     6     6     7    1
     7     6     1    1
     8     7     8    1
     9     2     1    1
    10     2     3    2
    11    12    10    1
    12     8    10    2
