@<TRIPOS>MOLECULE
/home/cewinharhar/GITHUB/reincatalyze/data/processed/docking_pred/2023-Apr-25-1829_maxeplen10_maxtrainstep200_exh32_gamma099_lrac3e-4_lrcr1e-3/b0253e2818c1de1129519fa2afa58b59888d8d60_ligand_2.pdbqt
 12 12 0 0 0
SMALL
GASTEIGER

@<TRIPOS>ATOM
      1  C          8.4800   -0.6170   -2.1550 C.3     1  UNL1        0.1270
      2  C          8.4760   -1.8810   -2.9110 C.2     1  UNL1        0.3030
      3  O          9.5590   -2.4900   -3.0780 O.2     1  UNL1       -0.2520
      4  O          7.3080   -2.4040   -3.4320 O.3     1  UNL1       -0.4810
      5  H          6.3670   -2.1980   -3.0490 H       1  UNL1        0.2960
      6  C          7.0470   -0.0980   -2.1400 C.3     1  UNL1        0.0470
      7  C          6.5080    0.0070   -0.7720 C.2     1  UNL1       -0.0470
      8  C          5.8330    1.1710   -0.4230 C.2     1  UNL1        0.0040
      9  C          6.6250   -0.9580    0.1940 C.2     1  UNL1        0.0040
     10  C          5.3150    1.3100    0.8630 C.2     1  UNL1        0.0000
     11  C          6.1230   -0.8500    1.4760 C.2     1  UNL1        0.0000
     12  C          5.4580    0.3180    1.7940 C.2     1  UNL1        0.0000
@<TRIPOS>BOND
     1     4     5    1
     2     4     2    1
     3     3     2    2
     4     2     1    1
     5     1     6    1
     6     6     7    1
     7     7     8    2
     8     7     9    1
     9     8    10    1
    10     9    11    2
    11    10    12    2
    12    11    12    1
