@<TRIPOS>MOLECULE
/home/cewinharhar/GITHUB/reincatalyze/data/processed/docking_pred/2023-Apr-25-1829_maxeplen10_maxtrainstep200_exh32_gamma099_lrac3e-4_lrcr1e-3/b0253e2818c1de1129519fa2afa58b59888d8d60_ligand_2.pdbqt
 12 12 0 0 0
SMALL
GASTEIGER

@<TRIPOS>ATOM
      1  C          8.4410   -0.6340   -2.1770 C.3     1  UNL1        0.1270
      2  C          8.4610   -1.9070   -2.9180 C.2     1  UNL1        0.3030
      3  O          9.5580   -2.4860   -3.0980 O.2     1  UNL1       -0.2520
      4  O          7.3000   -2.4710   -3.4120 O.3     1  UNL1       -0.4810
      5  H          7.2400   -3.4440   -3.7630 H       1  UNL1        0.2960
      6  C          7.0030   -0.1280   -2.1930 C.3     1  UNL1        0.0470
      7  C          6.4710    0.0780   -0.8350 C.2     1  UNL1       -0.0470
      8  C          6.5960   -0.9600    0.0810 C.2     1  UNL1        0.0040
      9  C          5.8510    1.2200   -0.3990 C.2     1  UNL1        0.0040
     10  C          6.1000   -0.8060    1.3740 C.2     1  UNL1        0.0000
     11  C          5.3500    1.4040    0.8740 C.2     1  UNL1        0.0000
     12  C          5.4880    0.3540    1.7620 C.2     1  UNL1        0.0000
@<TRIPOS>BOND
     1     5     4    1
     2     4     2    1
     3     3     2    2
     4     2     1    1
     5     6     1    1
     6     6     7    1
     7     7     9    2
     8     7     8    1
     9     9    11    1
    10     8    10    2
    11    11    12    2
    12    10    12    1
