@<TRIPOS>MOLECULE
/home/cewinharhar/GITHUB/reincatalyze/data/processed/docking_pred/2023-Apr-25-1829_maxeplen10_maxtrainstep200_exh32_gamma099_lrac3e-4_lrcr1e-3/b0253e2818c1de1129519fa2afa58b59888d8d60_ligand_2.pdbqt
 12 12 0 0 0
SMALL
GASTEIGER

@<TRIPOS>ATOM
      1  C          5.4610    2.8950   -0.0820 C.3     1  UNL1        0.1270
      2  C          6.1870    3.8770    0.7420 C.2     1  UNL1        0.3030
      3  O          6.8770    4.7540    0.1700 O.2     1  UNL1       -0.2520
      4  O          6.1190    3.8500    2.1220 O.3     1  UNL1       -0.4810
      5  H          6.6400    4.5050    2.7340 H       1  UNL1        0.2960
      6  C          4.9630    1.8030    0.8580 C.3     1  UNL1        0.0470
      7  C          5.8070    0.5960    0.8050 C.2     1  UNL1       -0.0470
      8  C          5.9240   -0.1710    1.9580 C.2     1  UNL1        0.0040
      9  C          6.4970    0.1690   -0.3000 C.2     1  UNL1        0.0040
     10  C          6.7180   -1.3160    1.9490 C.2     1  UNL1        0.0000
     11  C          7.2910   -0.9600   -0.3410 C.2     1  UNL1        0.0000
     12  C          7.3890   -1.7020    0.8200 C.2     1  UNL1        0.0000
@<TRIPOS>BOND
     1    11     9    1
     2    11    12    2
     3     9     7    2
     4     1     2    1
     5     1     6    1
     6     3     2    2
     7     2     4    1
     8     7     6    1
     9     7     8    1
    10    12    10    1
    11    10     8    2
    12     4     5    1
