MODEL 1
REMARK VINA RESULT:      -7.3      0.000      0.000
REMARK SMILES O=C(O)CCc1ccccc1
REMARK SMILES IDX 4 1 2 2 1 3 3 4 5 6 6 7 7 8 11 9 8 10 10 11 9 12
REMARK H PARENT 3 5
REMARK Flexibility Score: inf
ROOT
ATOM      1  C   UNL     1       8.480  -0.617  -2.155  1.00  0.00     0.127 C 
ENDROOT
BRANCH   1   2
ATOM      2  C   UNL     1       8.476  -1.881  -2.911  1.00  0.00     0.303 C 
ATOM      3  O   UNL     1       9.559  -2.490  -3.078  1.00  0.00    -0.252 OA
BRANCH   2   4
ATOM      4  O   UNL     1       7.308  -2.404  -3.432  1.00  0.00    -0.481 OA
ATOM      5  H   UNL     1       6.367  -2.198  -3.049  1.00  0.00     0.296 HD
ENDBRANCH   2   4
ENDBRANCH   1   2
BRANCH   1   6
ATOM      6  C   UNL     1       7.047  -0.098  -2.140  1.00  0.00     0.047 C 
BRANCH   6   7
ATOM      7  C   UNL     1       6.508   0.007  -0.772  1.00  0.00    -0.047 A 
ATOM      8  C   UNL     1       5.833   1.171  -0.423  1.00  0.00     0.004 A 
ATOM      9  C   UNL     1       6.625  -0.958   0.194  1.00  0.00     0.004 A 
ATOM     10  C   UNL     1       5.315   1.310   0.863  1.00  0.00     0.000 A 
ATOM     11  C   UNL     1       6.123  -0.850   1.476  1.00  0.00     0.000 A 
ATOM     12  C   UNL     1       5.458   0.318   1.794  1.00  0.00     0.000 A 
ENDBRANCH   6   7
ENDBRANCH   1   6
TORSDOF 4
ENDMDL
MODEL 2
REMARK VINA RESULT:      -7.3      0.079      1.430
REMARK SMILES O=C(O)CCc1ccccc1
REMARK SMILES IDX 4 1 2 2 1 3 3 4 5 6 6 7 7 8 11 9 8 10 10 11 9 12
REMARK H PARENT 3 5
REMARK Flexibility Score: inf
ROOT
ATOM      1  C   UNL     1       8.441  -0.634  -2.177  1.00  0.00     0.127 C 
ENDROOT
BRANCH   1   2
ATOM      2  C   UNL     1       8.461  -1.907  -2.918  1.00  0.00     0.303 C 
ATOM      3  O   UNL     1       9.558  -2.486  -3.098  1.00  0.00    -0.252 OA
BRANCH   2   4
ATOM      4  O   UNL     1       7.300  -2.471  -3.412  1.00  0.00    -0.481 OA
ATOM      5  H   UNL     1       7.240  -3.444  -3.763  1.00  0.00     0.296 HD
ENDBRANCH   2   4
ENDBRANCH   1   2
BRANCH   1   6
ATOM      6  C   UNL     1       7.003  -0.128  -2.193  1.00  0.00     0.047 C 
BRANCH   6   7
ATOM      7  C   UNL     1       6.471   0.078  -0.835  1.00  0.00    -0.047 A 
ATOM      8  C   UNL     1       6.596  -0.960   0.081  1.00  0.00     0.004 A 
ATOM      9  C   UNL     1       5.851   1.220  -0.399  1.00  0.00     0.004 A 
ATOM     10  C   UNL     1       6.100  -0.806   1.374  1.00  0.00     0.000 A 
ATOM     11  C   UNL     1       5.350   1.404   0.874  1.00  0.00     0.000 A 
ATOM     12  C   UNL     1       5.488   0.354   1.762  1.00  0.00     0.000 A 
ENDBRANCH   6   7
ENDBRANCH   1   6
TORSDOF 4
ENDMDL
MODEL 3
REMARK VINA RESULT:      -6.8      3.389      5.096
REMARK SMILES O=C(O)CCc1ccccc1
REMARK SMILES IDX 4 1 2 2 1 3 3 4 5 6 6 7 7 8 11 9 8 10 10 11 9 12
REMARK H PARENT 3 5
REMARK Flexibility Score: inf
ROOT
ATOM      1  C   UNL     1       4.952   1.782   0.731  1.00  0.00     0.127 C 
ENDROOT
BRANCH   1   2
ATOM      2  C   UNL     1       4.439   1.105   1.935  1.00  0.00     0.303 C 
ATOM      3  O   UNL     1       5.129   0.198   2.460  1.00  0.00    -0.252 OA
BRANCH   2   4
ATOM      4  O   UNL     1       3.223   1.450   2.493  1.00  0.00    -0.481 OA
ATOM      5  H   UNL     1       2.620   2.210   2.127  1.00  0.00     0.296 HD
ENDBRANCH   2   4
ENDBRANCH   1   2
BRANCH   1   6
ATOM      6  C   UNL     1       6.471   1.823   0.852  1.00  0.00     0.047 C 
BRANCH   6   7
ATOM      7  C   UNL     1       7.137   1.139  -0.270  1.00  0.00    -0.047 A 
ATOM      8  C   UNL     1       6.365   0.324  -1.090  1.00  0.00     0.004 A 
ATOM      9  C   UNL     1       8.471   1.239  -0.570  1.00  0.00     0.004 A 
ATOM     10  C   UNL     1       6.960  -0.344  -2.158  1.00  0.00     0.000 A 
ATOM     11  C   UNL     1       9.089   0.590  -1.621  1.00  0.00     0.000 A 
ATOM     12  C   UNL     1       8.297  -0.214  -2.417  1.00  0.00     0.000 A 
ENDBRANCH   6   7
ENDBRANCH   1   6
TORSDOF 4
ENDMDL
MODEL 4
REMARK VINA RESULT:      -6.6      3.767      4.971
REMARK SMILES O=C(O)CCc1ccccc1
REMARK SMILES IDX 4 1 2 2 1 3 3 4 5 6 6 7 7 8 11 9 8 10 10 11 9 12
REMARK H PARENT 3 5
REMARK Flexibility Score: inf
ROOT
ATOM      1  C   UNL     1       5.461   2.895  -0.082  1.00  0.00     0.127 C 
ENDROOT
BRANCH   1   2
ATOM      2  C   UNL     1       6.187   3.877   0.742  1.00  0.00     0.303 C 
ATOM      3  O   UNL     1       6.877   4.754   0.170  1.00  0.00    -0.252 OA
BRANCH   2   4
ATOM      4  O   UNL     1       6.119   3.850   2.122  1.00  0.00    -0.481 OA
ATOM      5  H   UNL     1       6.640   4.505   2.734  1.00  0.00     0.296 HD
ENDBRANCH   2   4
ENDBRANCH   1   2
BRANCH   1   6
ATOM      6  C   UNL     1       4.963   1.803   0.858  1.00  0.00     0.047 C 
BRANCH   6   7
ATOM      7  C   UNL     1       5.807   0.596   0.805  1.00  0.00    -0.047 A 
ATOM      8  C   UNL     1       5.924  -0.171   1.958  1.00  0.00     0.004 A 
ATOM      9  C   UNL     1       6.497   0.169  -0.300  1.00  0.00     0.004 A 
ATOM     10  C   UNL     1       6.718  -1.316   1.949  1.00  0.00     0.000 A 
ATOM     11  C   UNL     1       7.291  -0.960  -0.341  1.00  0.00     0.000 A 
ATOM     12  C   UNL     1       7.389  -1.702   0.820  1.00  0.00     0.000 A 
ENDBRANCH   6   7
ENDBRANCH   1   6
TORSDOF 4
ENDMDL
MODEL 5
REMARK VINA RESULT:      -6.6      2.000      2.744
REMARK SMILES O=C(O)CCc1ccccc1
REMARK SMILES IDX 4 1 2 2 1 3 3 4 5 6 6 7 7 8 11 9 8 10 10 11 9 12
REMARK H PARENT 3 5
REMARK Flexibility Score: inf
ROOT
ATOM      1  C   UNL     1       7.994  -2.211   0.809  1.00  0.00     0.127 C 
ENDROOT
BRANCH   1   2
ATOM      2  C   UNL     1       8.762  -3.356   0.291  1.00  0.00     0.303 C 
ATOM      3  O   UNL     1       9.626  -3.887   1.028  1.00  0.00    -0.252 OA
BRANCH   2   4
ATOM      4  O   UNL     1       8.547  -3.852  -0.980  1.00  0.00    -0.481 OA
ATOM      5  H   UNL     1       9.304  -4.206  -1.593  1.00  0.00     0.296 HD
ENDBRANCH   2   4
ENDBRANCH   1   2
BRANCH   1   6
ATOM      6  C   UNL     1       7.484  -1.431  -0.398  1.00  0.00     0.047 C 
BRANCH   6   7
ATOM      7  C   UNL     1       6.620  -0.303  -0.007  1.00  0.00    -0.047 A 
ATOM      8  C   UNL     1       6.093  -0.299   1.279  1.00  0.00     0.004 A 
ATOM      9  C   UNL     1       6.287   0.749  -0.820  1.00  0.00     0.004 A 
ATOM     10  C   UNL     1       5.267   0.748   1.684  1.00  0.00     0.000 A 
ATOM     11  C   UNL     1       5.471   1.800  -0.448  1.00  0.00     0.000 A 
ATOM     12  C   UNL     1       4.962   1.777   0.836  1.00  0.00     0.000 A 
ENDBRANCH   6   7
ENDBRANCH   1   6
TORSDOF 4
ENDMDL
