@<TRIPOS>MOLECULE
/home/cewinharhar/GITHUB/reincatalyze/data/processed/docking_pred/2023-Apr-25-1829_maxeplen10_maxtrainstep200_exh32_gamma099_lrac3e-4_lrcr1e-3/b0dbf451e4e891e0fb60bf6ca530f921e690d9da_ligand_2.pdbqt
 12 12 0 0 0
SMALL
GASTEIGER

@<TRIPOS>ATOM
      1  C          8.4320   -0.6110   -2.1730 C.3     1  UNL1        0.1270
      2  C          8.4570   -1.8800   -2.9210 C.2     1  UNL1        0.3030
      3  O          9.5550   -2.4600   -3.0930 O.2     1  UNL1       -0.2520
      4  O          7.3000   -2.4380   -3.4310 O.3     1  UNL1       -0.4810
      5  H          7.2910   -3.1500   -4.1850 H       1  UNL1        0.2960
      6  C          6.9920   -0.1110   -2.1880 C.3     1  UNL1        0.0470
      7  C          6.4620    0.0980   -0.8290 C.2     1  UNL1       -0.0470
      8  C          6.5840   -0.9400    0.0870 C.2     1  UNL1        0.0040
      9  C          5.8480    1.2440   -0.3930 C.2     1  UNL1        0.0040
     10  C          6.0900   -0.7820    1.3810 C.2     1  UNL1        0.0000
     11  C          5.3490    1.4310    0.8810 C.2     1  UNL1        0.0000
     12  C          5.4840    0.3810    1.7690 C.2     1  UNL1        0.0000
@<TRIPOS>BOND
     1     5     4    1
     2     4     2    1
     3     3     2    2
     4     2     1    1
     5     6     1    1
     6     6     7    1
     7     7     9    2
     8     7     8    1
     9     9    11    1
    10     8    10    2
    11    11    12    2
    12    10    12    1
