MODEL 1
REMARK VINA RESULT:      -7.3      0.000      0.000
REMARK SMILES O=C(O)CCc1ccccc1
REMARK SMILES IDX 4 1 2 2 1 3 3 4 5 6 6 7 7 8 11 9 8 10 10 11 9 12
REMARK H PARENT 3 5
REMARK Flexibility Score: inf
ROOT
ATOM      1  C   UNL     1       8.473  -0.639  -2.156  1.00  0.00     0.127 C 
ENDROOT
BRANCH   1   2
ATOM      2  C   UNL     1       8.472  -1.906  -2.909  1.00  0.00     0.303 C 
ATOM      3  O   UNL     1       9.557  -2.514  -3.071  1.00  0.00    -0.252 OA
BRANCH   2   4
ATOM      4  O   UNL     1       7.307  -2.431  -3.432  1.00  0.00    -0.481 OA
ATOM      5  H   UNL     1       6.362  -2.202  -3.071  1.00  0.00     0.296 HD
ENDBRANCH   2   4
ENDBRANCH   1   2
BRANCH   1   6
ATOM      6  C   UNL     1       7.041  -0.117  -2.156  1.00  0.00     0.047 C 
BRANCH   6   7
ATOM      7  C   UNL     1       6.496   0.010  -0.793  1.00  0.00    -0.047 A 
ATOM      8  C   UNL     1       5.853   1.194  -0.453  1.00  0.00     0.004 A 
ATOM      9  C   UNL     1       6.577  -0.955   0.178  1.00  0.00     0.004 A 
ATOM     10  C   UNL     1       5.330   1.354   0.829  1.00  0.00     0.000 A 
ATOM     11  C   UNL     1       6.069  -0.827   1.455  1.00  0.00     0.000 A 
ATOM     12  C   UNL     1       5.437   0.361   1.764  1.00  0.00     0.000 A 
ENDBRANCH   6   7
ENDBRANCH   1   6
TORSDOF 4
ENDMDL
MODEL 2
REMARK VINA RESULT:      -7.3      0.071      1.430
REMARK SMILES O=C(O)CCc1ccccc1
REMARK SMILES IDX 4 1 2 2 1 3 3 4 5 6 6 7 7 8 11 9 8 10 10 11 9 12
REMARK H PARENT 3 5
REMARK Flexibility Score: inf
ROOT
ATOM      1  C   UNL     1       8.432  -0.611  -2.173  1.00  0.00     0.127 C 
ENDROOT
BRANCH   1   2
ATOM      2  C   UNL     1       8.457  -1.880  -2.921  1.00  0.00     0.303 C 
ATOM      3  O   UNL     1       9.555  -2.460  -3.093  1.00  0.00    -0.252 OA
BRANCH   2   4
ATOM      4  O   UNL     1       7.300  -2.438  -3.431  1.00  0.00    -0.481 OA
ATOM      5  H   UNL     1       7.291  -3.150  -4.185  1.00  0.00     0.296 HD
ENDBRANCH   2   4
ENDBRANCH   1   2
BRANCH   1   6
ATOM      6  C   UNL     1       6.992  -0.111  -2.188  1.00  0.00     0.047 C 
BRANCH   6   7
ATOM      7  C   UNL     1       6.462   0.098  -0.829  1.00  0.00    -0.047 A 
ATOM      8  C   UNL     1       6.584  -0.940   0.087  1.00  0.00     0.004 A 
ATOM      9  C   UNL     1       5.848   1.244  -0.393  1.00  0.00     0.004 A 
ATOM     10  C   UNL     1       6.090  -0.782   1.381  1.00  0.00     0.000 A 
ATOM     11  C   UNL     1       5.349   1.431   0.881  1.00  0.00     0.000 A 
ATOM     12  C   UNL     1       5.484   0.381   1.769  1.00  0.00     0.000 A 
ENDBRANCH   6   7
ENDBRANCH   1   6
TORSDOF 4
ENDMDL
MODEL 3
REMARK VINA RESULT:      -7.2      0.643      1.620
REMARK SMILES O=C(O)CCc1ccccc1
REMARK SMILES IDX 4 1 2 2 1 3 3 4 5 6 6 7 7 8 11 9 8 10 10 11 9 12
REMARK H PARENT 3 5
REMARK Flexibility Score: inf
ROOT
ATOM      1  C   UNL     1       8.264  -0.908  -1.856  1.00  0.00     0.127 C 
ENDROOT
BRANCH   1   2
ATOM      2  C   UNL     1       8.381  -1.991  -2.848  1.00  0.00     0.303 C 
ATOM      3  O   UNL     1       9.514  -2.472  -3.088  1.00  0.00    -0.252 OA
BRANCH   2   4
ATOM      4  O   UNL     1       7.273  -2.482  -3.511  1.00  0.00    -0.481 OA
ATOM      5  H   UNL     1       6.358  -1.997  -3.535  1.00  0.00     0.296 HD
ENDBRANCH   2   4
ENDBRANCH   1   2
BRANCH   1   6
ATOM      6  C   UNL     1       7.297  -1.389  -0.780  1.00  0.00     0.047 C 
BRANCH   6   7
ATOM      7  C   UNL     1       6.508  -0.283  -0.208  1.00  0.00    -0.047 A 
ATOM      8  C   UNL     1       6.086  -0.396   1.111  1.00  0.00     0.004 A 
ATOM      9  C   UNL     1       6.149   0.856  -0.881  1.00  0.00     0.004 A 
ATOM     10  C   UNL     1       5.332   0.626   1.686  1.00  0.00     0.000 A 
ATOM     11  C   UNL     1       5.404   1.885  -0.341  1.00  0.00     0.000 A 
ATOM     12  C   UNL     1       4.998   1.744   0.972  1.00  0.00     0.000 A 
ENDBRANCH   6   7
ENDBRANCH   1   6
TORSDOF 4
ENDMDL
MODEL 4
REMARK VINA RESULT:      -6.8      3.387      5.099
REMARK SMILES O=C(O)CCc1ccccc1
REMARK SMILES IDX 4 1 2 2 1 3 3 4 5 6 6 7 7 8 11 9 8 10 10 11 9 12
REMARK H PARENT 3 5
REMARK Flexibility Score: inf
ROOT
ATOM      1  C   UNL     1       4.989   1.782   0.742  1.00  0.00     0.127 C 
ENDROOT
BRANCH   1   2
ATOM      2  C   UNL     1       4.459   1.108   1.940  1.00  0.00     0.303 C 
ATOM      3  O   UNL     1       5.142   0.204   2.478  1.00  0.00    -0.252 OA
BRANCH   2   4
ATOM      4  O   UNL     1       3.234   1.453   2.478  1.00  0.00    -0.481 OA
ATOM      5  H   UNL     1       2.327   1.150   2.076  1.00  0.00     0.296 HD
ENDBRANCH   2   4
ENDBRANCH   1   2
BRANCH   1   6
ATOM      6  C   UNL     1       6.509   1.777   0.860  1.00  0.00     0.047 C 
BRANCH   6   7
ATOM      7  C   UNL     1       7.152   1.082  -0.269  1.00  0.00    -0.047 A 
ATOM      8  C   UNL     1       6.377   0.215  -1.030  1.00  0.00     0.004 A 
ATOM      9  C   UNL     1       8.468   1.219  -0.628  1.00  0.00     0.004 A 
ATOM     10  C   UNL     1       6.951  -0.465  -2.102  1.00  0.00     0.000 A 
ATOM     11  C   UNL     1       9.066   0.559  -1.684  1.00  0.00     0.000 A 
ATOM     12  C   UNL     1       8.271  -0.296  -2.422  1.00  0.00     0.000 A 
ENDBRANCH   6   7
ENDBRANCH   1   6
TORSDOF 4
ENDMDL
MODEL 5
REMARK VINA RESULT:      -6.6      1.921      2.656
REMARK SMILES O=C(O)CCc1ccccc1
REMARK SMILES IDX 4 1 2 2 1 3 3 4 5 6 6 7 7 8 11 9 8 10 10 11 9 12
REMARK H PARENT 3 5
REMARK Flexibility Score: inf
ROOT
ATOM      1  C   UNL     1       8.282   0.110  -2.203  1.00  0.00     0.127 C 
ENDROOT
BRANCH   1   2
ATOM      2  C   UNL     1       9.384   0.308  -1.244  1.00  0.00     0.303 C 
ATOM      3  O   UNL     1       9.437  -0.421  -0.226  1.00  0.00    -0.252 OA
BRANCH   2   4
ATOM      4  O   UNL     1      10.351   1.273  -1.448  1.00  0.00    -0.481 OA
ATOM      5  H   UNL     1      10.245   2.262  -1.153  1.00  0.00     0.296 HD
ENDBRANCH   2   4
ENDBRANCH   1   2
BRANCH   1   6
ATOM      6  C   UNL     1       7.178  -0.641  -1.468  1.00  0.00     0.047 C 
BRANCH   6   7
ATOM      7  C   UNL     1       6.377   0.249  -0.609  1.00  0.00    -0.047 A 
ATOM      8  C   UNL     1       6.116  -0.160   0.693  1.00  0.00     0.004 A 
ATOM      9  C   UNL     1       5.858   1.457  -0.999  1.00  0.00     0.004 A 
ATOM     10  C   UNL     1       5.356   0.652   1.533  1.00  0.00     0.000 A 
ATOM     11  C   UNL     1       5.103   2.283  -0.190  1.00  0.00     0.000 A 
ATOM     12  C   UNL     1       4.860   1.850   1.099  1.00  0.00     0.000 A 
ENDBRANCH   6   7
ENDBRANCH   1   6
TORSDOF 4
ENDMDL
