@<TRIPOS>MOLECULE
/home/cewinharhar/GITHUB/reincatalyze/data/processed/docking_pred/2023-Apr-25-1829_maxeplen10_maxtrainstep200_exh32_gamma099_lrac3e-4_lrcr1e-3/b0dbf451e4e891e0fb60bf6ca530f921e690d9da_ligand_2.pdbqt
 12 12 0 0 0
SMALL
GASTEIGER

@<TRIPOS>ATOM
      1  C          4.9890    1.7820    0.7420 C.3     1  UNL1        0.1270
      2  C          4.4590    1.1080    1.9400 C.2     1  UNL1        0.3030
      3  O          5.1420    0.2040    2.4780 O.2     1  UNL1       -0.2520
      4  O          3.2340    1.4530    2.4780 O.3     1  UNL1       -0.4810
      5  H          2.3270    1.1500    2.0760 H       1  UNL1        0.2960
      6  C          6.5090    1.7770    0.8600 C.3     1  UNL1        0.0470
      7  C          7.1520    1.0820   -0.2690 C.2     1  UNL1       -0.0470
      8  C          6.3770    0.2150   -1.0300 C.2     1  UNL1        0.0040
      9  C          8.4680    1.2190   -0.6280 C.2     1  UNL1        0.0040
     10  C          6.9510   -0.4650   -2.1020 C.2     1  UNL1        0.0000
     11  C          9.0660    0.5590   -1.6840 C.2     1  UNL1        0.0000
     12  C          8.2710   -0.2960   -2.4220 C.2     1  UNL1        0.0000
@<TRIPOS>BOND
     1    12    10    2
     2    12    11    1
     3    10     8    1
     4    11     9    2
     5     8     7    2
     6     9     7    1
     7     7     6    1
     8     1     6    1
     9     1     2    1
    10     2     3    2
    11     2     4    1
    12     5     4    1
