@<TRIPOS>MOLECULE
/home/cewinharhar/GITHUB/reincatalyze/data/processed/docking_pred/2023-Apr-25-1829_maxeplen10_maxtrainstep200_exh32_gamma099_lrac3e-4_lrcr1e-3/b0dbf451e4e891e0fb60bf6ca530f921e690d9da_ligand_2.pdbqt
 12 12 0 0 0
SMALL
GASTEIGER

@<TRIPOS>ATOM
      1  C          8.4730   -0.6390   -2.1560 C.3     1  UNL1        0.1270
      2  C          8.4720   -1.9060   -2.9090 C.2     1  UNL1        0.3030
      3  O          9.5570   -2.5140   -3.0710 O.2     1  UNL1       -0.2520
      4  O          7.3070   -2.4310   -3.4320 O.3     1  UNL1       -0.4810
      5  H          6.3620   -2.2020   -3.0710 H       1  UNL1        0.2960
      6  C          7.0410   -0.1170   -2.1560 C.3     1  UNL1        0.0470
      7  C          6.4960    0.0100   -0.7930 C.2     1  UNL1       -0.0470
      8  C          5.8530    1.1940   -0.4530 C.2     1  UNL1        0.0040
      9  C          6.5770   -0.9550    0.1780 C.2     1  UNL1        0.0040
     10  C          5.3300    1.3540    0.8290 C.2     1  UNL1        0.0000
     11  C          6.0690   -0.8270    1.4550 C.2     1  UNL1        0.0000
     12  C          5.4370    0.3610    1.7640 C.2     1  UNL1        0.0000
@<TRIPOS>BOND
     1     4     5    1
     2     4     2    1
     3     3     2    2
     4     2     1    1
     5     1     6    1
     6     6     7    1
     7     7     8    2
     8     7     9    1
     9     8    10    1
    10     9    11    2
    11    10    12    2
    12    11    12    1
