@<TRIPOS>MOLECULE
/home/cewinharhar/GITHUB/reincatalyze/data/processed/docking_pred/2023-Apr-25-1829_maxeplen10_maxtrainstep200_exh32_gamma099_lrac3e-4_lrcr1e-3/b0dbf451e4e891e0fb60bf6ca530f921e690d9da_ligand_2.pdbqt
 12 12 0 0 0
SMALL
GASTEIGER

@<TRIPOS>ATOM
      1  C          8.2820    0.1100   -2.2030 C.3     1  UNL1        0.1270
      2  C          9.3840    0.3080   -1.2440 C.2     1  UNL1        0.3030
      3  O          9.4370   -0.4210   -0.2260 O.2     1  UNL1       -0.2520
      4  O         10.3510    1.2730   -1.4480 O.3     1  UNL1       -0.4810
      5  H         10.2450    2.2620   -1.1530 H       1  UNL1        0.2960
      6  C          7.1780   -0.6410   -1.4680 C.3     1  UNL1        0.0470
      7  C          6.3770    0.2490   -0.6090 C.2     1  UNL1       -0.0470
      8  C          6.1160   -0.1600    0.6930 C.2     1  UNL1        0.0040
      9  C          5.8580    1.4570   -0.9990 C.2     1  UNL1        0.0040
     10  C          5.3560    0.6520    1.5330 C.2     1  UNL1        0.0000
     11  C          5.1030    2.2830   -0.1900 C.2     1  UNL1        0.0000
     12  C          4.8600    1.8500    1.0990 C.2     1  UNL1        0.0000
@<TRIPOS>BOND
     1     1     6    1
     2     1     2    1
     3     6     7    1
     4     4     2    1
     5     4     5    1
     6     2     3    2
     7     9     7    2
     8     9    11    1
     9     7     8    1
    10    11    12    2
    11     8    10    2
    12    12    10    1
