@<TRIPOS>MOLECULE
/home/cewinharhar/GITHUB/reincatalyze/data/processed/docking_pred/2023-Apr-25-1829_maxeplen10_maxtrainstep200_exh32_gamma099_lrac3e-4_lrcr1e-3/b0dbf451e4e891e0fb60bf6ca530f921e690d9da_ligand_2.pdbqt
 12 12 0 0 0
SMALL
GASTEIGER

@<TRIPOS>ATOM
      1  C          8.2640   -0.9080   -1.8560 C.3     1  UNL1        0.1270
      2  C          8.3810   -1.9910   -2.8480 C.2     1  UNL1        0.3030
      3  O          9.5140   -2.4720   -3.0880 O.2     1  UNL1       -0.2520
      4  O          7.2730   -2.4820   -3.5110 O.3     1  UNL1       -0.4810
      5  H          6.3580   -1.9970   -3.5350 H       1  UNL1        0.2960
      6  C          7.2970   -1.3890   -0.7800 C.3     1  UNL1        0.0470
      7  C          6.5080   -0.2830   -0.2080 C.2     1  UNL1       -0.0470
      8  C          6.0860   -0.3960    1.1110 C.2     1  UNL1        0.0040
      9  C          6.1490    0.8560   -0.8810 C.2     1  UNL1        0.0040
     10  C          5.3320    0.6260    1.6860 C.2     1  UNL1        0.0000
     11  C          5.4040    1.8850   -0.3410 C.2     1  UNL1        0.0000
     12  C          4.9980    1.7440    0.9720 C.2     1  UNL1        0.0000
@<TRIPOS>BOND
     1     5     4    1
     2     4     2    1
     3     3     2    2
     4     2     1    1
     5     1     6    1
     6     9    11    1
     7     9     7    2
     8     6     7    1
     9    11    12    2
    10     7     8    1
    11    12    10    1
    12     8    10    2
