MODEL 1
REMARK VINA RESULT:      -7.3      0.000      0.000
REMARK SMILES O=C(O)CCc1ccccc1
REMARK SMILES IDX 4 1 2 2 1 3 3 4 5 6 6 7 7 8 11 9 8 10 10 11 9 12
REMARK H PARENT 3 5
REMARK Flexibility Score: inf
ROOT
ATOM      1  C   UNL     1       8.478  -0.712  -2.058  1.00  0.00     0.127 C 
ENDROOT
BRANCH   1   2
ATOM      2  C   UNL     1       8.475  -1.931  -2.887  1.00  0.00     0.303 C 
ATOM      3  O   UNL     1       9.560  -2.520  -3.100  1.00  0.00    -0.252 OA
BRANCH   2   4
ATOM      4  O   UNL     1       7.305  -2.431  -3.427  1.00  0.00    -0.481 OA
ATOM      5  H   UNL     1       7.194  -3.411  -3.745  1.00  0.00     0.296 HD
ENDBRANCH   2   4
ENDBRANCH   1   2
BRANCH   1   6
ATOM      6  C   UNL     1       7.079  -0.111  -2.141  1.00  0.00     0.047 C 
BRANCH   6   7
ATOM      7  C   UNL     1       6.489   0.110  -0.808  1.00  0.00    -0.047 A 
ATOM      8  C   UNL     1       6.608  -0.904   0.135  1.00  0.00     0.004 A 
ATOM      9  C   UNL     1       5.821   1.243  -0.423  1.00  0.00     0.004 A 
ATOM     10  C   UNL     1       6.057  -0.736   1.404  1.00  0.00     0.000 A 
ATOM     11  C   UNL     1       5.266   1.440   0.825  1.00  0.00     0.000 A 
ATOM     12  C   UNL     1       5.398   0.415   1.741  1.00  0.00     0.000 A 
ENDBRANCH   6   7
ENDBRANCH   1   6
TORSDOF 4
ENDMDL
MODEL 2
REMARK VINA RESULT:      -7.3      0.081      1.431
REMARK SMILES O=C(O)CCc1ccccc1
REMARK SMILES IDX 4 1 2 2 1 3 3 4 5 6 6 7 7 8 11 9 8 10 10 11 9 12
REMARK H PARENT 3 5
REMARK Flexibility Score: inf
ROOT
ATOM      1  C   UNL     1       8.475  -0.644  -2.160  1.00  0.00     0.127 C 
ENDROOT
BRANCH   1   2
ATOM      2  C   UNL     1       8.472  -1.908  -2.918  1.00  0.00     0.303 C 
ATOM      3  O   UNL     1       9.558  -2.510  -3.094  1.00  0.00    -0.252 OA
BRANCH   2   4
ATOM      4  O   UNL     1       7.304  -2.436  -3.431  1.00  0.00    -0.481 OA
ATOM      5  H   UNL     1       6.752  -3.175  -2.958  1.00  0.00     0.296 HD
ENDBRANCH   2   4
ENDBRANCH   1   2
BRANCH   1   6
ATOM      6  C   UNL     1       7.044  -0.120  -2.157  1.00  0.00     0.047 C 
BRANCH   6   7
ATOM      7  C   UNL     1       6.501   0.007  -0.793  1.00  0.00    -0.047 A 
ATOM      8  C   UNL     1       5.866   1.195  -0.450  1.00  0.00     0.004 A 
ATOM      9  C   UNL     1       6.578  -0.960   0.176  1.00  0.00     0.004 A 
ATOM     10  C   UNL     1       5.346   1.356   0.833  1.00  0.00     0.000 A 
ATOM     11  C   UNL     1       6.072  -0.831   1.454  1.00  0.00     0.000 A 
ATOM     12  C   UNL     1       5.448   0.361   1.766  1.00  0.00     0.000 A 
ENDBRANCH   6   7
ENDBRANCH   1   6
TORSDOF 4
ENDMDL
MODEL 3
REMARK VINA RESULT:      -7.2      0.593      1.579
REMARK SMILES O=C(O)CCc1ccccc1
REMARK SMILES IDX 4 1 2 2 1 3 3 4 5 6 6 7 7 8 11 9 8 10 10 11 9 12
REMARK H PARENT 3 5
REMARK Flexibility Score: inf
ROOT
ATOM      1  C   UNL     1       8.288  -0.916  -1.860  1.00  0.00     0.127 C 
ENDROOT
BRANCH   1   2
ATOM      2  C   UNL     1       8.415  -1.997  -2.854  1.00  0.00     0.303 C 
ATOM      3  O   UNL     1       9.556  -2.444  -3.118  1.00  0.00    -0.252 OA
BRANCH   2   4
ATOM      4  O   UNL     1       7.308  -2.522  -3.492  1.00  0.00    -0.481 OA
ATOM      5  H   UNL     1       6.367  -2.572  -3.059  1.00  0.00     0.296 HD
ENDBRANCH   2   4
ENDBRANCH   1   2
BRANCH   1   6
ATOM      6  C   UNL     1       7.399  -1.442  -0.738  1.00  0.00     0.047 C 
BRANCH   6   7
ATOM      7  C   UNL     1       6.578  -0.377  -0.134  1.00  0.00    -0.047 A 
ATOM      8  C   UNL     1       6.253   0.722  -0.919  1.00  0.00     0.004 A 
ATOM      9  C   UNL     1       6.110  -0.382   1.154  1.00  0.00     0.004 A 
ATOM     10  C   UNL     1       5.484   1.753  -0.382  1.00  0.00     0.000 A 
ATOM     11  C   UNL     1       5.346   0.622   1.715  1.00  0.00     0.000 A 
ATOM     12  C   UNL     1       5.040   1.702   0.911  1.00  0.00     0.000 A 
ENDBRANCH   6   7
ENDBRANCH   1   6
TORSDOF 4
ENDMDL
MODEL 4
REMARK VINA RESULT:      -6.8      3.383      5.091
REMARK SMILES O=C(O)CCc1ccccc1
REMARK SMILES IDX 4 1 2 2 1 3 3 4 5 6 6 7 7 8 11 9 8 10 10 11 9 12
REMARK H PARENT 3 5
REMARK Flexibility Score: inf
ROOT
ATOM      1  C   UNL     1       4.978   1.796   0.717  1.00  0.00     0.127 C 
ENDROOT
BRANCH   1   2
ATOM      2  C   UNL     1       4.466   1.125   1.925  1.00  0.00     0.303 C 
ATOM      3  O   UNL     1       5.166   0.237   2.466  1.00  0.00    -0.252 OA
BRANCH   2   4
ATOM      4  O   UNL     1       3.240   1.458   2.469  1.00  0.00    -0.481 OA
ATOM      5  H   UNL     1       2.352   0.991   2.207  1.00  0.00     0.296 HD
ENDBRANCH   2   4
ENDBRANCH   1   2
BRANCH   1   6
ATOM      6  C   UNL     1       6.497   1.829   0.832  1.00  0.00     0.047 C 
BRANCH   6   7
ATOM      7  C   UNL     1       7.155   1.126  -0.284  1.00  0.00    -0.047 A 
ATOM      8  C   UNL     1       6.379   0.290  -1.078  1.00  0.00     0.004 A 
ATOM      9  C   UNL     1       8.485   1.226  -0.600  1.00  0.00     0.004 A 
ATOM     10  C   UNL     1       6.966  -0.397  -2.139  1.00  0.00     0.000 A 
ATOM     11  C   UNL     1       9.095   0.559  -1.644  1.00  0.00     0.000 A 
ATOM     12  C   UNL     1       8.299  -0.264  -2.415  1.00  0.00     0.000 A 
ENDBRANCH   6   7
ENDBRANCH   1   6
TORSDOF 4
ENDMDL
MODEL 5
REMARK VINA RESULT:      -6.6      2.009      2.493
REMARK SMILES O=C(O)CCc1ccccc1
REMARK SMILES IDX 4 1 2 2 1 3 3 4 5 6 6 7 7 8 11 9 8 10 10 11 9 12
REMARK H PARENT 3 5
REMARK Flexibility Score: inf
ROOT
ATOM      1  C   UNL     1       7.992  -2.162   0.842  1.00  0.00     0.127 C 
ENDROOT
BRANCH   1   2
ATOM      2  C   UNL     1       8.739  -3.327   0.336  1.00  0.00     0.303 C 
ATOM      3  O   UNL     1       9.579  -3.879   1.084  1.00  0.00    -0.252 OA
BRANCH   2   4
ATOM      4  O   UNL     1       8.528  -3.818  -0.938  1.00  0.00    -0.481 OA
ATOM      5  H   UNL     1       8.373  -4.822  -1.147  1.00  0.00     0.296 HD
ENDBRANCH   2   4
ENDBRANCH   1   2
BRANCH   1   6
ATOM      6  C   UNL     1       7.425  -1.432  -0.370  1.00  0.00     0.047 C 
BRANCH   6   7
ATOM      7  C   UNL     1       6.571  -0.295   0.016  1.00  0.00    -0.047 A 
ATOM      8  C   UNL     1       6.049  -0.276   1.304  1.00  0.00     0.004 A 
ATOM      9  C   UNL     1       6.241   0.753  -0.804  1.00  0.00     0.004 A 
ATOM     10  C   UNL     1       5.232   0.779   1.704  1.00  0.00     0.000 A 
ATOM     11  C   UNL     1       5.435   1.813  -0.438  1.00  0.00     0.000 A 
ATOM     12  C   UNL     1       4.931   1.804   0.848  1.00  0.00     0.000 A 
ENDBRANCH   6   7
ENDBRANCH   1   6
TORSDOF 4
ENDMDL
