@<TRIPOS>MOLECULE
/home/cewinharhar/GITHUB/reincatalyze/data/processed/docking_pred/2023-Apr-25-1829_maxeplen10_maxtrainstep200_exh32_gamma099_lrac3e-4_lrcr1e-3/b1cc709a4c09585943c6b669d8b61c6b26bf0288_ligand_2.pdbqt
 12 12 0 0 0
SMALL
GASTEIGER

@<TRIPOS>ATOM
      1  C          8.2880   -0.9160   -1.8600 C.3     1  UNL1        0.1270
      2  C          8.4150   -1.9970   -2.8540 C.2     1  UNL1        0.3030
      3  O          9.5560   -2.4440   -3.1180 O.2     1  UNL1       -0.2520
      4  O          7.3080   -2.5220   -3.4920 O.3     1  UNL1       -0.4810
      5  H          6.3670   -2.5720   -3.0590 H       1  UNL1        0.2960
      6  C          7.3990   -1.4420   -0.7380 C.3     1  UNL1        0.0470
      7  C          6.5780   -0.3770   -0.1340 C.2     1  UNL1       -0.0470
      8  C          6.2530    0.7220   -0.9190 C.2     1  UNL1        0.0040
      9  C          6.1100   -0.3820    1.1540 C.2     1  UNL1        0.0040
     10  C          5.4840    1.7530   -0.3820 C.2     1  UNL1        0.0000
     11  C          5.3460    0.6220    1.7150 C.2     1  UNL1        0.0000
     12  C          5.0400    1.7020    0.9110 C.2     1  UNL1        0.0000
@<TRIPOS>BOND
     1     4     5    1
     2     4     2    1
     3     3     2    2
     4     2     1    1
     5     1     6    1
     6     8    10    1
     7     8     7    2
     8     6     7    1
     9    10    12    2
    10     7     9    1
    11    12    11    1
    12     9    11    2
