@<TRIPOS>MOLECULE
/home/cewinharhar/GITHUB/reincatalyze/data/processed/docking_pred/2023-Apr-25-1829_maxeplen10_maxtrainstep200_exh32_gamma099_lrac3e-4_lrcr1e-3/b1cc709a4c09585943c6b669d8b61c6b26bf0288_ligand_2.pdbqt
 12 12 0 0 0
SMALL
GASTEIGER

@<TRIPOS>ATOM
      1  C          8.4780   -0.7120   -2.0580 C.3     1  UNL1        0.1270
      2  C          8.4750   -1.9310   -2.8870 C.2     1  UNL1        0.3030
      3  O          9.5600   -2.5200   -3.1000 O.2     1  UNL1       -0.2520
      4  O          7.3050   -2.4310   -3.4270 O.3     1  UNL1       -0.4810
      5  H          7.1940   -3.4110   -3.7450 H       1  UNL1        0.2960
      6  C          7.0790   -0.1110   -2.1410 C.3     1  UNL1        0.0470
      7  C          6.4890    0.1100   -0.8080 C.2     1  UNL1       -0.0470
      8  C          6.6080   -0.9040    0.1350 C.2     1  UNL1        0.0040
      9  C          5.8210    1.2430   -0.4230 C.2     1  UNL1        0.0040
     10  C          6.0570   -0.7360    1.4040 C.2     1  UNL1        0.0000
     11  C          5.2660    1.4400    0.8250 C.2     1  UNL1        0.0000
     12  C          5.3980    0.4150    1.7410 C.2     1  UNL1        0.0000
@<TRIPOS>BOND
     1     5     4    1
     2     4     2    1
     3     3     2    2
     4     2     1    1
     5     6     1    1
     6     6     7    1
     7     7     9    2
     8     7     8    1
     9     9    11    1
    10     8    10    2
    11    11    12    2
    12    10    12    1
