@<TRIPOS>MOLECULE
/home/cewinharhar/GITHUB/reincatalyze/data/processed/docking_pred/2023-Apr-25-1829_maxeplen10_maxtrainstep200_exh32_gamma099_lrac3e-4_lrcr1e-3/b1cc709a4c09585943c6b669d8b61c6b26bf0288_ligand_2.pdbqt
 12 12 0 0 0
SMALL
GASTEIGER

@<TRIPOS>ATOM
      1  C          7.9920   -2.1620    0.8420 C.3     1  UNL1        0.1270
      2  C          8.7390   -3.3270    0.3360 C.2     1  UNL1        0.3030
      3  O          9.5790   -3.8790    1.0840 O.2     1  UNL1       -0.2520
      4  O          8.5280   -3.8180   -0.9380 O.3     1  UNL1       -0.4810
      5  H          8.3730   -4.8220   -1.1470 H       1  UNL1        0.2960
      6  C          7.4250   -1.4320   -0.3700 C.3     1  UNL1        0.0470
      7  C          6.5710   -0.2950    0.0160 C.2     1  UNL1       -0.0470
      8  C          6.0490   -0.2760    1.3040 C.2     1  UNL1        0.0040
      9  C          6.2410    0.7530   -0.8040 C.2     1  UNL1        0.0040
     10  C          5.2320    0.7790    1.7040 C.2     1  UNL1        0.0000
     11  C          5.4350    1.8130   -0.4380 C.2     1  UNL1        0.0000
     12  C          4.9310    1.8040    0.8480 C.2     1  UNL1        0.0000
@<TRIPOS>BOND
     1     5     4    1
     2     4     2    1
     3     9    11    1
     4     9     7    2
     5    11    12    2
     6     6     7    1
     7     6     1    1
     8     7     8    1
     9     2     1    1
    10     2     3    2
    11    12    10    1
    12     8    10    2
