@<TRIPOS>MOLECULE
/home/cewinharhar/GITHUB/reincatalyze/data/processed/docking_pred/2023-Apr-25-1829_maxeplen10_maxtrainstep200_exh32_gamma099_lrac3e-4_lrcr1e-3/b393d0f0af23d36e99ef7bf88514b4beffd0378d_ligand_2.pdbqt
 12 12 0 0 0
SMALL
GASTEIGER

@<TRIPOS>ATOM
      1  C          8.4980   -0.6150   -2.1920 C.3     1  UNL1        0.1270
      2  C          8.4860   -1.8980   -2.9160 C.2     1  UNL1        0.3030
      3  O          9.5650   -2.5170   -3.0670 O.2     1  UNL1       -0.2520
      4  O          7.3160   -2.4260   -3.4260 O.3     1  UNL1       -0.4810
      5  H          6.8310   -3.2460   -3.0170 H       1  UNL1        0.2960
      6  C          7.0620   -0.1030   -2.1640 C.3     1  UNL1        0.0470
      7  C          6.5270   -0.0210   -0.7930 C.2     1  UNL1       -0.0470
      8  C          5.8630    1.1410   -0.4190 C.2     1  UNL1        0.0040
      9  C          6.6390   -1.0070    0.1530 C.2     1  UNL1        0.0040
     10  C          5.3490    1.2580    0.8710 C.2     1  UNL1        0.0000
     11  C          6.1410   -0.9210    1.4370 C.2     1  UNL1        0.0000
     12  C          5.4860    0.2460    1.7810 C.2     1  UNL1        0.0000
@<TRIPOS>BOND
     1     4     5    1
     2     4     2    1
     3     3     2    2
     4     2     1    1
     5     1     6    1
     6     6     7    1
     7     7     8    2
     8     7     9    1
     9     8    10    1
    10     9    11    2
    11    10    12    2
    12    11    12    1
