@<TRIPOS>MOLECULE
/home/cewinharhar/GITHUB/reincatalyze/data/processed/docking_pred/2023-Apr-25-1829_maxeplen10_maxtrainstep200_exh32_gamma099_lrac3e-4_lrcr1e-3/b393d0f0af23d36e99ef7bf88514b4beffd0378d_ligand_2.pdbqt
 12 12 0 0 0
SMALL
GASTEIGER

@<TRIPOS>ATOM
      1  C          8.1880   -0.8290   -2.0150 C.3     1  UNL1        0.1270
      2  C          8.3510   -1.9930   -2.9040 C.2     1  UNL1        0.3030
      3  O          9.4920   -2.4930   -3.0430 O.2     1  UNL1       -0.2520
      4  O          7.2760   -2.5380   -3.5790 O.3     1  UNL1       -0.4810
      5  H          7.0530   -3.5510   -3.5780 H       1  UNL1        0.2960
      6  C          7.4510   -1.3140   -0.7720 C.3     1  UNL1        0.0470
      7  C          6.5940   -0.2660   -0.1900 C.2     1  UNL1       -0.0470
      8  C          6.1620   -0.4280    1.1210 C.2     1  UNL1        0.0040
      9  C          6.1800    0.8650   -0.8460 C.2     1  UNL1        0.0040
     10  C          5.3450    0.5390    1.7040 C.2     1  UNL1        0.0000
     11  C          5.3720    1.8400   -0.2960 C.2     1  UNL1        0.0000
     12  C          4.9580    1.6510    1.0080 C.2     1  UNL1        0.0000
@<TRIPOS>BOND
     1     4     5    1
     2     4     2    1
     3     3     2    2
     4     2     1    1
     5     1     6    1
     6     9    11    1
     7     9     7    2
     8     6     7    1
     9    11    12    2
    10     7     8    1
    11    12    10    1
    12     8    10    2
