@<TRIPOS>MOLECULE
/home/cewinharhar/GITHUB/reincatalyze/data/processed/docking_pred/2023-Apr-25-1829_maxeplen10_maxtrainstep200_exh32_gamma099_lrac3e-4_lrcr1e-3/b393d0f0af23d36e99ef7bf88514b4beffd0378d_ligand_2.pdbqt
 12 12 0 0 0
SMALL
GASTEIGER

@<TRIPOS>ATOM
      1  C          8.0340   -2.1160    0.8120 C.3     1  UNL1        0.1270
      2  C          8.7390   -3.3090    0.3080 C.2     1  UNL1        0.3030
      3  O          9.5550   -3.8910    1.0600 O.2     1  UNL1       -0.2520
      4  O          8.5150   -3.7920   -0.9670 O.3     1  UNL1       -0.4810
      5  H          8.7740   -4.7490   -1.2700 H       1  UNL1        0.2960
      6  C          7.4350   -1.4060   -0.3970 C.3     1  UNL1        0.0470
      7  C          6.5770   -0.2730   -0.0070 C.2     1  UNL1       -0.0470
      8  C          6.0460   -0.2670    1.2770 C.2     1  UNL1        0.0040
      9  C          6.2530    0.7820   -0.8200 C.2     1  UNL1        0.0040
     10  C          5.2240    0.7840    1.6810 C.2     1  UNL1        0.0000
     11  C          5.4430    1.8370   -0.4490 C.2     1  UNL1        0.0000
     12  C          4.9290    1.8160    0.8330 C.2     1  UNL1        0.0000
@<TRIPOS>BOND
     1     5     4    1
     2     4     2    1
     3     9    11    1
     4     9     7    2
     5    11    12    2
     6     6     7    1
     7     6     1    1
     8     7     8    1
     9     2     1    1
    10     2     3    2
    11    12    10    1
    12     8    10    2
