@<TRIPOS>MOLECULE
/home/cewinharhar/GITHUB/reincatalyze/data/processed/docking_pred/2023-Apr-25-1829_maxeplen10_maxtrainstep200_exh32_gamma099_lrac3e-4_lrcr1e-3/b393d0f0af23d36e99ef7bf88514b4beffd0378d_ligand_2.pdbqt
 12 12 0 0 0
SMALL
GASTEIGER

@<TRIPOS>ATOM
      1  C          8.4370   -0.6980   -2.0360 C.3     1  UNL1        0.1270
      2  C          8.3950   -1.9210   -2.8580 C.2     1  UNL1        0.3030
      3  O          7.2810   -2.3880   -3.1910 O.2     1  UNL1       -0.2520
      4  O          9.5540   -2.5550   -3.2650 O.3     1  UNL1       -0.4810
      5  H         10.4940   -2.1210   -3.2100 H       1  UNL1        0.2960
      6  C          7.0530   -0.0630   -2.1070 C.3     1  UNL1        0.0470
      7  C          6.4660    0.1400   -0.7700 C.2     1  UNL1       -0.0470
      8  C          6.5920   -0.8830    0.1620 C.2     1  UNL1        0.0040
      9  C          5.7950    1.2670   -0.3710 C.2     1  UNL1        0.0040
     10  C          6.0450   -0.7300    1.4340 C.2     1  UNL1        0.0000
     11  C          5.2420    1.4480    0.8810 C.2     1  UNL1        0.0000
     12  C          5.3820    0.4140    1.7860 C.2     1  UNL1        0.0000
@<TRIPOS>BOND
     1     4     5    1
     2     4     2    1
     3     3     2    2
     4     2     1    1
     5     6     1    1
     6     6     7    1
     7     7     9    2
     8     7     8    1
     9     9    11    1
    10     8    10    2
    11    11    12    2
    12    10    12    1
