MODEL 1
REMARK VINA RESULT:      -7.3      0.000      0.000
REMARK SMILES O=C(O)CCc1ccccc1
REMARK SMILES IDX 4 1 2 2 1 3 3 4 5 6 6 7 7 8 11 9 8 10 10 11 9 12
REMARK H PARENT 3 5
REMARK Flexibility Score: inf
ROOT
ATOM      1  C   UNL     1       8.498  -0.615  -2.192  1.00  0.00     0.127 C 
ENDROOT
BRANCH   1   2
ATOM      2  C   UNL     1       8.486  -1.898  -2.916  1.00  0.00     0.303 C 
ATOM      3  O   UNL     1       9.565  -2.517  -3.067  1.00  0.00    -0.252 OA
BRANCH   2   4
ATOM      4  O   UNL     1       7.316  -2.426  -3.426  1.00  0.00    -0.481 OA
ATOM      5  H   UNL     1       6.831  -3.246  -3.017  1.00  0.00     0.296 HD
ENDBRANCH   2   4
ENDBRANCH   1   2
BRANCH   1   6
ATOM      6  C   UNL     1       7.062  -0.103  -2.164  1.00  0.00     0.047 C 
BRANCH   6   7
ATOM      7  C   UNL     1       6.527  -0.021  -0.793  1.00  0.00    -0.047 A 
ATOM      8  C   UNL     1       5.863   1.141  -0.419  1.00  0.00     0.004 A 
ATOM      9  C   UNL     1       6.639  -1.007   0.153  1.00  0.00     0.004 A 
ATOM     10  C   UNL     1       5.349   1.258   0.871  1.00  0.00     0.000 A 
ATOM     11  C   UNL     1       6.141  -0.921   1.437  1.00  0.00     0.000 A 
ATOM     12  C   UNL     1       5.486   0.246   1.781  1.00  0.00     0.000 A 
ENDBRANCH   6   7
ENDBRANCH   1   6
TORSDOF 4
ENDMDL
MODEL 2
REMARK VINA RESULT:      -7.2      0.179      1.733
REMARK SMILES O=C(O)CCc1ccccc1
REMARK SMILES IDX 4 1 2 2 1 3 3 4 5 6 6 7 7 8 11 9 8 10 10 11 9 12
REMARK H PARENT 3 5
REMARK Flexibility Score: inf
ROOT
ATOM      1  C   UNL     1       8.437  -0.698  -2.036  1.00  0.00     0.127 C 
ENDROOT
BRANCH   1   2
ATOM      2  C   UNL     1       8.395  -1.921  -2.858  1.00  0.00     0.303 C 
ATOM      3  O   UNL     1       7.281  -2.388  -3.191  1.00  0.00    -0.252 OA
BRANCH   2   4
ATOM      4  O   UNL     1       9.554  -2.555  -3.265  1.00  0.00    -0.481 OA
ATOM      5  H   UNL     1      10.494  -2.121  -3.210  1.00  0.00     0.296 HD
ENDBRANCH   2   4
ENDBRANCH   1   2
BRANCH   1   6
ATOM      6  C   UNL     1       7.053  -0.063  -2.107  1.00  0.00     0.047 C 
BRANCH   6   7
ATOM      7  C   UNL     1       6.466   0.140  -0.770  1.00  0.00    -0.047 A 
ATOM      8  C   UNL     1       6.592  -0.883   0.162  1.00  0.00     0.004 A 
ATOM      9  C   UNL     1       5.795   1.267  -0.371  1.00  0.00     0.004 A 
ATOM     10  C   UNL     1       6.045  -0.730   1.434  1.00  0.00     0.000 A 
ATOM     11  C   UNL     1       5.242   1.448   0.881  1.00  0.00     0.000 A 
ATOM     12  C   UNL     1       5.382   0.414   1.786  1.00  0.00     0.000 A 
ENDBRANCH   6   7
ENDBRANCH   1   6
TORSDOF 4
ENDMDL
MODEL 3
REMARK VINA RESULT:      -7.2      0.625      1.628
REMARK SMILES O=C(O)CCc1ccccc1
REMARK SMILES IDX 4 1 2 2 1 3 3 4 5 6 6 7 7 8 11 9 8 10 10 11 9 12
REMARK H PARENT 3 5
REMARK Flexibility Score: inf
ROOT
ATOM      1  C   UNL     1       8.188  -0.829  -2.015  1.00  0.00     0.127 C 
ENDROOT
BRANCH   1   2
ATOM      2  C   UNL     1       8.351  -1.993  -2.904  1.00  0.00     0.303 C 
ATOM      3  O   UNL     1       9.492  -2.493  -3.043  1.00  0.00    -0.252 OA
BRANCH   2   4
ATOM      4  O   UNL     1       7.276  -2.538  -3.579  1.00  0.00    -0.481 OA
ATOM      5  H   UNL     1       7.053  -3.551  -3.578  1.00  0.00     0.296 HD
ENDBRANCH   2   4
ENDBRANCH   1   2
BRANCH   1   6
ATOM      6  C   UNL     1       7.451  -1.314  -0.772  1.00  0.00     0.047 C 
BRANCH   6   7
ATOM      7  C   UNL     1       6.594  -0.266  -0.190  1.00  0.00    -0.047 A 
ATOM      8  C   UNL     1       6.162  -0.428   1.121  1.00  0.00     0.004 A 
ATOM      9  C   UNL     1       6.180   0.865  -0.846  1.00  0.00     0.004 A 
ATOM     10  C   UNL     1       5.345   0.539   1.704  1.00  0.00     0.000 A 
ATOM     11  C   UNL     1       5.372   1.840  -0.296  1.00  0.00     0.000 A 
ATOM     12  C   UNL     1       4.958   1.651   1.008  1.00  0.00     0.000 A 
ENDBRANCH   6   7
ENDBRANCH   1   6
TORSDOF 4
ENDMDL
MODEL 4
REMARK VINA RESULT:      -6.8      3.379      5.063
REMARK SMILES O=C(O)CCc1ccccc1
REMARK SMILES IDX 4 1 2 2 1 3 3 4 5 6 6 7 7 8 11 9 8 10 10 11 9 12
REMARK H PARENT 3 5
REMARK Flexibility Score: inf
ROOT
ATOM      1  C   UNL     1       4.982   1.780   0.708  1.00  0.00     0.127 C 
ENDROOT
BRANCH   1   2
ATOM      2  C   UNL     1       4.469   1.116   1.919  1.00  0.00     0.303 C 
ATOM      3  O   UNL     1       5.165   0.225   2.461  1.00  0.00    -0.252 OA
BRANCH   2   4
ATOM      4  O   UNL     1       3.245   1.456   2.463  1.00  0.00    -0.481 OA
ATOM      5  H   UNL     1       2.381   0.901   2.321  1.00  0.00     0.296 HD
ENDBRANCH   2   4
ENDBRANCH   1   2
BRANCH   1   6
ATOM      6  C   UNL     1       6.504   1.749   0.790  1.00  0.00     0.047 C 
BRANCH   6   7
ATOM      7  C   UNL     1       7.104   0.978  -0.313  1.00  0.00    -0.047 A 
ATOM      8  C   UNL     1       8.430   1.230  -0.641  1.00  0.00     0.004 A 
ATOM      9  C   UNL     1       6.450   0.025  -1.052  1.00  0.00     0.004 A 
ATOM     10  C   UNL     1       9.031   0.526  -1.683  1.00  0.00     0.000 A 
ATOM     11  C   UNL     1       7.018  -0.689  -2.088  1.00  0.00     0.000 A 
ATOM     12  C   UNL     1       8.337  -0.416  -2.392  1.00  0.00     0.000 A 
ENDBRANCH   6   7
ENDBRANCH   1   6
TORSDOF 4
ENDMDL
MODEL 5
REMARK VINA RESULT:      -6.6      1.988      2.752
REMARK SMILES O=C(O)CCc1ccccc1
REMARK SMILES IDX 4 1 2 2 1 3 3 4 5 6 6 7 7 8 11 9 8 10 10 11 9 12
REMARK H PARENT 3 5
REMARK Flexibility Score: inf
ROOT
ATOM      1  C   UNL     1       8.034  -2.116   0.812  1.00  0.00     0.127 C 
ENDROOT
BRANCH   1   2
ATOM      2  C   UNL     1       8.739  -3.309   0.308  1.00  0.00     0.303 C 
ATOM      3  O   UNL     1       9.555  -3.891   1.060  1.00  0.00    -0.252 OA
BRANCH   2   4
ATOM      4  O   UNL     1       8.515  -3.792  -0.967  1.00  0.00    -0.481 OA
ATOM      5  H   UNL     1       8.774  -4.749  -1.270  1.00  0.00     0.296 HD
ENDBRANCH   2   4
ENDBRANCH   1   2
BRANCH   1   6
ATOM      6  C   UNL     1       7.435  -1.406  -0.397  1.00  0.00     0.047 C 
BRANCH   6   7
ATOM      7  C   UNL     1       6.577  -0.273  -0.007  1.00  0.00    -0.047 A 
ATOM      8  C   UNL     1       6.046  -0.267   1.277  1.00  0.00     0.004 A 
ATOM      9  C   UNL     1       6.253   0.782  -0.820  1.00  0.00     0.004 A 
ATOM     10  C   UNL     1       5.224   0.784   1.681  1.00  0.00     0.000 A 
ATOM     11  C   UNL     1       5.443   1.837  -0.449  1.00  0.00     0.000 A 
ATOM     12  C   UNL     1       4.929   1.816   0.833  1.00  0.00     0.000 A 
ENDBRANCH   6   7
ENDBRANCH   1   6
TORSDOF 4
ENDMDL
