@<TRIPOS>MOLECULE
/home/cewinharhar/GITHUB/reincatalyze/data/processed/docking_pred/2023-Apr-25-1829_maxeplen10_maxtrainstep200_exh32_gamma099_lrac3e-4_lrcr1e-3/b3ccd1df948aefc26948fdc9bbc960af2f6fd47d_ligand_2.pdbqt
 12 12 0 0 0
SMALL
GASTEIGER

@<TRIPOS>ATOM
      1  C          8.2430    0.2450   -2.2220 C.3     1  UNL1        0.1270
      2  C          9.3550    0.3460   -1.2610 C.2     1  UNL1        0.3030
      3  O          9.3950   -0.4520   -0.2950 O.2     1  UNL1       -0.2520
      4  O         10.3480    1.2960   -1.4070 O.3     1  UNL1       -0.4810
      5  H         10.4250    1.9230   -2.2290 H       1  UNL1        0.2960
      6  C          7.1430   -0.5690   -1.5500 C.3     1  UNL1        0.0470
      7  C          6.3560    0.2370   -0.6010 C.2     1  UNL1       -0.0470
      8  C          5.8550    1.4570   -1.0380 C.2     1  UNL1        0.0040
      9  C          6.0810   -0.1210    0.6940 C.2     1  UNL1        0.0040
     10  C          5.1110    2.2510   -0.1670 C.2     1  UNL1        0.0000
     11  C          5.3480    0.6420    1.5800 C.2     1  UNL1        0.0000
     12  C          4.8640    1.8500    1.1180 C.2     1  UNL1        0.0000
@<TRIPOS>BOND
     1     5     4    1
     2     1     6    1
     3     1     2    1
     4     6     7    1
     5     4     2    1
     6     2     3    2
     7     8     7    2
     8     8    10    1
     9     7     9    1
    10    10    12    2
    11     9    11    2
    12    12    11    1
