@<TRIPOS>MOLECULE
/home/cewinharhar/GITHUB/reincatalyze/data/processed/docking_pred/2023-Apr-25-1829_maxeplen10_maxtrainstep200_exh32_gamma099_lrac3e-4_lrcr1e-3/b3ccd1df948aefc26948fdc9bbc960af2f6fd47d_ligand_2.pdbqt
 12 12 0 0 0
SMALL
GASTEIGER

@<TRIPOS>ATOM
      1  C          5.3580    2.9490    0.0560 C.3     1  UNL1        0.1270
      2  C          6.2160    3.8570    0.8380 C.2     1  UNL1        0.3030
      3  O          6.8470    4.7600    0.2380 O.2     1  UNL1       -0.2520
      4  O          6.3350    3.7330    2.2090 O.3     1  UNL1       -0.4810
      5  H          7.1730    3.3420    2.6780 H       1  UNL1        0.2960
      6  C          5.2140    1.6640    0.8630 C.3     1  UNL1        0.0470
      7  C          6.0140    0.5620    0.3010 C.2     1  UNL1       -0.0470
      8  C          6.3050    0.5920   -1.0580 C.2     1  UNL1        0.0040
      9  C          6.4950   -0.5040    1.0170 C.2     1  UNL1        0.0040
     10  C          7.0540   -0.4360   -1.6280 C.2     1  UNL1        0.0000
     11  C          7.2400   -1.5360    0.4820 C.2     1  UNL1        0.0000
     12  C          7.5120   -1.4800   -0.8710 C.2     1  UNL1        0.0000
@<TRIPOS>BOND
     1    10     8    1
     2    10    12    2
     3     8     7    2
     4    12    11    1
     5     1     2    1
     6     1     6    1
     7     3     2    2
     8     7     6    1
     9     7     9    1
    10    11     9    2
    11     2     4    1
    12     4     5    1
