@<TRIPOS>MOLECULE
/home/cewinharhar/GITHUB/reincatalyze/data/processed/docking_pred/2023-Apr-25-1829_maxeplen10_maxtrainstep200_exh32_gamma099_lrac3e-4_lrcr1e-3/b3ccd1df948aefc26948fdc9bbc960af2f6fd47d_ligand_2.pdbqt
 12 12 0 0 0
SMALL
GASTEIGER

@<TRIPOS>ATOM
      1  C          4.9800    1.7410    0.7080 C.3     1  UNL1        0.1270
      2  C          4.4790    1.0960    1.9340 C.2     1  UNL1        0.3030
      3  O          5.1840    0.2200    2.4880 O.2     1  UNL1       -0.2520
      4  O          3.2580    1.4400    2.4810 O.3     1  UNL1       -0.4810
      5  H          2.8890    1.0330    3.3610 H       1  UNL1        0.2960
      6  C          6.5000    1.7880    0.8150 C.3     1  UNL1        0.0470
      7  C          7.1580    1.0750   -0.2950 C.2     1  UNL1       -0.0470
      8  C          6.3900    0.2070   -1.0600 C.2     1  UNL1        0.0040
      9  C          8.4810    1.1980   -0.6310 C.2     1  UNL1        0.0040
     10  C          6.9770   -0.4910   -2.1140 C.2     1  UNL1        0.0000
     11  C          9.0920    0.5220   -1.6690 C.2     1  UNL1        0.0000
     12  C          8.3040   -0.3360   -2.4110 C.2     1  UNL1        0.0000
@<TRIPOS>BOND
     1    12    10    2
     2    12    11    1
     3    10     8    1
     4    11     9    2
     5     8     7    2
     6     9     7    1
     7     7     6    1
     8     1     6    1
     9     1     2    1
    10     2     4    1
    11     2     3    2
    12     4     5    1
