@<TRIPOS>MOLECULE
/home/cewinharhar/GITHUB/reincatalyze/data/processed/docking_pred/2023-Apr-25-1829_maxeplen10_maxtrainstep200_exh32_gamma099_lrac3e-4_lrcr1e-3/b3efa5aa79561967f2a1346927635c3d7bfec8a2_ligand_2.pdbqt
 12 12 0 0 0
SMALL
GASTEIGER

@<TRIPOS>ATOM
      1  C          5.0150    1.8010    0.7000 C.3     1  UNL1        0.1270
      2  C          4.5690    1.1970    1.9680 C.2     1  UNL1        0.3030
      3  O          5.2570    0.2820    2.4780 O.2     1  UNL1       -0.2520
      4  O          3.4150    1.6200    2.5990 O.3     1  UNL1       -0.4810
      5  H          2.5230    1.8000    2.1030 H       1  UNL1        0.2960
      6  C          6.5390    1.8240    0.7270 C.3     1  UNL1        0.0470
      7  C          7.1270    1.0130   -0.3540 C.2     1  UNL1       -0.0470
      8  C          8.4660    1.2110   -0.6660 C.2     1  UNL1        0.0040
      9  C          6.4500    0.0730   -1.0870 C.2     1  UNL1        0.0040
     10  C          9.0560    0.4680   -1.6860 C.2     1  UNL1        0.0000
     11  C          7.0050   -0.6800   -2.1020 C.2     1  UNL1        0.0000
     12  C          8.3380   -0.4600   -2.3910 C.2     1  UNL1        0.0000
@<TRIPOS>BOND
     1    12    11    2
     2    12    10    1
     3    11     9    1
     4    10     8    2
     5     9     7    2
     6     8     7    1
     7     7     6    1
     8     1     6    1
     9     1     2    1
    10     2     3    2
    11     2     4    1
    12     5     4    1
