MODEL 1
REMARK VINA RESULT:      -6.9      0.000      0.000
REMARK SMILES O=C(O)CCc1ccccc1
REMARK SMILES IDX 4 1 2 2 1 3 3 4 5 6 6 7 7 8 11 9 8 10 10 11 9 12
REMARK H PARENT 3 5
REMARK Flexibility Score: inf
ROOT
ATOM      1  C   UNL     1       7.282  -1.213  -1.961  1.00  0.00     0.127 C 
ENDROOT
BRANCH   1   2
ATOM      2  C   UNL     1       8.707  -1.191  -2.335  1.00  0.00     0.303 C 
ATOM      3  O   UNL     1       9.416  -0.226  -1.963  1.00  0.00    -0.252 OA
BRANCH   2   4
ATOM      4  O   UNL     1       9.272  -2.209  -3.080  1.00  0.00    -0.481 OA
ATOM      5  H   UNL     1       8.927  -2.493  -4.015  1.00  0.00     0.296 HD
ENDBRANCH   2   4
ENDBRANCH   1   2
BRANCH   1   6
ATOM      6  C   UNL     1       6.828   0.237  -1.840  1.00  0.00     0.047 C 
BRANCH   6   7
ATOM      7  C   UNL     1       6.205   0.517  -0.534  1.00  0.00    -0.047 A 
ATOM      8  C   UNL     1       5.518   1.715  -0.382  1.00  0.00     0.004 A 
ATOM      9  C   UNL     1       6.254  -0.316   0.554  1.00  0.00     0.004 A 
ATOM     10  C   UNL     1       4.920   2.019   0.840  1.00  0.00     0.000 A 
ATOM     11  C   UNL     1       5.673  -0.044   1.776  1.00  0.00     0.000 A 
ATOM     12  C   UNL     1       4.997   1.155   1.898  1.00  0.00     0.000 A 
ENDBRANCH   6   7
ENDBRANCH   1   6
TORSDOF 4
ENDMDL
MODEL 2
REMARK VINA RESULT:      -6.9      3.178      5.033
REMARK SMILES O=C(O)CCc1ccccc1
REMARK SMILES IDX 4 1 2 2 1 3 3 4 5 6 6 7 7 8 11 9 8 10 10 11 9 12
REMARK H PARENT 3 5
REMARK Flexibility Score: inf
ROOT
ATOM      1  C   UNL     1       5.015   1.801   0.700  1.00  0.00     0.127 C 
ENDROOT
BRANCH   1   2
ATOM      2  C   UNL     1       4.569   1.197   1.968  1.00  0.00     0.303 C 
ATOM      3  O   UNL     1       5.257   0.282   2.478  1.00  0.00    -0.252 OA
BRANCH   2   4
ATOM      4  O   UNL     1       3.415   1.620   2.599  1.00  0.00    -0.481 OA
ATOM      5  H   UNL     1       2.523   1.800   2.103  1.00  0.00     0.296 HD
ENDBRANCH   2   4
ENDBRANCH   1   2
BRANCH   1   6
ATOM      6  C   UNL     1       6.539   1.824   0.727  1.00  0.00     0.047 C 
BRANCH   6   7
ATOM      7  C   UNL     1       7.127   1.013  -0.354  1.00  0.00    -0.047 A 
ATOM      8  C   UNL     1       8.466   1.211  -0.666  1.00  0.00     0.004 A 
ATOM      9  C   UNL     1       6.450   0.073  -1.087  1.00  0.00     0.004 A 
ATOM     10  C   UNL     1       9.056   0.468  -1.686  1.00  0.00     0.000 A 
ATOM     11  C   UNL     1       7.005  -0.680  -2.102  1.00  0.00     0.000 A 
ATOM     12  C   UNL     1       8.338  -0.460  -2.391  1.00  0.00     0.000 A 
ENDBRANCH   6   7
ENDBRANCH   1   6
TORSDOF 4
ENDMDL
MODEL 3
REMARK VINA RESULT:      -6.9      0.104      1.728
REMARK SMILES O=C(O)CCc1ccccc1
REMARK SMILES IDX 4 1 2 2 1 3 3 4 5 6 6 7 7 8 11 9 8 10 10 11 9 12
REMARK H PARENT 3 5
REMARK Flexibility Score: inf
ROOT
ATOM      1  C   UNL     1       7.264  -1.183  -1.917  1.00  0.00     0.127 C 
ENDROOT
BRANCH   1   2
ATOM      2  C   UNL     1       8.686  -1.158  -2.301  1.00  0.00     0.303 C 
ATOM      3  O   UNL     1       9.131  -2.070  -3.036  1.00  0.00    -0.252 OA
BRANCH   2   4
ATOM      4  O   UNL     1       9.531  -0.153  -1.868  1.00  0.00    -0.481 OA
ATOM      5  H   UNL     1      10.157  -0.245  -1.047  1.00  0.00     0.296 HD
ENDBRANCH   2   4
ENDBRANCH   1   2
BRANCH   1   6
ATOM      6  C   UNL     1       6.788   0.264  -1.864  1.00  0.00     0.047 C 
BRANCH   6   7
ATOM      7  C   UNL     1       6.164   0.597  -0.571  1.00  0.00    -0.047 A 
ATOM      8  C   UNL     1       6.276  -0.322   0.465  1.00  0.00     0.004 A 
ATOM      9  C   UNL     1       5.469   1.750  -0.308  1.00  0.00     0.004 A 
ATOM     10  C   UNL     1       5.693  -0.046   1.700  1.00  0.00     0.000 A 
ATOM     11  C   UNL     1       4.882   2.052   0.904  1.00  0.00     0.000 A 
ATOM     12  C   UNL     1       5.009   1.120   1.914  1.00  0.00     0.000 A 
ENDBRANCH   6   7
ENDBRANCH   1   6
TORSDOF 4
ENDMDL
MODEL 4
REMARK VINA RESULT:      -6.7      1.343      2.125
REMARK SMILES O=C(O)CCc1ccccc1
REMARK SMILES IDX 4 1 2 2 1 3 3 4 5 6 6 7 7 8 11 9 8 10 10 11 9 12
REMARK H PARENT 3 5
REMARK Flexibility Score: inf
ROOT
ATOM      1  C   UNL     1       8.110   0.256  -2.051  1.00  0.00     0.127 C 
ENDROOT
BRANCH   1   2
ATOM      2  C   UNL     1       9.294   0.340  -1.179  1.00  0.00     0.303 C 
ATOM      3  O   UNL     1       9.399  -0.462  -0.221  1.00  0.00    -0.252 OA
BRANCH   2   4
ATOM      4  O   UNL     1      10.284   1.279  -1.397  1.00  0.00    -0.481 OA
ATOM      5  H   UNL     1      11.249   1.038  -1.690  1.00  0.00     0.296 HD
ENDBRANCH   2   4
ENDBRANCH   1   2
BRANCH   1   6
ATOM      6  C   UNL     1       7.082  -0.608  -1.330  1.00  0.00     0.047 C 
BRANCH   6   7
ATOM      7  C   UNL     1       6.319   0.157  -0.328  1.00  0.00    -0.047 A 
ATOM      8  C   UNL     1       6.131  -0.414   0.926  1.00  0.00     0.004 A 
ATOM      9  C   UNL     1       5.769   1.395  -0.537  1.00  0.00     0.004 A 
ATOM     10  C   UNL     1       5.409   0.276   1.898  1.00  0.00     0.000 A 
ATOM     11  C   UNL     1       5.050   2.103   0.405  1.00  0.00     0.000 A 
ATOM     12  C   UNL     1       4.879   1.511   1.641  1.00  0.00     0.000 A 
ENDBRANCH   6   7
ENDBRANCH   1   6
TORSDOF 4
ENDMDL
MODEL 5
REMARK VINA RESULT:      -6.6      2.299      2.872
REMARK SMILES O=C(O)CCc1ccccc1
REMARK SMILES IDX 4 1 2 2 1 3 3 4 5 6 6 7 7 8 11 9 8 10 10 11 9 12
REMARK H PARENT 3 5
REMARK Flexibility Score: inf
ROOT
ATOM      1  C   UNL     1       8.165  -1.167   0.264  1.00  0.00     0.127 C 
ENDROOT
BRANCH   1   2
ATOM      2  C   UNL     1       7.995  -2.505   0.857  1.00  0.00     0.303 C 
ATOM      3  O   UNL     1       8.918  -3.343   0.734  1.00  0.00    -0.252 OA
BRANCH   2   4
ATOM      4  O   UNL     1       6.845  -2.847   1.543  1.00  0.00    -0.481 OA
ATOM      5  H   UNL     1       5.992  -2.258   1.561  1.00  0.00     0.296 HD
ENDBRANCH   2   4
ENDBRANCH   1   2
BRANCH   1   6
ATOM      6  C   UNL     1       6.923  -0.887  -0.574  1.00  0.00     0.047 C 
BRANCH   6   7
ATOM      7  C   UNL     1       6.157   0.265  -0.066  1.00  0.00    -0.047 A 
ATOM      8  C   UNL     1       5.742   0.240   1.260  1.00  0.00     0.004 A 
ATOM      9  C   UNL     1       5.813   1.367  -0.806  1.00  0.00     0.004 A 
ATOM     10  C   UNL     1       5.009   1.308   1.775  1.00  0.00     0.000 A 
ATOM     11  C   UNL     1       5.089   2.440  -0.324  1.00  0.00     0.000 A 
ATOM     12  C   UNL     1       4.689   2.386   0.997  1.00  0.00     0.000 A 
ENDBRANCH   6   7
ENDBRANCH   1   6
TORSDOF 4
ENDMDL
