@<TRIPOS>MOLECULE
/home/cewinharhar/GITHUB/reincatalyze/data/processed/docking_pred/2023-Apr-25-1829_maxeplen10_maxtrainstep200_exh32_gamma099_lrac3e-4_lrcr1e-3/b3efa5aa79561967f2a1346927635c3d7bfec8a2_ligand_2.pdbqt
 12 12 0 0 0
SMALL
GASTEIGER

@<TRIPOS>ATOM
      1  C          8.1650   -1.1670    0.2640 C.3     1  UNL1        0.1270
      2  C          7.9950   -2.5050    0.8570 C.2     1  UNL1        0.3030
      3  O          8.9180   -3.3430    0.7340 O.2     1  UNL1       -0.2520
      4  O          6.8450   -2.8470    1.5430 O.3     1  UNL1       -0.4810
      5  H          5.9920   -2.2580    1.5610 H       1  UNL1        0.2960
      6  C          6.9230   -0.8870   -0.5740 C.3     1  UNL1        0.0470
      7  C          6.1570    0.2650   -0.0660 C.2     1  UNL1       -0.0470
      8  C          5.7420    0.2400    1.2600 C.2     1  UNL1        0.0040
      9  C          5.8130    1.3670   -0.8060 C.2     1  UNL1        0.0040
     10  C          5.0090    1.3080    1.7750 C.2     1  UNL1        0.0000
     11  C          5.0890    2.4400   -0.3240 C.2     1  UNL1        0.0000
     12  C          4.6890    2.3860    0.9970 C.2     1  UNL1        0.0000
@<TRIPOS>BOND
     1     9    11    1
     2     9     7    2
     3     6     7    1
     4     6     1    1
     5    11    12    2
     6     7     8    1
     7     1     2    1
     8     3     2    2
     9     2     4    1
    10    12    10    1
    11     8    10    2
    12     4     5    1
