@<TRIPOS>MOLECULE
/home/cewinharhar/GITHUB/reincatalyze/data/processed/docking_pred/2023-Apr-25-1829_maxeplen10_maxtrainstep200_exh32_gamma099_lrac3e-4_lrcr1e-3/b3efa5aa79561967f2a1346927635c3d7bfec8a2_ligand_2.pdbqt
 12 12 0 0 0
SMALL
GASTEIGER

@<TRIPOS>ATOM
      1  C          8.1100    0.2560   -2.0510 C.3     1  UNL1        0.1270
      2  C          9.2940    0.3400   -1.1790 C.2     1  UNL1        0.3030
      3  O          9.3990   -0.4620   -0.2210 O.2     1  UNL1       -0.2520
      4  O         10.2840    1.2790   -1.3970 O.3     1  UNL1       -0.4810
      5  H         11.2490    1.0380   -1.6900 H       1  UNL1        0.2960
      6  C          7.0820   -0.6080   -1.3300 C.3     1  UNL1        0.0470
      7  C          6.3190    0.1570   -0.3280 C.2     1  UNL1       -0.0470
      8  C          6.1310   -0.4140    0.9260 C.2     1  UNL1        0.0040
      9  C          5.7690    1.3950   -0.5370 C.2     1  UNL1        0.0040
     10  C          5.4090    0.2760    1.8980 C.2     1  UNL1        0.0000
     11  C          5.0500    2.1030    0.4050 C.2     1  UNL1        0.0000
     12  C          4.8790    1.5110    1.6410 C.2     1  UNL1        0.0000
@<TRIPOS>BOND
     1     1     6    1
     2     1     2    1
     3     5     4    1
     4     4     2    1
     5     6     7    1
     6     2     3    2
     7     9     7    2
     8     9    11    1
     9     7     8    1
    10    11    12    2
    11     8    10    2
    12    12    10    1
