@<TRIPOS>MOLECULE
/home/cewinharhar/GITHUB/reincatalyze/data/processed/docking_pred/2023-Apr-25-1829_maxeplen10_maxtrainstep200_exh32_gamma099_lrac3e-4_lrcr1e-3/b3efa5aa79561967f2a1346927635c3d7bfec8a2_ligand_2.pdbqt
 12 12 0 0 0
SMALL
GASTEIGER

@<TRIPOS>ATOM
      1  C          7.2640   -1.1830   -1.9170 C.3     1  UNL1        0.1270
      2  C          8.6860   -1.1580   -2.3010 C.2     1  UNL1        0.3030
      3  O          9.1310   -2.0700   -3.0360 O.2     1  UNL1       -0.2520
      4  O          9.5310   -0.1530   -1.8680 O.3     1  UNL1       -0.4810
      5  H         10.1570   -0.2450   -1.0470 H       1  UNL1        0.2960
      6  C          6.7880    0.2640   -1.8640 C.3     1  UNL1        0.0470
      7  C          6.1640    0.5970   -0.5710 C.2     1  UNL1       -0.0470
      8  C          6.2760   -0.3220    0.4650 C.2     1  UNL1        0.0040
      9  C          5.4690    1.7500   -0.3080 C.2     1  UNL1        0.0040
     10  C          5.6930   -0.0460    1.7000 C.2     1  UNL1        0.0000
     11  C          4.8820    2.0520    0.9040 C.2     1  UNL1        0.0000
     12  C          5.0090    1.1200    1.9140 C.2     1  UNL1        0.0000
@<TRIPOS>BOND
     1     3     2    2
     2     2     1    1
     3     2     4    1
     4     1     6    1
     5     4     5    1
     6     6     7    1
     7     7     9    2
     8     7     8    1
     9     9    11    1
    10     8    10    2
    11    11    12    2
    12    10    12    1
