@<TRIPOS>MOLECULE
/home/cewinharhar/GITHUB/reincatalyze/data/processed/docking_pred/2023-Apr-25-1829_maxeplen10_maxtrainstep200_exh32_gamma099_lrac3e-4_lrcr1e-3/b3efa5aa79561967f2a1346927635c3d7bfec8a2_ligand_2.pdbqt
 12 12 0 0 0
SMALL
GASTEIGER

@<TRIPOS>ATOM
      1  C          7.2820   -1.2130   -1.9610 C.3     1  UNL1        0.1270
      2  C          8.7070   -1.1910   -2.3350 C.2     1  UNL1        0.3030
      3  O          9.4160   -0.2260   -1.9630 O.2     1  UNL1       -0.2520
      4  O          9.2720   -2.2090   -3.0800 O.3     1  UNL1       -0.4810
      5  H          8.9270   -2.4930   -4.0150 H       1  UNL1        0.2960
      6  C          6.8280    0.2370   -1.8400 C.3     1  UNL1        0.0470
      7  C          6.2050    0.5170   -0.5340 C.2     1  UNL1       -0.0470
      8  C          5.5180    1.7150   -0.3820 C.2     1  UNL1        0.0040
      9  C          6.2540   -0.3160    0.5540 C.2     1  UNL1        0.0040
     10  C          4.9200    2.0190    0.8400 C.2     1  UNL1        0.0000
     11  C          5.6730   -0.0440    1.7760 C.2     1  UNL1        0.0000
     12  C          4.9970    1.1550    1.8980 C.2     1  UNL1        0.0000
@<TRIPOS>BOND
     1     5     4    1
     2     4     2    1
     3     2     3    2
     4     2     1    1
     5     1     6    1
     6     6     7    1
     7     7     8    2
     8     7     9    1
     9     8    10    1
    10     9    11    2
    11    10    12    2
    12    11    12    1
