@<TRIPOS>MOLECULE
/home/cewinharhar/GITHUB/reincatalyze/data/processed/docking_pred/2023-Apr-25-1829_maxeplen10_maxtrainstep200_exh32_gamma099_lrac3e-4_lrcr1e-3/b5f7d4a2d914252a6bbd971338c7ac1ea6a3e46f_ligand_2.pdbqt
 12 12 0 0 0
SMALL
GASTEIGER

@<TRIPOS>ATOM
      1  C          4.9900    1.7530    0.7270 C.3     1  UNL1        0.1270
      2  C          4.4680    1.0970    1.9380 C.2     1  UNL1        0.3030
      3  O          5.1580    0.2060    2.4880 O.2     1  UNL1       -0.2520
      4  O          3.2440    1.4450    2.4750 O.3     1  UNL1       -0.4810
      5  H          2.5660    2.0700    2.0000 H       1  UNL1        0.2960
      6  C          6.5110    1.7070    0.8110 C.3     1  UNL1        0.0470
      7  C          7.1060    0.9420   -0.2990 C.2     1  UNL1       -0.0470
      8  C          8.4220    1.2180   -0.6510 C.2     1  UNL1        0.0040
      9  C          6.4580   -0.0250   -1.0220 C.2     1  UNL1        0.0040
     10  C          9.0180    0.5200   -1.7000 C.2     1  UNL1        0.0000
     11  C          7.0200   -0.7330   -2.0660 C.2     1  UNL1        0.0000
     12  C          8.3290   -0.4370   -2.3940 C.2     1  UNL1        0.0000
@<TRIPOS>BOND
     1    12    11    2
     2    12    10    1
     3    11     9    1
     4    10     8    2
     5     9     7    2
     6     8     7    1
     7     7     6    1
     8     1     6    1
     9     1     2    1
    10     2     4    1
    11     2     3    2
    12     5     4    1
