MODEL 1
REMARK VINA RESULT:      -7.3      0.000      0.000
REMARK SMILES O=C(O)CCc1ccccc1
REMARK SMILES IDX 4 1 2 2 1 3 3 4 5 6 6 7 7 8 11 9 8 10 10 11 9 12
REMARK H PARENT 3 5
REMARK Flexibility Score: inf
ROOT
ATOM      1  C   UNL     1       8.454  -0.604  -2.209  1.00  0.00     0.127 C 
ENDROOT
BRANCH   1   2
ATOM      2  C   UNL     1       8.473  -1.897  -2.916  1.00  0.00     0.303 C 
ATOM      3  O   UNL     1       9.568  -2.488  -3.065  1.00  0.00    -0.252 OA
BRANCH   2   4
ATOM      4  O   UNL     1       7.315  -2.464  -3.412  1.00  0.00    -0.481 OA
ATOM      5  H   UNL     1       6.986  -3.413  -3.156  1.00  0.00     0.296 HD
ENDBRANCH   2   4
ENDBRANCH   1   2
BRANCH   1   6
ATOM      6  C   UNL     1       7.005  -0.130  -2.183  1.00  0.00     0.047 C 
BRANCH   6   7
ATOM      7  C   UNL     1       6.487  -0.002  -0.809  1.00  0.00    -0.047 A 
ATOM      8  C   UNL     1       5.853   1.183  -0.456  1.00  0.00     0.004 A 
ATOM      9  C   UNL     1       6.587  -0.967   0.161  1.00  0.00     0.004 A 
ATOM     10  C   UNL     1       5.356   1.344   0.835  1.00  0.00     0.000 A 
ATOM     11  C   UNL     1       6.105  -0.838   1.448  1.00  0.00     0.000 A 
ATOM     12  C   UNL     1       5.481   0.352   1.769  1.00  0.00     0.000 A 
ENDBRANCH   6   7
ENDBRANCH   1   6
TORSDOF 4
ENDMDL
MODEL 2
REMARK VINA RESULT:      -7.3      0.141      1.730
REMARK SMILES O=C(O)CCc1ccccc1
REMARK SMILES IDX 4 1 2 2 1 3 3 4 5 6 6 7 7 8 11 9 8 10 10 11 9 12
REMARK H PARENT 3 5
REMARK Flexibility Score: inf
ROOT
ATOM      1  C   UNL     1       8.418  -0.705  -2.051  1.00  0.00     0.127 C 
ENDROOT
BRANCH   1   2
ATOM      2  C   UNL     1       8.391  -1.930  -2.870  1.00  0.00     0.303 C 
ATOM      3  O   UNL     1       7.283  -2.390  -3.233  1.00  0.00    -0.252 OA
BRANCH   2   4
ATOM      4  O   UNL     1       9.556  -2.573  -3.243  1.00  0.00    -0.481 OA
ATOM      5  H   UNL     1       9.909  -2.598  -4.217  1.00  0.00     0.296 HD
ENDBRANCH   2   4
ENDBRANCH   1   2
BRANCH   1   6
ATOM      6  C   UNL     1       7.023  -0.094  -2.112  1.00  0.00     0.047 C 
BRANCH   6   7
ATOM      7  C   UNL     1       6.450   0.119  -0.771  1.00  0.00    -0.047 A 
ATOM      8  C   UNL     1       6.561  -0.909   0.158  1.00  0.00     0.004 A 
ATOM      9  C   UNL     1       5.805   1.259  -0.364  1.00  0.00     0.004 A 
ATOM     10  C   UNL     1       6.027  -0.747   1.435  1.00  0.00     0.000 A 
ATOM     11  C   UNL     1       5.266   1.449   0.892  1.00  0.00     0.000 A 
ATOM     12  C   UNL     1       5.391   0.410   1.794  1.00  0.00     0.000 A 
ENDBRANCH   6   7
ENDBRANCH   1   6
TORSDOF 4
ENDMDL
MODEL 3
REMARK VINA RESULT:      -6.8      3.380      5.060
REMARK SMILES O=C(O)CCc1ccccc1
REMARK SMILES IDX 4 1 2 2 1 3 3 4 5 6 6 7 7 8 11 9 8 10 10 11 9 12
REMARK H PARENT 3 5
REMARK Flexibility Score: inf
ROOT
ATOM      1  C   UNL     1       4.990   1.753   0.727  1.00  0.00     0.127 C 
ENDROOT
BRANCH   1   2
ATOM      2  C   UNL     1       4.468   1.097   1.938  1.00  0.00     0.303 C 
ATOM      3  O   UNL     1       5.158   0.206   2.488  1.00  0.00    -0.252 OA
BRANCH   2   4
ATOM      4  O   UNL     1       3.244   1.445   2.475  1.00  0.00    -0.481 OA
ATOM      5  H   UNL     1       2.566   2.070   2.000  1.00  0.00     0.296 HD
ENDBRANCH   2   4
ENDBRANCH   1   2
BRANCH   1   6
ATOM      6  C   UNL     1       6.511   1.707   0.811  1.00  0.00     0.047 C 
BRANCH   6   7
ATOM      7  C   UNL     1       7.106   0.942  -0.299  1.00  0.00    -0.047 A 
ATOM      8  C   UNL     1       8.422   1.218  -0.651  1.00  0.00     0.004 A 
ATOM      9  C   UNL     1       6.458  -0.025  -1.022  1.00  0.00     0.004 A 
ATOM     10  C   UNL     1       9.018   0.520  -1.700  1.00  0.00     0.000 A 
ATOM     11  C   UNL     1       7.020  -0.733  -2.066  1.00  0.00     0.000 A 
ATOM     12  C   UNL     1       8.329  -0.437  -2.394  1.00  0.00     0.000 A 
ENDBRANCH   6   7
ENDBRANCH   1   6
TORSDOF 4
ENDMDL
MODEL 4
REMARK VINA RESULT:      -6.7      1.943      2.689
REMARK SMILES O=C(O)CCc1ccccc1
REMARK SMILES IDX 4 1 2 2 1 3 3 4 5 6 6 7 7 8 11 9 8 10 10 11 9 12
REMARK H PARENT 3 5
REMARK Flexibility Score: inf
ROOT
ATOM      1  C   UNL     1       8.298   0.265  -2.161  1.00  0.00     0.127 C 
ENDROOT
BRANCH   1   2
ATOM      2  C   UNL     1       9.412   0.393  -1.205  1.00  0.00     0.303 C 
ATOM      3  O   UNL     1       9.466  -0.394  -0.231  1.00  0.00    -0.252 OA
BRANCH   2   4
ATOM      4  O   UNL     1      10.390   1.355  -1.364  1.00  0.00    -0.481 OA
ATOM      5  H   UNL     1      11.281   1.360  -0.833  1.00  0.00     0.296 HD
ENDBRANCH   2   4
ENDBRANCH   1   2
BRANCH   1   6
ATOM      6  C   UNL     1       7.204  -0.540  -1.470  1.00  0.00     0.047 C 
BRANCH   6   7
ATOM      7  C   UNL     1       6.381   0.294  -0.576  1.00  0.00    -0.047 A 
ATOM      8  C   UNL     1       6.143  -0.167   0.713  1.00  0.00     0.004 A 
ATOM      9  C   UNL     1       5.822   1.498  -0.919  1.00  0.00     0.004 A 
ATOM     10  C   UNL     1       5.364   0.591   1.586  1.00  0.00     0.000 A 
ATOM     11  C   UNL     1       5.047   2.271  -0.078  1.00  0.00     0.000 A 
ATOM     12  C   UNL     1       4.827   1.787   1.197  1.00  0.00     0.000 A 
ENDBRANCH   6   7
ENDBRANCH   1   6
TORSDOF 4
ENDMDL
MODEL 5
REMARK VINA RESULT:      -6.6      2.024      2.771
REMARK SMILES O=C(O)CCc1ccccc1
REMARK SMILES IDX 4 1 2 2 1 3 3 4 5 6 6 7 7 8 11 9 8 10 10 11 9 12
REMARK H PARENT 3 5
REMARK Flexibility Score: inf
ROOT
ATOM      1  C   UNL     1       7.957  -2.301   0.836  1.00  0.00     0.127 C 
ENDROOT
BRANCH   1   2
ATOM      2  C   UNL     1       8.776  -3.415   0.326  1.00  0.00     0.303 C 
ATOM      3  O   UNL     1       9.659  -3.906   1.068  1.00  0.00    -0.252 OA
BRANCH   2   4
ATOM      4  O   UNL     1       8.588  -3.924  -0.945  1.00  0.00    -0.481 OA
ATOM      5  H   UNL     1       9.309  -4.463  -1.459  1.00  0.00     0.296 HD
ENDBRANCH   2   4
ENDBRANCH   1   2
BRANCH   1   6
ATOM      6  C   UNL     1       7.540  -1.464  -0.368  1.00  0.00     0.047 C 
BRANCH   6   7
ATOM      7  C   UNL     1       6.661  -0.344   0.012  1.00  0.00    -0.047 A 
ATOM      8  C   UNL     1       6.131  -0.335   1.296  1.00  0.00     0.004 A 
ATOM      9  C   UNL     1       6.315   0.697  -0.811  1.00  0.00     0.004 A 
ATOM     10  C   UNL     1       5.290   0.703   1.690  1.00  0.00     0.000 A 
ATOM     11  C   UNL     1       5.485   1.740  -0.450  1.00  0.00     0.000 A 
ATOM     12  C   UNL     1       4.973   1.721   0.832  1.00  0.00     0.000 A 
ENDBRANCH   6   7
ENDBRANCH   1   6
TORSDOF 4
ENDMDL
