@<TRIPOS>MOLECULE
/home/cewinharhar/GITHUB/reincatalyze/data/processed/docking_pred/2023-Apr-25-1829_maxeplen10_maxtrainstep200_exh32_gamma099_lrac3e-4_lrcr1e-3/b5f7d4a2d914252a6bbd971338c7ac1ea6a3e46f_ligand_2.pdbqt
 12 12 0 0 0
SMALL
GASTEIGER

@<TRIPOS>ATOM
      1  C          8.2980    0.2650   -2.1610 C.3     1  UNL1        0.1270
      2  C          9.4120    0.3930   -1.2050 C.2     1  UNL1        0.3030
      3  O          9.4660   -0.3940   -0.2310 O.2     1  UNL1       -0.2520
      4  O         10.3900    1.3550   -1.3640 O.3     1  UNL1       -0.4810
      5  H         11.2810    1.3600   -0.8330 H       1  UNL1        0.2960
      6  C          7.2040   -0.5400   -1.4700 C.3     1  UNL1        0.0470
      7  C          6.3810    0.2940   -0.5760 C.2     1  UNL1       -0.0470
      8  C          6.1430   -0.1670    0.7130 C.2     1  UNL1        0.0040
      9  C          5.8220    1.4980   -0.9190 C.2     1  UNL1        0.0040
     10  C          5.3640    0.5910    1.5860 C.2     1  UNL1        0.0000
     11  C          5.0470    2.2710   -0.0780 C.2     1  UNL1        0.0000
     12  C          4.8270    1.7870    1.1970 C.2     1  UNL1        0.0000
@<TRIPOS>BOND
     1     1     6    1
     2     1     2    1
     3     6     7    1
     4     4     2    1
     5     4     5    1
     6     2     3    2
     7     9     7    2
     8     9    11    1
     9     7     8    1
    10    11    12    2
    11     8    10    2
    12    12    10    1
