@<TRIPOS>MOLECULE
/home/cewinharhar/GITHUB/reincatalyze/data/processed/docking_pred/2023-Apr-25-1829_maxeplen10_maxtrainstep200_exh32_gamma099_lrac3e-4_lrcr1e-3/b5f7d4a2d914252a6bbd971338c7ac1ea6a3e46f_ligand_2.pdbqt
 12 12 0 0 0
SMALL
GASTEIGER

@<TRIPOS>ATOM
      1  C          8.4180   -0.7050   -2.0510 C.3     1  UNL1        0.1270
      2  C          8.3910   -1.9300   -2.8700 C.2     1  UNL1        0.3030
      3  O          7.2830   -2.3900   -3.2330 O.2     1  UNL1       -0.2520
      4  O          9.5560   -2.5730   -3.2430 O.3     1  UNL1       -0.4810
      5  H          9.9090   -2.5980   -4.2170 H       1  UNL1        0.2960
      6  C          7.0230   -0.0940   -2.1120 C.3     1  UNL1        0.0470
      7  C          6.4500    0.1190   -0.7710 C.2     1  UNL1       -0.0470
      8  C          6.5610   -0.9090    0.1580 C.2     1  UNL1        0.0040
      9  C          5.8050    1.2590   -0.3640 C.2     1  UNL1        0.0040
     10  C          6.0270   -0.7470    1.4350 C.2     1  UNL1        0.0000
     11  C          5.2660    1.4490    0.8920 C.2     1  UNL1        0.0000
     12  C          5.3910    0.4100    1.7940 C.2     1  UNL1        0.0000
@<TRIPOS>BOND
     1     5     4    1
     2     4     2    1
     3     3     2    2
     4     2     1    1
     5     6     1    1
     6     6     7    1
     7     7     9    2
     8     7     8    1
     9     9    11    1
    10     8    10    2
    11    11    12    2
    12    10    12    1
