@<TRIPOS>MOLECULE
/home/cewinharhar/GITHUB/reincatalyze/data/processed/docking_pred/2023-Apr-25-1829_maxeplen10_maxtrainstep200_exh32_gamma099_lrac3e-4_lrcr1e-3/b5f7d4a2d914252a6bbd971338c7ac1ea6a3e46f_ligand_2.pdbqt
 12 12 0 0 0
SMALL
GASTEIGER

@<TRIPOS>ATOM
      1  C          7.9570   -2.3010    0.8360 C.3     1  UNL1        0.1270
      2  C          8.7760   -3.4150    0.3260 C.2     1  UNL1        0.3030
      3  O          9.6590   -3.9060    1.0680 O.2     1  UNL1       -0.2520
      4  O          8.5880   -3.9240   -0.9450 O.3     1  UNL1       -0.4810
      5  H          9.3090   -4.4630   -1.4590 H       1  UNL1        0.2960
      6  C          7.5400   -1.4640   -0.3680 C.3     1  UNL1        0.0470
      7  C          6.6610   -0.3440    0.0120 C.2     1  UNL1       -0.0470
      8  C          6.1310   -0.3350    1.2960 C.2     1  UNL1        0.0040
      9  C          6.3150    0.6970   -0.8110 C.2     1  UNL1        0.0040
     10  C          5.2900    0.7030    1.6900 C.2     1  UNL1        0.0000
     11  C          5.4850    1.7400   -0.4500 C.2     1  UNL1        0.0000
     12  C          4.9730    1.7210    0.8320 C.2     1  UNL1        0.0000
@<TRIPOS>BOND
     1     5     4    1
     2     4     2    1
     3     9    11    1
     4     9     7    2
     5    11    12    2
     6     6     7    1
     7     6     1    1
     8     7     8    1
     9     2     1    1
    10     2     3    2
    11    12    10    1
    12     8    10    2
