MODEL 1
REMARK VINA RESULT:      -7.3      0.000      0.000
REMARK SMILES O=C(O)CCc1ccccc1
REMARK SMILES IDX 4 1 2 2 1 3 3 4 5 6 6 7 7 8 11 9 8 10 10 11 9 12
REMARK H PARENT 3 5
REMARK Flexibility Score: inf
ROOT
ATOM      1  C   UNL     1       8.387  -0.887  -1.865  1.00  0.00     0.127 C 
ENDROOT
BRANCH   1   2
ATOM      2  C   UNL     1       8.419  -1.983  -2.849  1.00  0.00     0.303 C 
ATOM      3  O   UNL     1       9.516  -2.529  -3.111  1.00  0.00    -0.252 OA
BRANCH   2   4
ATOM      4  O   UNL     1       7.269  -2.417  -3.481  1.00  0.00    -0.481 OA
ATOM      5  H   UNL     1       7.269  -3.078  -4.280  1.00  0.00     0.296 HD
ENDBRANCH   2   4
ENDBRANCH   1   2
BRANCH   1   6
ATOM      6  C   UNL     1       7.028  -0.208  -1.995  1.00  0.00     0.047 C 
BRANCH   6   7
ATOM      7  C   UNL     1       6.421   0.078  -0.683  1.00  0.00    -0.047 A 
ATOM      8  C   UNL     1       6.548  -0.877   0.318  1.00  0.00     0.004 A 
ATOM      9  C   UNL     1       5.731   1.221  -0.370  1.00  0.00     0.004 A 
ATOM     10  C   UNL     1       5.982  -0.646   1.570  1.00  0.00     0.000 A 
ATOM     11  C   UNL     1       5.160   1.479   0.861  1.00  0.00     0.000 A 
ATOM     12  C   UNL     1       5.301   0.510   1.835  1.00  0.00     0.000 A 
ENDBRANCH   6   7
ENDBRANCH   1   6
TORSDOF 4
ENDMDL
MODEL 2
REMARK VINA RESULT:      -7.2      0.151      1.730
REMARK SMILES O=C(O)CCc1ccccc1
REMARK SMILES IDX 4 1 2 2 1 3 3 4 5 6 6 7 7 8 11 9 8 10 10 11 9 12
REMARK H PARENT 3 5
REMARK Flexibility Score: inf
ROOT
ATOM      1  C   UNL     1       8.478  -0.729  -2.007  1.00  0.00     0.127 C 
ENDROOT
BRANCH   1   2
ATOM      2  C   UNL     1       8.415  -1.936  -2.849  1.00  0.00     0.303 C 
ATOM      3  O   UNL     1       7.292  -2.377  -3.192  1.00  0.00    -0.252 OA
BRANCH   2   4
ATOM      4  O   UNL     1       9.562  -2.585  -3.264  1.00  0.00    -0.481 OA
ATOM      5  H   UNL     1      10.509  -2.167  -3.210  1.00  0.00     0.296 HD
ENDBRANCH   2   4
ENDBRANCH   1   2
BRANCH   1   6
ATOM      6  C   UNL     1       7.105  -0.069  -2.066  1.00  0.00     0.047 C 
BRANCH   6   7
ATOM      7  C   UNL     1       6.501   0.078  -0.730  1.00  0.00    -0.047 A 
ATOM      8  C   UNL     1       5.820   1.255  -0.446  1.00  0.00     0.004 A 
ATOM      9  C   UNL     1       6.563  -0.862   0.267  1.00  0.00     0.004 A 
ATOM     10  C   UNL     1       5.241   1.433   0.809  1.00  0.00     0.000 A 
ATOM     11  C   UNL     1       6.000  -0.715   1.519  1.00  0.00     0.000 A 
ATOM     12  C   UNL     1       5.330   0.467   1.773  1.00  0.00     0.000 A 
ENDBRANCH   6   7
ENDBRANCH   1   6
TORSDOF 4
ENDMDL
MODEL 3
REMARK VINA RESULT:      -6.7      3.389      5.116
REMARK SMILES O=C(O)CCc1ccccc1
REMARK SMILES IDX 4 1 2 2 1 3 3 4 5 6 6 7 7 8 11 9 8 10 10 11 9 12
REMARK H PARENT 3 5
REMARK Flexibility Score: inf
ROOT
ATOM      1  C   UNL     1       5.004   1.772   0.720  1.00  0.00     0.127 C 
ENDROOT
BRANCH   1   2
ATOM      2  C   UNL     1       4.477   1.109   1.926  1.00  0.00     0.303 C 
ATOM      3  O   UNL     1       5.164   0.214   2.473  1.00  0.00    -0.252 OA
BRANCH   2   4
ATOM      4  O   UNL     1       3.251   1.456   2.461  1.00  0.00    -0.481 OA
ATOM      5  H   UNL     1       2.397   0.879   2.356  1.00  0.00     0.296 HD
ENDBRANCH   2   4
ENDBRANCH   1   2
BRANCH   1   6
ATOM      6  C   UNL     1       6.525   1.713   0.804  1.00  0.00     0.047 C 
BRANCH   6   7
ATOM      7  C   UNL     1       7.113   0.942  -0.305  1.00  0.00    -0.047 A 
ATOM      8  C   UNL     1       8.428   1.211  -0.664  1.00  0.00     0.004 A 
ATOM      9  C   UNL     1       6.458  -0.025  -1.023  1.00  0.00     0.004 A 
ATOM     10  C   UNL     1       9.018   0.507  -1.712  1.00  0.00     0.000 A 
ATOM     11  C   UNL     1       7.014  -0.739  -2.066  1.00  0.00     0.000 A 
ATOM     12  C   UNL     1       8.323  -0.449  -2.400  1.00  0.00     0.000 A 
ENDBRANCH   6   7
ENDBRANCH   1   6
TORSDOF 4
ENDMDL
MODEL 4
REMARK VINA RESULT:      -6.6      1.947      2.242
REMARK SMILES O=C(O)CCc1ccccc1
REMARK SMILES IDX 4 1 2 2 1 3 3 4 5 6 6 7 7 8 11 9 8 10 10 11 9 12
REMARK H PARENT 3 5
REMARK Flexibility Score: inf
ROOT
ATOM      1  C   UNL     1       8.180   0.275  -2.097  1.00  0.00     0.127 C 
ENDROOT
BRANCH   1   2
ATOM      2  C   UNL     1       9.360   0.371  -1.220  1.00  0.00     0.303 C 
ATOM      3  O   UNL     1       9.450  -0.406  -0.240  1.00  0.00    -0.252 OA
BRANCH   2   4
ATOM      4  O   UNL     1      10.361   1.293  -1.457  1.00  0.00    -0.481 OA
ATOM      5  H   UNL     1      10.614   2.047  -0.793  1.00  0.00     0.296 HD
ENDBRANCH   2   4
ENDBRANCH   1   2
BRANCH   1   6
ATOM      6  C   UNL     1       7.162  -0.608  -1.385  1.00  0.00     0.047 C 
BRANCH   6   7
ATOM      7  C   UNL     1       6.356   0.147  -0.410  1.00  0.00    -0.047 A 
ATOM      8  C   UNL     1       6.144  -0.419   0.842  1.00  0.00     0.004 A 
ATOM      9  C   UNL     1       5.789   1.374  -0.642  1.00  0.00     0.004 A 
ATOM     10  C   UNL     1       5.382   0.262   1.789  1.00  0.00     0.000 A 
ATOM     11  C   UNL     1       5.030   2.073   0.275  1.00  0.00     0.000 A 
ATOM     12  C   UNL     1       4.835   1.485   1.509  1.00  0.00     0.000 A 
ENDBRANCH   6   7
ENDBRANCH   1   6
TORSDOF 4
ENDMDL
MODEL 5
REMARK VINA RESULT:      -6.5      1.893      2.719
REMARK SMILES O=C(O)CCc1ccccc1
REMARK SMILES IDX 4 1 2 2 1 3 3 4 5 6 6 7 7 8 11 9 8 10 10 11 9 12
REMARK H PARENT 3 5
REMARK Flexibility Score: inf
ROOT
ATOM      1  C   UNL     1       8.291  -1.498   0.941  1.00  0.00     0.127 C 
ENDROOT
BRANCH   1   2
ATOM      2  C   UNL     1       8.518  -2.776   0.244  1.00  0.00     0.303 C 
ATOM      3  O   UNL     1       9.095  -3.705   0.857  1.00  0.00    -0.252 OA
BRANCH   2   4
ATOM      4  O   UNL     1       8.109  -2.966  -1.062  1.00  0.00    -0.481 OA
ATOM      5  H   UNL     1       8.158  -2.231  -1.791  1.00  0.00     0.296 HD
ENDBRANCH   2   4
ENDBRANCH   1   2
BRANCH   1   6
ATOM      6  C   UNL     1       6.804  -1.425   1.270  1.00  0.00     0.047 C 
BRANCH   6   7
ATOM      7  C   UNL     1       6.191  -0.170   0.799  1.00  0.00    -0.047 A 
ATOM      8  C   UNL     1       6.444   0.231  -0.507  1.00  0.00     0.004 A 
ATOM      9  C   UNL     1       5.390   0.645   1.557  1.00  0.00     0.004 A 
ATOM     10  C   UNL     1       5.888   1.416  -0.986  1.00  0.00     0.000 A 
ATOM     11  C   UNL     1       4.825   1.823   1.111  1.00  0.00     0.000 A 
ATOM     12  C   UNL     1       5.094   2.197  -0.191  1.00  0.00     0.000 A 
ENDBRANCH   6   7
ENDBRANCH   1   6
TORSDOF 4
ENDMDL
