@<TRIPOS>MOLECULE
/home/cewinharhar/GITHUB/reincatalyze/data/processed/docking_pred/2023-Apr-25-1829_maxeplen10_maxtrainstep200_exh32_gamma099_lrac3e-4_lrcr1e-3/b8d8050f43b71ccf975db7ed0a80e234855f027b_ligand_2.pdbqt
 12 12 0 0 0
SMALL
GASTEIGER

@<TRIPOS>ATOM
      1  C          8.1800    0.2750   -2.0970 C.3     1  UNL1        0.1270
      2  C          9.3600    0.3710   -1.2200 C.2     1  UNL1        0.3030
      3  O          9.4500   -0.4060   -0.2400 O.2     1  UNL1       -0.2520
      4  O         10.3610    1.2930   -1.4570 O.3     1  UNL1       -0.4810
      5  H         10.6140    2.0470   -0.7930 H       1  UNL1        0.2960
      6  C          7.1620   -0.6080   -1.3850 C.3     1  UNL1        0.0470
      7  C          6.3560    0.1470   -0.4100 C.2     1  UNL1       -0.0470
      8  C          6.1440   -0.4190    0.8420 C.2     1  UNL1        0.0040
      9  C          5.7890    1.3740   -0.6420 C.2     1  UNL1        0.0040
     10  C          5.3820    0.2620    1.7890 C.2     1  UNL1        0.0000
     11  C          5.0300    2.0730    0.2750 C.2     1  UNL1        0.0000
     12  C          4.8350    1.4850    1.5090 C.2     1  UNL1        0.0000
@<TRIPOS>BOND
     1     1     6    1
     2     1     2    1
     3     4     2    1
     4     4     5    1
     5     6     7    1
     6     2     3    2
     7     9     7    2
     8     9    11    1
     9     7     8    1
    10    11    12    2
    11     8    10    2
    12    12    10    1
