@<TRIPOS>MOLECULE
/home/cewinharhar/GITHUB/reincatalyze/data/processed/docking_pred/2023-Apr-25-1829_maxeplen10_maxtrainstep200_exh32_gamma099_lrac3e-4_lrcr1e-3/b8d8050f43b71ccf975db7ed0a80e234855f027b_ligand_2.pdbqt
 12 12 0 0 0
SMALL
GASTEIGER

@<TRIPOS>ATOM
      1  C          5.0040    1.7720    0.7200 C.3     1  UNL1        0.1270
      2  C          4.4770    1.1090    1.9260 C.2     1  UNL1        0.3030
      3  O          5.1640    0.2140    2.4730 O.2     1  UNL1       -0.2520
      4  O          3.2510    1.4560    2.4610 O.3     1  UNL1       -0.4810
      5  H          2.3970    0.8790    2.3560 H       1  UNL1        0.2960
      6  C          6.5250    1.7130    0.8040 C.3     1  UNL1        0.0470
      7  C          7.1130    0.9420   -0.3050 C.2     1  UNL1       -0.0470
      8  C          8.4280    1.2110   -0.6640 C.2     1  UNL1        0.0040
      9  C          6.4580   -0.0250   -1.0230 C.2     1  UNL1        0.0040
     10  C          9.0180    0.5070   -1.7120 C.2     1  UNL1        0.0000
     11  C          7.0140   -0.7390   -2.0660 C.2     1  UNL1        0.0000
     12  C          8.3230   -0.4490   -2.4000 C.2     1  UNL1        0.0000
@<TRIPOS>BOND
     1    12    11    2
     2    12    10    1
     3    11     9    1
     4    10     8    2
     5     9     7    2
     6     8     7    1
     7     7     6    1
     8     1     6    1
     9     1     2    1
    10     2     4    1
    11     2     3    2
    12     5     4    1
