@<TRIPOS>MOLECULE
/home/cewinharhar/GITHUB/reincatalyze/data/processed/docking_pred/2023-Apr-25-1829_maxeplen10_maxtrainstep200_exh32_gamma099_lrac3e-4_lrcr1e-3/b8d8050f43b71ccf975db7ed0a80e234855f027b_ligand_2.pdbqt
 12 12 0 0 0
SMALL
GASTEIGER

@<TRIPOS>ATOM
      1  C          8.4780   -0.7290   -2.0070 C.3     1  UNL1        0.1270
      2  C          8.4150   -1.9360   -2.8490 C.2     1  UNL1        0.3030
      3  O          7.2920   -2.3770   -3.1920 O.2     1  UNL1       -0.2520
      4  O          9.5620   -2.5850   -3.2640 O.3     1  UNL1       -0.4810
      5  H         10.5090   -2.1670   -3.2100 H       1  UNL1        0.2960
      6  C          7.1050   -0.0690   -2.0660 C.3     1  UNL1        0.0470
      7  C          6.5010    0.0780   -0.7300 C.2     1  UNL1       -0.0470
      8  C          5.8200    1.2550   -0.4460 C.2     1  UNL1        0.0040
      9  C          6.5630   -0.8620    0.2670 C.2     1  UNL1        0.0040
     10  C          5.2410    1.4330    0.8090 C.2     1  UNL1        0.0000
     11  C          6.0000   -0.7150    1.5190 C.2     1  UNL1        0.0000
     12  C          5.3300    0.4670    1.7730 C.2     1  UNL1        0.0000
@<TRIPOS>BOND
     1     4     5    1
     2     4     2    1
     3     3     2    2
     4     2     1    1
     5     6     1    1
     6     6     7    1
     7     7     8    2
     8     7     9    1
     9     8    10    1
    10     9    11    2
    11    10    12    2
    12    11    12    1
