@<TRIPOS>MOLECULE
/home/cewinharhar/GITHUB/reincatalyze/data/processed/docking_pred/2023-Apr-25-1829_maxeplen10_maxtrainstep200_exh32_gamma099_lrac3e-4_lrcr1e-3/b8d8050f43b71ccf975db7ed0a80e234855f027b_ligand_2.pdbqt
 12 12 0 0 0
SMALL
GASTEIGER

@<TRIPOS>ATOM
      1  C          8.3870   -0.8870   -1.8650 C.3     1  UNL1        0.1270
      2  C          8.4190   -1.9830   -2.8490 C.2     1  UNL1        0.3030
      3  O          9.5160   -2.5290   -3.1110 O.2     1  UNL1       -0.2520
      4  O          7.2690   -2.4170   -3.4810 O.3     1  UNL1       -0.4810
      5  H          7.2690   -3.0780   -4.2800 H       1  UNL1        0.2960
      6  C          7.0280   -0.2080   -1.9950 C.3     1  UNL1        0.0470
      7  C          6.4210    0.0780   -0.6830 C.2     1  UNL1       -0.0470
      8  C          6.5480   -0.8770    0.3180 C.2     1  UNL1        0.0040
      9  C          5.7310    1.2210   -0.3700 C.2     1  UNL1        0.0040
     10  C          5.9820   -0.6460    1.5700 C.2     1  UNL1        0.0000
     11  C          5.1600    1.4790    0.8610 C.2     1  UNL1        0.0000
     12  C          5.3010    0.5100    1.8350 C.2     1  UNL1        0.0000
@<TRIPOS>BOND
     1     5     4    1
     2     4     2    1
     3     3     2    2
     4     2     1    1
     5     6     1    1
     6     6     7    1
     7     7     9    2
     8     7     8    1
     9     9    11    1
    10     8    10    2
    11    11    12    2
    12    10    12    1
