@<TRIPOS>MOLECULE
/home/cewinharhar/GITHUB/reincatalyze/data/processed/docking_pred/2023-Apr-25-1829_maxeplen10_maxtrainstep200_exh32_gamma099_lrac3e-4_lrcr1e-3/b8d8050f43b71ccf975db7ed0a80e234855f027b_ligand_2.pdbqt
 12 12 0 0 0
SMALL
GASTEIGER

@<TRIPOS>ATOM
      1  C          8.2910   -1.4980    0.9410 C.3     1  UNL1        0.1270
      2  C          8.5180   -2.7760    0.2440 C.2     1  UNL1        0.3030
      3  O          9.0950   -3.7050    0.8570 O.2     1  UNL1       -0.2520
      4  O          8.1090   -2.9660   -1.0620 O.3     1  UNL1       -0.4810
      5  H          8.1580   -2.2310   -1.7910 H       1  UNL1        0.2960
      6  C          6.8040   -1.4250    1.2700 C.3     1  UNL1        0.0470
      7  C          6.1910   -0.1700    0.7990 C.2     1  UNL1       -0.0470
      8  C          6.4440    0.2310   -0.5070 C.2     1  UNL1        0.0040
      9  C          5.3900    0.6450    1.5570 C.2     1  UNL1        0.0040
     10  C          5.8880    1.4160   -0.9860 C.2     1  UNL1        0.0000
     11  C          4.8250    1.8230    1.1110 C.2     1  UNL1        0.0000
     12  C          5.0940    2.1970   -0.1910 C.2     1  UNL1        0.0000
@<TRIPOS>BOND
     1     5     4    1
     2     4     2    1
     3    10     8    1
     4    10    12    2
     5     8     7    2
     6    12    11    1
     7     2     3    2
     8     2     1    1
     9     7     6    1
    10     7     9    1
    11     1     6    1
    12    11     9    2
