MODEL 1
REMARK VINA RESULT:      -7.3      0.000      0.000
REMARK SMILES O=C(O)CCc1ccccc1
REMARK SMILES IDX 4 1 2 2 1 3 3 4 5 6 6 7 7 8 11 9 8 10 10 11 9 12
REMARK H PARENT 3 5
REMARK Flexibility Score: inf
ROOT
ATOM      1  C   UNL     1       8.461  -0.664  -2.112  1.00  0.00     0.127 C 
ENDROOT
BRANCH   1   2
ATOM      2  C   UNL     1       8.466  -1.913  -2.894  1.00  0.00     0.303 C 
ATOM      3  O   UNL     1       9.554  -2.505  -3.082  1.00  0.00    -0.252 OA
BRANCH   2   4
ATOM      4  O   UNL     1       7.300  -2.437  -3.419  1.00  0.00    -0.481 OA
ATOM      5  H   UNL     1       7.280  -3.179  -4.143  1.00  0.00     0.296 HD
ENDBRANCH   2   4
ENDBRANCH   1   2
BRANCH   1   6
ATOM      6  C   UNL     1       7.039  -0.116  -2.150  1.00  0.00     0.047 C 
BRANCH   6   7
ATOM      7  C   UNL     1       6.484   0.083  -0.800  1.00  0.00    -0.047 A 
ATOM      8  C   UNL     1       6.616  -0.949   0.120  1.00  0.00     0.004 A 
ATOM      9  C   UNL     1       5.835   1.215  -0.377  1.00  0.00     0.004 A 
ATOM     10  C   UNL     1       6.098  -0.801   1.405  1.00  0.00     0.000 A 
ATOM     11  C   UNL     1       5.311   1.392   0.888  1.00  0.00     0.000 A 
ATOM     12  C   UNL     1       5.458   0.348   1.781  1.00  0.00     0.000 A 
ENDBRANCH   6   7
ENDBRANCH   1   6
TORSDOF 4
ENDMDL
MODEL 2
REMARK VINA RESULT:      -7.3      0.152      1.728
REMARK SMILES O=C(O)CCc1ccccc1
REMARK SMILES IDX 4 1 2 2 1 3 3 4 5 6 6 7 7 8 11 9 8 10 10 11 9 12
REMARK H PARENT 3 5
REMARK Flexibility Score: inf
ROOT
ATOM      1  C   UNL     1       8.455  -0.743  -2.002  1.00  0.00     0.127 C 
ENDROOT
BRANCH   1   2
ATOM      2  C   UNL     1       8.405  -1.945  -2.852  1.00  0.00     0.303 C 
ATOM      3  O   UNL     1       7.287  -2.386  -3.210  1.00  0.00    -0.252 OA
BRANCH   2   4
ATOM      4  O   UNL     1       9.558  -2.587  -3.260  1.00  0.00    -0.481 OA
ATOM      5  H   UNL     1      10.512  -2.250  -3.034  1.00  0.00     0.296 HD
ENDBRANCH   2   4
ENDBRANCH   1   2
BRANCH   1   6
ATOM      6  C   UNL     1       7.077  -0.094  -2.059  1.00  0.00     0.047 C 
BRANCH   6   7
ATOM      7  C   UNL     1       6.481   0.066  -0.721  1.00  0.00    -0.047 A 
ATOM      8  C   UNL     1       5.815   1.252  -0.439  1.00  0.00     0.004 A 
ATOM      9  C   UNL     1       6.537  -0.869   0.280  1.00  0.00     0.004 A 
ATOM     10  C   UNL     1       5.244   1.444   0.817  1.00  0.00     0.000 A 
ATOM     11  C   UNL     1       5.982  -0.710   1.534  1.00  0.00     0.000 A 
ATOM     12  C   UNL     1       5.327   0.480   1.785  1.00  0.00     0.000 A 
ENDBRANCH   6   7
ENDBRANCH   1   6
TORSDOF 4
ENDMDL
MODEL 3
REMARK VINA RESULT:      -7.2      0.599      1.052
REMARK SMILES O=C(O)CCc1ccccc1
REMARK SMILES IDX 4 1 2 2 1 3 3 4 5 6 6 7 7 8 11 9 8 10 10 11 9 12
REMARK H PARENT 3 5
REMARK Flexibility Score: inf
ROOT
ATOM      1  C   UNL     1       8.131  -0.810  -2.082  1.00  0.00     0.127 C 
ENDROOT
BRANCH   1   2
ATOM      2  C   UNL     1       8.296  -1.999  -2.937  1.00  0.00     0.303 C 
ATOM      3  O   UNL     1       9.437  -2.504  -3.057  1.00  0.00    -0.252 OA
BRANCH   2   4
ATOM      4  O   UNL     1       7.224  -2.563  -3.601  1.00  0.00    -0.481 OA
ATOM      5  H   UNL     1       7.095  -2.511  -4.629  1.00  0.00     0.296 HD
ENDBRANCH   2   4
ENDBRANCH   1   2
BRANCH   1   6
ATOM      6  C   UNL     1       7.515  -1.284  -0.770  1.00  0.00     0.047 C 
BRANCH   6   7
ATOM      7  C   UNL     1       6.634  -0.267  -0.170  1.00  0.00    -0.047 A 
ATOM      8  C   UNL     1       6.185  -0.474   1.128  1.00  0.00     0.004 A 
ATOM      9  C   UNL     1       6.212   0.876  -0.800  1.00  0.00     0.004 A 
ATOM     10  C   UNL     1       5.345   0.462   1.727  1.00  0.00     0.000 A 
ATOM     11  C   UNL     1       5.381   1.822  -0.233  1.00  0.00     0.000 A 
ATOM     12  C   UNL     1       4.951   1.589   1.058  1.00  0.00     0.000 A 
ENDBRANCH   6   7
ENDBRANCH   1   6
TORSDOF 4
ENDMDL
MODEL 4
REMARK VINA RESULT:      -6.8      3.371      5.091
REMARK SMILES O=C(O)CCc1ccccc1
REMARK SMILES IDX 4 1 2 2 1 3 3 4 5 6 6 7 7 8 11 9 8 10 10 11 9 12
REMARK H PARENT 3 5
REMARK Flexibility Score: inf
ROOT
ATOM      1  C   UNL     1       4.982   1.788   0.710  1.00  0.00     0.127 C 
ENDROOT
BRANCH   1   2
ATOM      2  C   UNL     1       4.470   1.121   1.920  1.00  0.00     0.303 C 
ATOM      3  O   UNL     1       5.168   0.232   2.462  1.00  0.00    -0.252 OA
BRANCH   2   4
ATOM      4  O   UNL     1       3.246   1.458   2.464  1.00  0.00    -0.481 OA
ATOM      5  H   UNL     1       2.442   0.805   2.514  1.00  0.00     0.296 HD
ENDBRANCH   2   4
ENDBRANCH   1   2
BRANCH   1   6
ATOM      6  C   UNL     1       6.504   1.756   0.790  1.00  0.00     0.047 C 
BRANCH   6   7
ATOM      7  C   UNL     1       7.103   0.986  -0.314  1.00  0.00    -0.047 A 
ATOM      8  C   UNL     1       8.430   1.236  -0.641  1.00  0.00     0.004 A 
ATOM      9  C   UNL     1       6.447   0.037  -1.056  1.00  0.00     0.004 A 
ATOM     10  C   UNL     1       9.030   0.532  -1.684  1.00  0.00     0.000 A 
ATOM     11  C   UNL     1       7.013  -0.676  -2.094  1.00  0.00     0.000 A 
ATOM     12  C   UNL     1       8.333  -0.406  -2.396  1.00  0.00     0.000 A 
ENDBRANCH   6   7
ENDBRANCH   1   6
TORSDOF 4
ENDMDL
MODEL 5
REMARK VINA RESULT:      -6.7      3.815      4.932
REMARK SMILES O=C(O)CCc1ccccc1
REMARK SMILES IDX 4 1 2 2 1 3 3 4 5 6 6 7 7 8 11 9 8 10 10 11 9 12
REMARK H PARENT 3 5
REMARK Flexibility Score: inf
ROOT
ATOM      1  C   UNL     1       5.480   2.907   0.000  1.00  0.00     0.127 C 
ENDROOT
BRANCH   1   2
ATOM      2  C   UNL     1       6.266   3.857   0.807  1.00  0.00     0.303 C 
ATOM      3  O   UNL     1       6.890   4.775   0.225  1.00  0.00    -0.252 OA
BRANCH   2   4
ATOM      4  O   UNL     1       6.325   3.755   2.184  1.00  0.00    -0.481 OA
ATOM      5  H   UNL     1       7.204   3.591   2.709  1.00  0.00     0.296 HD
ENDBRANCH   2   4
ENDBRANCH   1   2
BRANCH   1   6
ATOM      6  C   UNL     1       4.937   1.850   0.955  1.00  0.00     0.047 C 
BRANCH   6   7
ATOM      7  C   UNL     1       5.731   0.608   0.917  1.00  0.00    -0.047 A 
ATOM      8  C   UNL     1       5.798  -0.159   2.074  1.00  0.00     0.004 A 
ATOM      9  C   UNL     1       6.419   0.149  -0.176  1.00  0.00     0.004 A 
ATOM     10  C   UNL     1       6.544  -1.337   2.080  1.00  0.00     0.000 A 
ATOM     11  C   UNL     1       7.165  -1.012  -0.202  1.00  0.00     0.000 A 
ATOM     12  C   UNL     1       7.215  -1.754   0.963  1.00  0.00     0.000 A 
ENDBRANCH   6   7
ENDBRANCH   1   6
TORSDOF 4
ENDMDL
