@<TRIPOS>MOLECULE
/home/cewinharhar/GITHUB/reincatalyze/data/processed/docking_pred/2023-Apr-25-1829_maxeplen10_maxtrainstep200_exh32_gamma099_lrac3e-4_lrcr1e-3/bb8285001221c2ec88d34c7e342a921234d5c761_ligand_2.pdbqt
 12 12 0 0 0
SMALL
GASTEIGER

@<TRIPOS>ATOM
      1  C          8.4550   -0.7430   -2.0020 C.3     1  UNL1        0.1270
      2  C          8.4050   -1.9450   -2.8520 C.2     1  UNL1        0.3030
      3  O          7.2870   -2.3860   -3.2100 O.2     1  UNL1       -0.2520
      4  O          9.5580   -2.5870   -3.2600 O.3     1  UNL1       -0.4810
      5  H         10.5120   -2.2500   -3.0340 H       1  UNL1        0.2960
      6  C          7.0770   -0.0940   -2.0590 C.3     1  UNL1        0.0470
      7  C          6.4810    0.0660   -0.7210 C.2     1  UNL1       -0.0470
      8  C          5.8150    1.2520   -0.4390 C.2     1  UNL1        0.0040
      9  C          6.5370   -0.8690    0.2800 C.2     1  UNL1        0.0040
     10  C          5.2440    1.4440    0.8170 C.2     1  UNL1        0.0000
     11  C          5.9820   -0.7100    1.5340 C.2     1  UNL1        0.0000
     12  C          5.3270    0.4800    1.7850 C.2     1  UNL1        0.0000
@<TRIPOS>BOND
     1     4     5    1
     2     4     2    1
     3     3     2    2
     4     2     1    1
     5     6     1    1
     6     6     7    1
     7     7     8    2
     8     7     9    1
     9     8    10    1
    10     9    11    2
    11    10    12    2
    12    11    12    1
