@<TRIPOS>MOLECULE
/home/cewinharhar/GITHUB/reincatalyze/data/processed/docking_pred/2023-Apr-25-1829_maxeplen10_maxtrainstep200_exh32_gamma099_lrac3e-4_lrcr1e-3/bb8285001221c2ec88d34c7e342a921234d5c761_ligand_2.pdbqt
 12 12 0 0 0
SMALL
GASTEIGER

@<TRIPOS>ATOM
      1  C          8.1310   -0.8100   -2.0820 C.3     1  UNL1        0.1270
      2  C          8.2960   -1.9990   -2.9370 C.2     1  UNL1        0.3030
      3  O          9.4370   -2.5040   -3.0570 O.2     1  UNL1       -0.2520
      4  O          7.2240   -2.5630   -3.6010 O.3     1  UNL1       -0.4810
      5  H          7.0950   -2.5110   -4.6290 H       1  UNL1        0.2960
      6  C          7.5150   -1.2840   -0.7700 C.3     1  UNL1        0.0470
      7  C          6.6340   -0.2670   -0.1700 C.2     1  UNL1       -0.0470
      8  C          6.1850   -0.4740    1.1280 C.2     1  UNL1        0.0040
      9  C          6.2120    0.8760   -0.8000 C.2     1  UNL1        0.0040
     10  C          5.3450    0.4620    1.7270 C.2     1  UNL1        0.0000
     11  C          5.3810    1.8220   -0.2330 C.2     1  UNL1        0.0000
     12  C          4.9510    1.5890    1.0580 C.2     1  UNL1        0.0000
@<TRIPOS>BOND
     1     5     4    1
     2     4     2    1
     3     3     2    2
     4     2     1    1
     5     1     6    1
     6     9    11    1
     7     9     7    2
     8     6     7    1
     9    11    12    2
    10     7     8    1
    11    12    10    1
    12     8    10    2
