@<TRIPOS>MOLECULE
/home/cewinharhar/GITHUB/reincatalyze/data/processed/docking_pred/2023-Apr-25-1829_maxeplen10_maxtrainstep200_exh32_gamma099_lrac3e-4_lrcr1e-3/bb8285001221c2ec88d34c7e342a921234d5c761_ligand_2.pdbqt
 12 12 0 0 0
SMALL
GASTEIGER

@<TRIPOS>ATOM
      1  C          4.9820    1.7880    0.7100 C.3     1  UNL1        0.1270
      2  C          4.4700    1.1210    1.9200 C.2     1  UNL1        0.3030
      3  O          5.1680    0.2320    2.4620 O.2     1  UNL1       -0.2520
      4  O          3.2460    1.4580    2.4640 O.3     1  UNL1       -0.4810
      5  H          2.4420    0.8050    2.5140 H       1  UNL1        0.2960
      6  C          6.5040    1.7560    0.7900 C.3     1  UNL1        0.0470
      7  C          7.1030    0.9860   -0.3140 C.2     1  UNL1       -0.0470
      8  C          8.4300    1.2360   -0.6410 C.2     1  UNL1        0.0040
      9  C          6.4470    0.0370   -1.0560 C.2     1  UNL1        0.0040
     10  C          9.0300    0.5320   -1.6840 C.2     1  UNL1        0.0000
     11  C          7.0130   -0.6760   -2.0940 C.2     1  UNL1        0.0000
     12  C          8.3330   -0.4060   -2.3960 C.2     1  UNL1        0.0000
@<TRIPOS>BOND
     1    12    11    2
     2    12    10    1
     3    11     9    1
     4    10     8    2
     5     9     7    2
     6     8     7    1
     7     7     6    1
     8     1     6    1
     9     1     2    1
    10     2     3    2
    11     2     4    1
    12     4     5    1
