@<TRIPOS>MOLECULE
/home/cewinharhar/GITHUB/reincatalyze/data/processed/docking_pred/2023-Apr-25-1829_maxeplen10_maxtrainstep200_exh32_gamma099_lrac3e-4_lrcr1e-3/bb8285001221c2ec88d34c7e342a921234d5c761_ligand_2.pdbqt
 12 12 0 0 0
SMALL
GASTEIGER

@<TRIPOS>ATOM
      1  C          8.4610   -0.6640   -2.1120 C.3     1  UNL1        0.1270
      2  C          8.4660   -1.9130   -2.8940 C.2     1  UNL1        0.3030
      3  O          9.5540   -2.5050   -3.0820 O.2     1  UNL1       -0.2520
      4  O          7.3000   -2.4370   -3.4190 O.3     1  UNL1       -0.4810
      5  H          7.2800   -3.1790   -4.1430 H       1  UNL1        0.2960
      6  C          7.0390   -0.1160   -2.1500 C.3     1  UNL1        0.0470
      7  C          6.4840    0.0830   -0.8000 C.2     1  UNL1       -0.0470
      8  C          6.6160   -0.9490    0.1200 C.2     1  UNL1        0.0040
      9  C          5.8350    1.2150   -0.3770 C.2     1  UNL1        0.0040
     10  C          6.0980   -0.8010    1.4050 C.2     1  UNL1        0.0000
     11  C          5.3110    1.3920    0.8880 C.2     1  UNL1        0.0000
     12  C          5.4580    0.3480    1.7810 C.2     1  UNL1        0.0000
@<TRIPOS>BOND
     1     5     4    1
     2     4     2    1
     3     3     2    2
     4     2     1    1
     5     6     1    1
     6     6     7    1
     7     7     9    2
     8     7     8    1
     9     9    11    1
    10     8    10    2
    11    11    12    2
    12    10    12    1
