@<TRIPOS>MOLECULE
/home/cewinharhar/GITHUB/reincatalyze/data/processed/docking_pred/2023-Apr-25-1829_maxeplen10_maxtrainstep200_exh32_gamma099_lrac3e-4_lrcr1e-3/bb8285001221c2ec88d34c7e342a921234d5c761_ligand_2.pdbqt
 12 12 0 0 0
SMALL
GASTEIGER

@<TRIPOS>ATOM
      1  C          5.4800    2.9070    0.0000 C.3     1  UNL1        0.1270
      2  C          6.2660    3.8570    0.8070 C.2     1  UNL1        0.3030
      3  O          6.8900    4.7750    0.2250 O.2     1  UNL1       -0.2520
      4  O          6.3250    3.7550    2.1840 O.3     1  UNL1       -0.4810
      5  H          7.2040    3.5910    2.7090 H       1  UNL1        0.2960
      6  C          4.9370    1.8500    0.9550 C.3     1  UNL1        0.0470
      7  C          5.7310    0.6080    0.9170 C.2     1  UNL1       -0.0470
      8  C          5.7980   -0.1590    2.0740 C.2     1  UNL1        0.0040
      9  C          6.4190    0.1490   -0.1760 C.2     1  UNL1        0.0040
     10  C          6.5440   -1.3370    2.0800 C.2     1  UNL1        0.0000
     11  C          7.1650   -1.0120   -0.2020 C.2     1  UNL1        0.0000
     12  C          7.2150   -1.7540    0.9630 C.2     1  UNL1        0.0000
@<TRIPOS>BOND
     1    11     9    1
     2    11    12    2
     3     9     7    2
     4     1     2    1
     5     1     6    1
     6     3     2    2
     7     2     4    1
     8     7     6    1
     9     7     8    1
    10    12    10    1
    11     8    10    2
    12     4     5    1
