MODEL 1
REMARK VINA RESULT:      -7.3      0.000      0.000
REMARK SMILES O=C(O)CCc1ccccc1
REMARK SMILES IDX 4 1 2 2 1 3 3 4 5 6 6 7 7 8 11 9 8 10 10 11 9 12
REMARK H PARENT 3 5
REMARK Flexibility Score: inf
ROOT
ATOM      1  C   UNL     1       8.469  -0.627  -2.170  1.00  0.00     0.127 C 
ENDROOT
BRANCH   1   2
ATOM      2  C   UNL     1       8.465  -1.896  -2.919  1.00  0.00     0.303 C 
ATOM      3  O   UNL     1       9.551  -2.496  -3.100  1.00  0.00    -0.252 OA
BRANCH   2   4
ATOM      4  O   UNL     1       7.294  -2.433  -3.420  1.00  0.00    -0.481 OA
ATOM      5  H   UNL     1       7.168  -2.708  -4.411  1.00  0.00     0.296 HD
ENDBRANCH   2   4
ENDBRANCH   1   2
BRANCH   1   6
ATOM      6  C   UNL     1       7.032  -0.119  -2.142  1.00  0.00     0.047 C 
BRANCH   6   7
ATOM      7  C   UNL     1       6.507  -0.011  -0.769  1.00  0.00    -0.047 A 
ATOM      8  C   UNL     1       5.874   1.170  -0.403  1.00  0.00     0.004 A 
ATOM      9  C   UNL     1       6.600  -0.990   0.186  1.00  0.00     0.004 A 
ATOM     10  C   UNL     1       5.370   1.313   0.889  1.00  0.00     0.000 A 
ATOM     11  C   UNL     1       6.112  -0.879   1.473  1.00  0.00     0.000 A 
ATOM     12  C   UNL     1       5.488   0.307   1.808  1.00  0.00     0.000 A 
ENDBRANCH   6   7
ENDBRANCH   1   6
TORSDOF 4
ENDMDL
MODEL 2
REMARK VINA RESULT:      -7.3      0.169      1.439
REMARK SMILES O=C(O)CCc1ccccc1
REMARK SMILES IDX 4 1 2 2 1 3 3 4 5 6 6 7 7 8 11 9 8 10 10 11 9 12
REMARK H PARENT 3 5
REMARK Flexibility Score: inf
ROOT
ATOM      1  C   UNL     1       8.436  -0.790  -1.962  1.00  0.00     0.127 C 
ENDROOT
BRANCH   1   2
ATOM      2  C   UNL     1       8.447  -1.967  -2.848  1.00  0.00     0.303 C 
ATOM      3  O   UNL     1       9.536  -2.547  -3.069  1.00  0.00    -0.252 OA
BRANCH   2   4
ATOM      4  O   UNL     1       7.288  -2.440  -3.432  1.00  0.00    -0.481 OA
ATOM      5  H   UNL     1       6.959  -2.148  -4.371  1.00  0.00     0.296 HD
ENDBRANCH   2   4
ENDBRANCH   1   2
BRANCH   1   6
ATOM      6  C   UNL     1       7.053  -0.158  -2.075  1.00  0.00     0.047 C 
BRANCH   6   7
ATOM      7  C   UNL     1       6.454   0.107  -0.755  1.00  0.00    -0.047 A 
ATOM      8  C   UNL     1       6.555  -0.879   0.219  1.00  0.00     0.004 A 
ATOM      9  C   UNL     1       5.794   1.258  -0.409  1.00  0.00     0.004 A 
ATOM     10  C   UNL     1       5.995  -0.667   1.478  1.00  0.00     0.000 A 
ATOM     11  C   UNL     1       5.230   1.497   0.828  1.00  0.00     0.000 A 
ATOM     12  C   UNL     1       5.345   0.499   1.775  1.00  0.00     0.000 A 
ENDBRANCH   6   7
ENDBRANCH   1   6
TORSDOF 4
ENDMDL
MODEL 3
REMARK VINA RESULT:      -6.8      3.368      5.058
REMARK SMILES O=C(O)CCc1ccccc1
REMARK SMILES IDX 4 1 2 2 1 3 3 4 5 6 6 7 7 8 11 9 8 10 10 11 9 12
REMARK H PARENT 3 5
REMARK Flexibility Score: inf
ROOT
ATOM      1  C   UNL     1       4.994   1.789   0.695  1.00  0.00     0.127 C 
ENDROOT
BRANCH   1   2
ATOM      2  C   UNL     1       4.485   1.126   1.908  1.00  0.00     0.303 C 
ATOM      3  O   UNL     1       5.186   0.241   2.453  1.00  0.00    -0.252 OA
BRANCH   2   4
ATOM      4  O   UNL     1       3.259   1.461   2.451  1.00  0.00    -0.481 OA
ATOM      5  H   UNL     1       2.370   1.432   1.919  1.00  0.00     0.296 HD
ENDBRANCH   2   4
ENDBRANCH   1   2
BRANCH   1   6
ATOM      6  C   UNL     1       6.517   1.756   0.771  1.00  0.00     0.047 C 
BRANCH   6   7
ATOM      7  C   UNL     1       7.112   0.974  -0.327  1.00  0.00    -0.047 A 
ATOM      8  C   UNL     1       8.439   1.218  -0.659  1.00  0.00     0.004 A 
ATOM      9  C   UNL     1       6.452   0.020  -1.058  1.00  0.00     0.004 A 
ATOM     10  C   UNL     1       9.035   0.503  -1.696  1.00  0.00     0.000 A 
ATOM     11  C   UNL     1       7.015  -0.705  -2.090  1.00  0.00     0.000 A 
ATOM     12  C   UNL     1       8.335  -0.440  -2.398  1.00  0.00     0.000 A 
ENDBRANCH   6   7
ENDBRANCH   1   6
TORSDOF 4
ENDMDL
MODEL 4
REMARK VINA RESULT:      -6.6      1.931      2.676
REMARK SMILES O=C(O)CCc1ccccc1
REMARK SMILES IDX 4 1 2 2 1 3 3 4 5 6 6 7 7 8 11 9 8 10 10 11 9 12
REMARK H PARENT 3 5
REMARK Flexibility Score: inf
ROOT
ATOM      1  C   UNL     1       8.265   0.146  -2.214  1.00  0.00     0.127 C 
ENDROOT
BRANCH   1   2
ATOM      2  C   UNL     1       9.368   0.342  -1.257  1.00  0.00     0.303 C 
ATOM      3  O   UNL     1       9.438  -0.405  -0.252  1.00  0.00    -0.252 OA
BRANCH   2   4
ATOM      4  O   UNL     1      10.320   1.325  -1.447  1.00  0.00    -0.481 OA
ATOM      5  H   UNL     1      10.091   2.300  -1.715  1.00  0.00     0.296 HD
ENDBRANCH   2   4
ENDBRANCH   1   2
BRANCH   1   6
ATOM      6  C   UNL     1       7.164  -0.612  -1.480  1.00  0.00     0.047 C 
BRANCH   6   7
ATOM      7  C   UNL     1       6.365   0.271  -0.612  1.00  0.00    -0.047 A 
ATOM      8  C   UNL     1       6.112  -0.146   0.689  1.00  0.00     0.004 A 
ATOM      9  C   UNL     1       5.842   1.481  -0.991  1.00  0.00     0.004 A 
ATOM     10  C   UNL     1       5.355   0.659   1.538  1.00  0.00     0.000 A 
ATOM     11  C   UNL     1       5.089   2.300  -0.174  1.00  0.00     0.000 A 
ATOM     12  C   UNL     1       4.853   1.859   1.114  1.00  0.00     0.000 A 
ENDBRANCH   6   7
ENDBRANCH   1   6
TORSDOF 4
ENDMDL
MODEL 5
REMARK VINA RESULT:      -6.6      2.012      2.766
REMARK SMILES O=C(O)CCc1ccccc1
REMARK SMILES IDX 4 1 2 2 1 3 3 4 5 6 6 7 7 8 11 9 8 10 10 11 9 12
REMARK H PARENT 3 5
REMARK Flexibility Score: inf
ROOT
ATOM      1  C   UNL     1       7.906  -2.282   0.827  1.00  0.00     0.127 C 
ENDROOT
BRANCH   1   2
ATOM      2  C   UNL     1       8.736  -3.385   0.311  1.00  0.00     0.303 C 
ATOM      3  O   UNL     1       9.610  -3.885   1.058  1.00  0.00    -0.252 OA
BRANCH   2   4
ATOM      4  O   UNL     1       8.568  -3.875  -0.970  1.00  0.00    -0.481 OA
ATOM      5  H   UNL     1       9.072  -3.504  -1.796  1.00  0.00     0.296 HD
ENDBRANCH   2   4
ENDBRANCH   1   2
BRANCH   1   6
ATOM      6  C   UNL     1       7.475  -1.447  -0.374  1.00  0.00     0.047 C 
BRANCH   6   7
ATOM      7  C   UNL     1       6.609  -0.320   0.015  1.00  0.00    -0.047 A 
ATOM      8  C   UNL     1       6.081  -0.315   1.301  1.00  0.00     0.004 A 
ATOM      9  C   UNL     1       6.275   0.731  -0.800  1.00  0.00     0.004 A 
ATOM     10  C   UNL     1       5.253   0.731   1.703  1.00  0.00     0.000 A 
ATOM     11  C   UNL     1       5.458   1.781  -0.430  1.00  0.00     0.000 A 
ATOM     12  C   UNL     1       4.947   1.758   0.853  1.00  0.00     0.000 A 
ENDBRANCH   6   7
ENDBRANCH   1   6
TORSDOF 4
ENDMDL
