@<TRIPOS>MOLECULE
/home/cewinharhar/GITHUB/reincatalyze/data/processed/docking_pred/2023-Apr-25-1829_maxeplen10_maxtrainstep200_exh32_gamma099_lrac3e-4_lrcr1e-3/bef029ec7f2d3d0301694813bb63cef4e6663bb8_ligand_2.pdbqt
 12 12 0 0 0
SMALL
GASTEIGER

@<TRIPOS>ATOM
      1  C          8.4360   -0.7900   -1.9620 C.3     1  UNL1        0.1270
      2  C          8.4470   -1.9670   -2.8480 C.2     1  UNL1        0.3030
      3  O          9.5360   -2.5470   -3.0690 O.2     1  UNL1       -0.2520
      4  O          7.2880   -2.4400   -3.4320 O.3     1  UNL1       -0.4810
      5  H          6.9590   -2.1480   -4.3710 H       1  UNL1        0.2960
      6  C          7.0530   -0.1580   -2.0750 C.3     1  UNL1        0.0470
      7  C          6.4540    0.1070   -0.7550 C.2     1  UNL1       -0.0470
      8  C          6.5550   -0.8790    0.2190 C.2     1  UNL1        0.0040
      9  C          5.7940    1.2580   -0.4090 C.2     1  UNL1        0.0040
     10  C          5.9950   -0.6670    1.4780 C.2     1  UNL1        0.0000
     11  C          5.2300    1.4970    0.8280 C.2     1  UNL1        0.0000
     12  C          5.3450    0.4990    1.7750 C.2     1  UNL1        0.0000
@<TRIPOS>BOND
     1     5     4    1
     2     4     2    1
     3     3     2    2
     4     2     1    1
     5     6     1    1
     6     6     7    1
     7     7     9    2
     8     7     8    1
     9     9    11    1
    10     8    10    2
    11    11    12    2
    12    10    12    1
