@<TRIPOS>MOLECULE
/home/cewinharhar/GITHUB/reincatalyze/data/processed/docking_pred/2023-Apr-25-1829_maxeplen10_maxtrainstep200_exh32_gamma099_lrac3e-4_lrcr1e-3/bef029ec7f2d3d0301694813bb63cef4e6663bb8_ligand_2.pdbqt
 12 12 0 0 0
SMALL
GASTEIGER

@<TRIPOS>ATOM
      1  C          8.2650    0.1460   -2.2140 C.3     1  UNL1        0.1270
      2  C          9.3680    0.3420   -1.2570 C.2     1  UNL1        0.3030
      3  O          9.4380   -0.4050   -0.2520 O.2     1  UNL1       -0.2520
      4  O         10.3200    1.3250   -1.4470 O.3     1  UNL1       -0.4810
      5  H         10.0910    2.3000   -1.7150 H       1  UNL1        0.2960
      6  C          7.1640   -0.6120   -1.4800 C.3     1  UNL1        0.0470
      7  C          6.3650    0.2710   -0.6120 C.2     1  UNL1       -0.0470
      8  C          6.1120   -0.1460    0.6890 C.2     1  UNL1        0.0040
      9  C          5.8420    1.4810   -0.9910 C.2     1  UNL1        0.0040
     10  C          5.3550    0.6590    1.5380 C.2     1  UNL1        0.0000
     11  C          5.0890    2.3000   -0.1740 C.2     1  UNL1        0.0000
     12  C          4.8530    1.8590    1.1140 C.2     1  UNL1        0.0000
@<TRIPOS>BOND
     1     1     6    1
     2     1     2    1
     3     5     4    1
     4     6     7    1
     5     4     2    1
     6     2     3    2
     7     9     7    2
     8     9    11    1
     9     7     8    1
    10    11    12    2
    11     8    10    2
    12    12    10    1
