@<TRIPOS>MOLECULE
/home/cewinharhar/GITHUB/reincatalyze/data/processed/docking_pred/2023-Apr-25-1829_maxeplen10_maxtrainstep200_exh32_gamma099_lrac3e-4_lrcr1e-3/bef029ec7f2d3d0301694813bb63cef4e6663bb8_ligand_2.pdbqt
 12 12 0 0 0
SMALL
GASTEIGER

@<TRIPOS>ATOM
      1  C          7.9060   -2.2820    0.8270 C.3     1  UNL1        0.1270
      2  C          8.7360   -3.3850    0.3110 C.2     1  UNL1        0.3030
      3  O          9.6100   -3.8850    1.0580 O.2     1  UNL1       -0.2520
      4  O          8.5680   -3.8750   -0.9700 O.3     1  UNL1       -0.4810
      5  H          9.0720   -3.5040   -1.7960 H       1  UNL1        0.2960
      6  C          7.4750   -1.4470   -0.3740 C.3     1  UNL1        0.0470
      7  C          6.6090   -0.3200    0.0150 C.2     1  UNL1       -0.0470
      8  C          6.0810   -0.3150    1.3010 C.2     1  UNL1        0.0040
      9  C          6.2750    0.7310   -0.8000 C.2     1  UNL1        0.0040
     10  C          5.2530    0.7310    1.7030 C.2     1  UNL1        0.0000
     11  C          5.4580    1.7810   -0.4300 C.2     1  UNL1        0.0000
     12  C          4.9470    1.7580    0.8530 C.2     1  UNL1        0.0000
@<TRIPOS>BOND
     1     5     4    1
     2     4     2    1
     3     9    11    1
     4     9     7    2
     5    11    12    2
     6     6     7    1
     7     6     1    1
     8     7     8    1
     9     2     1    1
    10     2     3    2
    11    12    10    1
    12     8    10    2
