@<TRIPOS>MOLECULE
/home/cewinharhar/GITHUB/reincatalyze/data/processed/docking_pred/2023-Apr-25-1829_maxeplen10_maxtrainstep200_exh32_gamma099_lrac3e-4_lrcr1e-3/bef029ec7f2d3d0301694813bb63cef4e6663bb8_ligand_2.pdbqt
 12 12 0 0 0
SMALL
GASTEIGER

@<TRIPOS>ATOM
      1  C          4.9940    1.7890    0.6950 C.3     1  UNL1        0.1270
      2  C          4.4850    1.1260    1.9080 C.2     1  UNL1        0.3030
      3  O          5.1860    0.2410    2.4530 O.2     1  UNL1       -0.2520
      4  O          3.2590    1.4610    2.4510 O.3     1  UNL1       -0.4810
      5  H          2.3700    1.4320    1.9190 H       1  UNL1        0.2960
      6  C          6.5170    1.7560    0.7710 C.3     1  UNL1        0.0470
      7  C          7.1120    0.9740   -0.3270 C.2     1  UNL1       -0.0470
      8  C          8.4390    1.2180   -0.6590 C.2     1  UNL1        0.0040
      9  C          6.4520    0.0200   -1.0580 C.2     1  UNL1        0.0040
     10  C          9.0350    0.5030   -1.6960 C.2     1  UNL1        0.0000
     11  C          7.0150   -0.7050   -2.0900 C.2     1  UNL1        0.0000
     12  C          8.3350   -0.4400   -2.3980 C.2     1  UNL1        0.0000
@<TRIPOS>BOND
     1    12    11    2
     2    12    10    1
     3    11     9    1
     4    10     8    2
     5     9     7    2
     6     8     7    1
     7     7     6    1
     8     1     6    1
     9     1     2    1
    10     2     4    1
    11     2     3    2
    12     5     4    1
