@<TRIPOS>MOLECULE
/home/cewinharhar/GITHUB/reincatalyze/data/processed/docking_pred/2023-Apr-25-1829_maxeplen10_maxtrainstep200_exh32_gamma099_lrac3e-4_lrcr1e-3/bef029ec7f2d3d0301694813bb63cef4e6663bb8_ligand_2.pdbqt
 12 12 0 0 0
SMALL
GASTEIGER

@<TRIPOS>ATOM
      1  C          8.4690   -0.6270   -2.1700 C.3     1  UNL1        0.1270
      2  C          8.4650   -1.8960   -2.9190 C.2     1  UNL1        0.3030
      3  O          9.5510   -2.4960   -3.1000 O.2     1  UNL1       -0.2520
      4  O          7.2940   -2.4330   -3.4200 O.3     1  UNL1       -0.4810
      5  H          7.1680   -2.7080   -4.4110 H       1  UNL1        0.2960
      6  C          7.0320   -0.1190   -2.1420 C.3     1  UNL1        0.0470
      7  C          6.5070   -0.0110   -0.7690 C.2     1  UNL1       -0.0470
      8  C          5.8740    1.1700   -0.4030 C.2     1  UNL1        0.0040
      9  C          6.6000   -0.9900    0.1860 C.2     1  UNL1        0.0040
     10  C          5.3700    1.3130    0.8890 C.2     1  UNL1        0.0000
     11  C          6.1120   -0.8790    1.4730 C.2     1  UNL1        0.0000
     12  C          5.4880    0.3070    1.8080 C.2     1  UNL1        0.0000
@<TRIPOS>BOND
     1     5     4    1
     2     4     2    1
     3     3     2    2
     4     2     1    1
     5     1     6    1
     6     6     7    1
     7     7     8    2
     8     7     9    1
     9     8    10    1
    10     9    11    2
    11    10    12    2
    12    11    12    1
