@<TRIPOS>MOLECULE
/home/cewinharhar/GITHUB/reincatalyze/data/processed/docking_pred/2023-Apr-25-1829_maxeplen10_maxtrainstep200_exh32_gamma099_lrac3e-4_lrcr1e-3/bfaa3bc067c86e8b5ef89a85d12e30cfe25fe09e_ligand_2.pdbqt
 12 12 0 0 0
SMALL
GASTEIGER

@<TRIPOS>ATOM
      1  C          8.4420   -0.6790   -2.0740 C.3     1  UNL1        0.1270
      2  C          8.4100   -1.9160   -2.8740 C.2     1  UNL1        0.3030
      3  O          7.2990   -2.3900   -3.2100 O.2     1  UNL1       -0.2520
      4  O          9.5730   -2.5550   -3.2590 O.3     1  UNL1       -0.4810
      5  H          9.8900   -3.4570   -2.8580 H       1  UNL1        0.2960
      6  C          7.0480   -0.0660   -2.1390 C.3     1  UNL1        0.0470
      7  C          6.4710    0.1460   -0.8000 C.2     1  UNL1       -0.0470
      8  C          6.5970   -0.8740    0.1360 C.2     1  UNL1        0.0040
      9  C          5.8080    1.2780   -0.4010 C.2     1  UNL1        0.0040
     10  C          6.0580   -0.7140    1.4110 C.2     1  UNL1        0.0000
     11  C          5.2650    1.4670    0.8540 C.2     1  UNL1        0.0000
     12  C          5.4040    0.4360    1.7620 C.2     1  UNL1        0.0000
@<TRIPOS>BOND
     1     4     2    1
     2     4     5    1
     3     3     2    2
     4     2     1    1
     5     6     1    1
     6     6     7    1
     7     7     9    2
     8     7     8    1
     9     9    11    1
    10     8    10    2
    11    11    12    2
    12    10    12    1
