@<TRIPOS>MOLECULE
/home/cewinharhar/GITHUB/reincatalyze/data/processed/docking_pred/2023-Apr-25-1829_maxeplen10_maxtrainstep200_exh32_gamma099_lrac3e-4_lrcr1e-3/bfaa3bc067c86e8b5ef89a85d12e30cfe25fe09e_ligand_2.pdbqt
 12 12 0 0 0
SMALL
GASTEIGER

@<TRIPOS>ATOM
      1  C          4.9920    1.7780    0.7080 C.3     1  UNL1        0.1270
      2  C          4.4810    1.1170    1.9210 C.2     1  UNL1        0.3030
      3  O          5.1810    0.2320    2.4690 O.2     1  UNL1       -0.2520
      4  O          3.2540    1.4520    2.4620 O.3     1  UNL1       -0.4810
      5  H          2.4580    1.8060    1.9000 H       1  UNL1        0.2960
      6  C          6.5140    1.7450    0.7870 C.3     1  UNL1        0.0470
      7  C          7.1110    0.9710   -0.3170 C.2     1  UNL1       -0.0470
      8  C          8.4360    1.2230   -0.6500 C.2     1  UNL1        0.0040
      9  C          6.4550    0.0180   -1.0520 C.2     1  UNL1        0.0040
     10  C          9.0340    0.5170   -1.6920 C.2     1  UNL1        0.0000
     11  C          7.0190   -0.6990   -2.0880 C.2     1  UNL1        0.0000
     12  C          8.3370   -0.4260   -2.3970 C.2     1  UNL1        0.0000
@<TRIPOS>BOND
     1    12    11    2
     2    12    10    1
     3    11     9    1
     4    10     8    2
     5     9     7    2
     6     8     7    1
     7     7     6    1
     8     1     6    1
     9     1     2    1
    10     5     4    1
    11     2     4    1
    12     2     3    2
