@<TRIPOS>MOLECULE
/home/cewinharhar/GITHUB/reincatalyze/data/processed/docking_pred/2023-Apr-25-1829_maxeplen10_maxtrainstep200_exh32_gamma099_lrac3e-4_lrcr1e-3/bfaa3bc067c86e8b5ef89a85d12e30cfe25fe09e_ligand_2.pdbqt
 12 12 0 0 0
SMALL
GASTEIGER

@<TRIPOS>ATOM
      1  C          8.4740   -0.6340   -2.1700 C.3     1  UNL1        0.1270
      2  C          8.4800   -1.9070   -2.9120 C.2     1  UNL1        0.3030
      3  O          9.5690   -2.5040   -3.0800 O.2     1  UNL1       -0.2520
      4  O          7.3160   -2.4490   -3.4210 O.3     1  UNL1       -0.4810
      5  H          6.9230   -2.1960   -4.3470 H       1  UNL1        0.2960
      6  C          7.0400   -0.1180   -2.1760 C.3     1  UNL1        0.0470
      7  C          6.4920    0.0170   -0.8150 C.2     1  UNL1       -0.0470
      8  C          5.8570    1.2070   -0.4810 C.2     1  UNL1        0.0040
      9  C          6.5650   -0.9440    0.1600 C.2     1  UNL1        0.0040
     10  C          5.3310    1.3750    0.7990 C.2     1  UNL1        0.0000
     11  C          6.0550   -0.8080    1.4360 C.2     1  UNL1        0.0000
     12  C          5.4290    0.3860    1.7390 C.2     1  UNL1        0.0000
@<TRIPOS>BOND
     1     5     4    1
     2     4     2    1
     3     3     2    2
     4     2     1    1
     5     6     1    1
     6     6     7    1
     7     7     8    2
     8     7     9    1
     9     8    10    1
    10     9    11    2
    11    10    12    2
    12    11    12    1
