@<TRIPOS>MOLECULE
/home/cewinharhar/GITHUB/reincatalyze/data/processed/docking_pred/2023-Apr-25-1829_maxeplen10_maxtrainstep200_exh32_gamma099_lrac3e-4_lrcr1e-3/bfaa3bc067c86e8b5ef89a85d12e30cfe25fe09e_ligand_2.pdbqt
 12 12 0 0 0
SMALL
GASTEIGER

@<TRIPOS>ATOM
      1  C          8.3420   -0.9060   -1.8640 C.3     1  UNL1        0.1270
      2  C          8.4420   -2.0120   -2.8320 C.2     1  UNL1        0.3030
      3  O          9.5720   -2.4860   -3.0960 O.2     1  UNL1       -0.2520
      4  O          7.3200   -2.5330   -3.4490 O.3     1  UNL1       -0.4810
      5  H          7.0870   -3.5430   -3.4560 H       1  UNL1        0.2960
      6  C          7.5330   -1.4200   -0.6790 C.3     1  UNL1        0.0470
      7  C          6.6560   -0.3800   -0.1110 C.2     1  UNL1       -0.0470
      8  C          6.3090    0.6950   -0.9200 C.2     1  UNL1        0.0040
      9  C          6.1560   -0.3860    1.1650 C.2     1  UNL1        0.0040
     10  C          5.4870    1.7020   -0.4170 C.2     1  UNL1        0.0000
     11  C          5.3400    0.5950    1.6920 C.2     1  UNL1        0.0000
     12  C          5.0130    1.6520    0.8650 C.2     1  UNL1        0.0000
@<TRIPOS>BOND
     1     5     4    1
     2     4     2    1
     3     3     2    2
     4     2     1    1
     5     1     6    1
     6     8    10    1
     7     8     7    2
     8     6     7    1
     9    10    12    2
    10     7     9    1
    11    12    11    1
    12     9    11    2
