@<TRIPOS>MOLECULE
/home/cewinharhar/GITHUB/reincatalyze/data/processed/docking_pred/2023-Apr-25-1829_maxeplen10_maxtrainstep200_exh32_gamma099_lrac3e-4_lrcr1e-3/bfaa3bc067c86e8b5ef89a85d12e30cfe25fe09e_ligand_2.pdbqt
 12 12 0 0 0
SMALL
GASTEIGER

@<TRIPOS>ATOM
      1  C          8.2340    0.3140   -2.2500 C.3     1  UNL1        0.1270
      2  C          9.3540    0.3510   -1.2940 C.2     1  UNL1        0.3030
      3  O          9.3690   -0.4700   -0.3470 O.2     1  UNL1       -0.2520
      4  O         10.3800    1.2680   -1.4220 O.3     1  UNL1       -0.4810
      5  H         10.9750    1.5760   -0.6310 H       1  UNL1        0.2960
      6  C          7.1220   -0.5070   -1.6060 C.3     1  UNL1        0.0470
      7  C          6.3360    0.2810   -0.6410 C.2     1  UNL1       -0.0470
      8  C          5.8110    1.4960   -1.0640 C.2     1  UNL1        0.0040
      9  C          6.0850   -0.0890    0.6550 C.2     1  UNL1        0.0040
     10  C          5.0680    2.2740   -0.1780 C.2     1  UNL1        0.0000
     11  C          5.3520    0.6590    1.5560 C.2     1  UNL1        0.0000
     12  C          4.8440    1.8620    1.1080 C.2     1  UNL1        0.0000
@<TRIPOS>BOND
     1     1     6    1
     2     1     2    1
     3     6     7    1
     4     4     2    1
     5     4     5    1
     6     2     3    2
     7     8     7    2
     8     8    10    1
     9     7     9    1
    10    10    12    2
    11     9    11    2
    12    12    11    1
