MODEL 1
REMARK VINA RESULT:      -7.3      0.000      0.000
REMARK SMILES O=C(O)CCc1ccccc1
REMARK SMILES IDX 4 1 2 2 1 3 3 4 5 6 6 7 7 8 11 9 8 10 10 11 9 12
REMARK H PARENT 3 5
REMARK Flexibility Score: inf
ROOT
ATOM      1  C   UNL     1       8.474  -0.634  -2.170  1.00  0.00     0.127 C 
ENDROOT
BRANCH   1   2
ATOM      2  C   UNL     1       8.480  -1.907  -2.912  1.00  0.00     0.303 C 
ATOM      3  O   UNL     1       9.569  -2.504  -3.080  1.00  0.00    -0.252 OA
BRANCH   2   4
ATOM      4  O   UNL     1       7.316  -2.449  -3.421  1.00  0.00    -0.481 OA
ATOM      5  H   UNL     1       6.923  -2.196  -4.347  1.00  0.00     0.296 HD
ENDBRANCH   2   4
ENDBRANCH   1   2
BRANCH   1   6
ATOM      6  C   UNL     1       7.040  -0.118  -2.176  1.00  0.00     0.047 C 
BRANCH   6   7
ATOM      7  C   UNL     1       6.492   0.017  -0.815  1.00  0.00    -0.047 A 
ATOM      8  C   UNL     1       5.857   1.207  -0.481  1.00  0.00     0.004 A 
ATOM      9  C   UNL     1       6.565  -0.944   0.160  1.00  0.00     0.004 A 
ATOM     10  C   UNL     1       5.331   1.375   0.799  1.00  0.00     0.000 A 
ATOM     11  C   UNL     1       6.055  -0.808   1.436  1.00  0.00     0.000 A 
ATOM     12  C   UNL     1       5.429   0.386   1.739  1.00  0.00     0.000 A 
ENDBRANCH   6   7
ENDBRANCH   1   6
TORSDOF 4
ENDMDL
MODEL 2
REMARK VINA RESULT:      -7.2      0.125      1.728
REMARK SMILES O=C(O)CCc1ccccc1
REMARK SMILES IDX 4 1 2 2 1 3 3 4 5 6 6 7 7 8 11 9 8 10 10 11 9 12
REMARK H PARENT 3 5
REMARK Flexibility Score: inf
ROOT
ATOM      1  C   UNL     1       8.442  -0.679  -2.074  1.00  0.00     0.127 C 
ENDROOT
BRANCH   1   2
ATOM      2  C   UNL     1       8.410  -1.916  -2.874  1.00  0.00     0.303 C 
ATOM      3  O   UNL     1       7.299  -2.390  -3.210  1.00  0.00    -0.252 OA
BRANCH   2   4
ATOM      4  O   UNL     1       9.573  -2.555  -3.259  1.00  0.00    -0.481 OA
ATOM      5  H   UNL     1       9.890  -3.457  -2.858  1.00  0.00     0.296 HD
ENDBRANCH   2   4
ENDBRANCH   1   2
BRANCH   1   6
ATOM      6  C   UNL     1       7.048  -0.066  -2.139  1.00  0.00     0.047 C 
BRANCH   6   7
ATOM      7  C   UNL     1       6.471   0.146  -0.800  1.00  0.00    -0.047 A 
ATOM      8  C   UNL     1       6.597  -0.874   0.136  1.00  0.00     0.004 A 
ATOM      9  C   UNL     1       5.808   1.278  -0.401  1.00  0.00     0.004 A 
ATOM     10  C   UNL     1       6.058  -0.714   1.411  1.00  0.00     0.000 A 
ATOM     11  C   UNL     1       5.265   1.467   0.854  1.00  0.00     0.000 A 
ATOM     12  C   UNL     1       5.404   0.436   1.762  1.00  0.00     0.000 A 
ENDBRANCH   6   7
ENDBRANCH   1   6
TORSDOF 4
ENDMDL
MODEL 3
REMARK VINA RESULT:      -7.2      0.633      1.125
REMARK SMILES O=C(O)CCc1ccccc1
REMARK SMILES IDX 4 1 2 2 1 3 3 4 5 6 6 7 7 8 11 9 8 10 10 11 9 12
REMARK H PARENT 3 5
REMARK Flexibility Score: inf
ROOT
ATOM      1  C   UNL     1       8.342  -0.906  -1.864  1.00  0.00     0.127 C 
ENDROOT
BRANCH   1   2
ATOM      2  C   UNL     1       8.442  -2.012  -2.832  1.00  0.00     0.303 C 
ATOM      3  O   UNL     1       9.572  -2.486  -3.096  1.00  0.00    -0.252 OA
BRANCH   2   4
ATOM      4  O   UNL     1       7.320  -2.533  -3.449  1.00  0.00    -0.481 OA
ATOM      5  H   UNL     1       7.087  -3.543  -3.456  1.00  0.00     0.296 HD
ENDBRANCH   2   4
ENDBRANCH   1   2
BRANCH   1   6
ATOM      6  C   UNL     1       7.533  -1.420  -0.679  1.00  0.00     0.047 C 
BRANCH   6   7
ATOM      7  C   UNL     1       6.656  -0.380  -0.111  1.00  0.00    -0.047 A 
ATOM      8  C   UNL     1       6.309   0.695  -0.920  1.00  0.00     0.004 A 
ATOM      9  C   UNL     1       6.156  -0.386   1.165  1.00  0.00     0.004 A 
ATOM     10  C   UNL     1       5.487   1.702  -0.417  1.00  0.00     0.000 A 
ATOM     11  C   UNL     1       5.340   0.595   1.692  1.00  0.00     0.000 A 
ATOM     12  C   UNL     1       5.013   1.652   0.865  1.00  0.00     0.000 A 
ENDBRANCH   6   7
ENDBRANCH   1   6
TORSDOF 4
ENDMDL
MODEL 4
REMARK VINA RESULT:      -6.8      3.374      5.063
REMARK SMILES O=C(O)CCc1ccccc1
REMARK SMILES IDX 4 1 2 2 1 3 3 4 5 6 6 7 7 8 11 9 8 10 10 11 9 12
REMARK H PARENT 3 5
REMARK Flexibility Score: inf
ROOT
ATOM      1  C   UNL     1       4.992   1.778   0.708  1.00  0.00     0.127 C 
ENDROOT
BRANCH   1   2
ATOM      2  C   UNL     1       4.481   1.117   1.921  1.00  0.00     0.303 C 
ATOM      3  O   UNL     1       5.181   0.232   2.469  1.00  0.00    -0.252 OA
BRANCH   2   4
ATOM      4  O   UNL     1       3.254   1.452   2.462  1.00  0.00    -0.481 OA
ATOM      5  H   UNL     1       2.458   1.806   1.900  1.00  0.00     0.296 HD
ENDBRANCH   2   4
ENDBRANCH   1   2
BRANCH   1   6
ATOM      6  C   UNL     1       6.514   1.745   0.787  1.00  0.00     0.047 C 
BRANCH   6   7
ATOM      7  C   UNL     1       7.111   0.971  -0.317  1.00  0.00    -0.047 A 
ATOM      8  C   UNL     1       8.436   1.223  -0.650  1.00  0.00     0.004 A 
ATOM      9  C   UNL     1       6.455   0.018  -1.052  1.00  0.00     0.004 A 
ATOM     10  C   UNL     1       9.034   0.517  -1.692  1.00  0.00     0.000 A 
ATOM     11  C   UNL     1       7.019  -0.699  -2.088  1.00  0.00     0.000 A 
ATOM     12  C   UNL     1       8.337  -0.426  -2.397  1.00  0.00     0.000 A 
ENDBRANCH   6   7
ENDBRANCH   1   6
TORSDOF 4
ENDMDL
MODEL 5
REMARK VINA RESULT:      -6.6      1.899      2.295
REMARK SMILES O=C(O)CCc1ccccc1
REMARK SMILES IDX 4 1 2 2 1 3 3 4 5 6 6 7 7 8 11 9 8 10 10 11 9 12
REMARK H PARENT 3 5
REMARK Flexibility Score: inf
ROOT
ATOM      1  C   UNL     1       8.234   0.314  -2.250  1.00  0.00     0.127 C 
ENDROOT
BRANCH   1   2
ATOM      2  C   UNL     1       9.354   0.351  -1.294  1.00  0.00     0.303 C 
ATOM      3  O   UNL     1       9.369  -0.470  -0.347  1.00  0.00    -0.252 OA
BRANCH   2   4
ATOM      4  O   UNL     1      10.380   1.268  -1.422  1.00  0.00    -0.481 OA
ATOM      5  H   UNL     1      10.975   1.576  -0.631  1.00  0.00     0.296 HD
ENDBRANCH   2   4
ENDBRANCH   1   2
BRANCH   1   6
ATOM      6  C   UNL     1       7.122  -0.507  -1.606  1.00  0.00     0.047 C 
BRANCH   6   7
ATOM      7  C   UNL     1       6.336   0.281  -0.641  1.00  0.00    -0.047 A 
ATOM      8  C   UNL     1       5.811   1.496  -1.064  1.00  0.00     0.004 A 
ATOM      9  C   UNL     1       6.085  -0.089   0.655  1.00  0.00     0.004 A 
ATOM     10  C   UNL     1       5.068   2.274  -0.178  1.00  0.00     0.000 A 
ATOM     11  C   UNL     1       5.352   0.659   1.556  1.00  0.00     0.000 A 
ATOM     12  C   UNL     1       4.844   1.862   1.108  1.00  0.00     0.000 A 
ENDBRANCH   6   7
ENDBRANCH   1   6
TORSDOF 4
ENDMDL
