MODEL 1
REMARK VINA RESULT:      -7.3      0.000      0.000
REMARK SMILES O=C(O)CCc1ccccc1
REMARK SMILES IDX 4 1 2 2 1 3 3 4 5 6 6 7 7 8 11 9 8 10 10 11 9 12
REMARK H PARENT 3 5
REMARK Flexibility Score: inf
ROOT
ATOM      1  C   UNL     1       8.459  -0.590  -2.237  1.00  0.00     0.127 C 
ENDROOT
BRANCH   1   2
ATOM      2  C   UNL     1       8.476  -1.892  -2.926  1.00  0.00     0.303 C 
ATOM      3  O   UNL     1       9.568  -2.492  -3.058  1.00  0.00    -0.252 OA
BRANCH   2   4
ATOM      4  O   UNL     1       7.318  -2.458  -3.424  1.00  0.00    -0.481 OA
ATOM      5  H   UNL     1       6.571  -1.914  -3.895  1.00  0.00     0.296 HD
ENDBRANCH   2   4
ENDBRANCH   1   2
BRANCH   1   6
ATOM      6  C   UNL     1       7.008  -0.124  -2.193  1.00  0.00     0.047 C 
BRANCH   6   7
ATOM      7  C   UNL     1       6.499  -0.020  -0.814  1.00  0.00    -0.047 A 
ATOM      8  C   UNL     1       5.885   1.166  -0.433  1.00  0.00     0.004 A 
ATOM      9  C   UNL     1       6.589  -1.007   0.132  1.00  0.00     0.004 A 
ATOM     10  C   UNL     1       5.396   1.306   0.865  1.00  0.00     0.000 A 
ATOM     11  C   UNL     1       6.114  -0.900   1.425  1.00  0.00     0.000 A 
ATOM     12  C   UNL     1       5.510   0.291   1.776  1.00  0.00     0.000 A 
ENDBRANCH   6   7
ENDBRANCH   1   6
TORSDOF 4
ENDMDL
MODEL 2
REMARK VINA RESULT:      -7.2      0.639      1.627
REMARK SMILES O=C(O)CCc1ccccc1
REMARK SMILES IDX 4 1 2 2 1 3 3 4 5 6 6 7 7 8 11 9 8 10 10 11 9 12
REMARK H PARENT 3 5
REMARK Flexibility Score: inf
ROOT
ATOM      1  C   UNL     1       8.210  -0.864  -1.968  1.00  0.00     0.127 C 
ENDROOT
BRANCH   1   2
ATOM      2  C   UNL     1       8.365  -2.002  -2.890  1.00  0.00     0.303 C 
ATOM      3  O   UNL     1       9.511  -2.471  -3.085  1.00  0.00    -0.252 OA
BRANCH   2   4
ATOM      4  O   UNL     1       7.278  -2.559  -3.536  1.00  0.00    -0.481 OA
ATOM      5  H   UNL     1       7.079  -3.576  -3.550  1.00  0.00     0.296 HD
ENDBRANCH   2   4
ENDBRANCH   1   2
BRANCH   1   6
ATOM      6  C   UNL     1       7.384  -1.354  -0.784  1.00  0.00     0.047 C 
BRANCH   6   7
ATOM      7  C   UNL     1       6.563  -0.281  -0.197  1.00  0.00    -0.047 A 
ATOM      8  C   UNL     1       6.134  -0.431   1.117  1.00  0.00     0.004 A 
ATOM      9  C   UNL     1       6.180   0.862  -0.850  1.00  0.00     0.004 A 
ATOM     10  C   UNL     1       5.350   0.559   1.705  1.00  0.00     0.000 A 
ATOM     11  C   UNL     1       5.405   1.861  -0.294  1.00  0.00     0.000 A 
ATOM     12  C   UNL     1       4.993   1.683   1.012  1.00  0.00     0.000 A 
ENDBRANCH   6   7
ENDBRANCH   1   6
TORSDOF 4
ENDMDL
MODEL 3
REMARK VINA RESULT:      -7.2      0.136      1.729
REMARK SMILES O=C(O)CCc1ccccc1
REMARK SMILES IDX 4 1 2 2 1 3 3 4 5 6 6 7 7 8 11 9 8 10 10 11 9 12
REMARK H PARENT 3 5
REMARK Flexibility Score: inf
ROOT
ATOM      1  C   UNL     1       8.422  -0.668  -2.106  1.00  0.00     0.127 C 
ENDROOT
BRANCH   1   2
ATOM      2  C   UNL     1       8.401  -1.922  -2.878  1.00  0.00     0.303 C 
ATOM      3  O   UNL     1       7.295  -2.401  -3.224  1.00  0.00    -0.252 OA
BRANCH   2   4
ATOM      4  O   UNL     1       9.568  -2.574  -3.226  1.00  0.00    -0.481 OA
ATOM      5  H   UNL     1       9.859  -2.745  -4.206  1.00  0.00     0.296 HD
ENDBRANCH   2   4
ENDBRANCH   1   2
BRANCH   1   6
ATOM      6  C   UNL     1       7.009  -0.097  -2.138  1.00  0.00     0.047 C 
BRANCH   6   7
ATOM      7  C   UNL     1       6.459   0.101  -0.786  1.00  0.00    -0.047 A 
ATOM      8  C   UNL     1       6.598  -0.931   0.134  1.00  0.00     0.004 A 
ATOM      9  C   UNL     1       5.809   1.231  -0.360  1.00  0.00     0.004 A 
ATOM     10  C   UNL     1       6.084  -0.783   1.422  1.00  0.00     0.000 A 
ATOM     11  C   UNL     1       5.290   1.407   0.907  1.00  0.00     0.000 A 
ATOM     12  C   UNL     1       5.442   0.364   1.799  1.00  0.00     0.000 A 
ENDBRANCH   6   7
ENDBRANCH   1   6
TORSDOF 4
ENDMDL
MODEL 4
REMARK VINA RESULT:      -7.1      0.865      1.058
REMARK SMILES O=C(O)CCc1ccccc1
REMARK SMILES IDX 4 1 2 2 1 3 3 4 5 6 6 7 7 8 11 9 8 10 10 11 9 12
REMARK H PARENT 3 5
REMARK Flexibility Score: inf
ROOT
ATOM      1  C   UNL     1       7.284  -1.343  -2.288  1.00  0.00     0.127 C 
ENDROOT
BRANCH   1   2
ATOM      2  C   UNL     1       8.732  -1.428  -2.546  1.00  0.00     0.303 C 
ATOM      3  O   UNL     1       9.481  -0.530  -2.093  1.00  0.00    -0.252 OA
BRANCH   2   4
ATOM      4  O   UNL     1       9.274  -2.472  -3.271  1.00  0.00    -0.481 OA
ATOM      5  H   UNL     1       8.706  -3.223  -3.705  1.00  0.00     0.296 HD
ENDBRANCH   2   4
ENDBRANCH   1   2
BRANCH   1   6
ATOM      6  C   UNL     1       6.972   0.113  -1.962  1.00  0.00     0.047 C 
BRANCH   6   7
ATOM      7  C   UNL     1       6.359   0.266  -0.630  1.00  0.00    -0.047 A 
ATOM      8  C   UNL     1       5.658   1.436  -0.363  1.00  0.00     0.004 A 
ATOM      9  C   UNL     1       6.431  -0.660   0.378  1.00  0.00     0.004 A 
ATOM     10  C   UNL     1       5.070   1.619   0.886  1.00  0.00     0.000 A 
ATOM     11  C   UNL     1       5.859  -0.508   1.625  1.00  0.00     0.000 A 
ATOM     12  C   UNL     1       5.170   0.665   1.862  1.00  0.00     0.000 A 
ENDBRANCH   6   7
ENDBRANCH   1   6
TORSDOF 4
ENDMDL
MODEL 5
REMARK VINA RESULT:      -6.8      3.377      5.049
REMARK SMILES O=C(O)CCc1ccccc1
REMARK SMILES IDX 4 1 2 2 1 3 3 4 5 6 6 7 7 8 11 9 8 10 10 11 9 12
REMARK H PARENT 3 5
REMARK Flexibility Score: inf
ROOT
ATOM      1  C   UNL     1       4.988   1.779   0.692  1.00  0.00     0.127 C 
ENDROOT
BRANCH   1   2
ATOM      2  C   UNL     1       4.480   1.117   1.906  1.00  0.00     0.303 C 
ATOM      3  O   UNL     1       5.179   0.227   2.448  1.00  0.00    -0.252 OA
BRANCH   2   4
ATOM      4  O   UNL     1       3.259   1.458   2.455  1.00  0.00    -0.481 OA
ATOM      5  H   UNL     1       3.082   2.353   2.948  1.00  0.00     0.296 HD
ENDBRANCH   2   4
ENDBRANCH   1   2
BRANCH   1   6
ATOM      6  C   UNL     1       6.510   1.754   0.771  1.00  0.00     0.047 C 
BRANCH   6   7
ATOM      7  C   UNL     1       7.111   0.967  -0.320  1.00  0.00    -0.047 A 
ATOM      8  C   UNL     1       8.435   1.221  -0.658  1.00  0.00     0.004 A 
ATOM      9  C   UNL     1       6.460  -0.001  -1.040  1.00  0.00     0.004 A 
ATOM     10  C   UNL     1       9.036   0.502  -1.689  1.00  0.00     0.000 A 
ATOM     11  C   UNL     1       7.028  -0.731  -2.065  1.00  0.00     0.000 A 
ATOM     12  C   UNL     1       8.344  -0.456  -2.379  1.00  0.00     0.000 A 
ENDBRANCH   6   7
ENDBRANCH   1   6
TORSDOF 4
ENDMDL
