@<TRIPOS>MOLECULE
/home/cewinharhar/GITHUB/reincatalyze/data/processed/docking_pred/2023-Apr-25-1829_maxeplen10_maxtrainstep200_exh32_gamma099_lrac3e-4_lrcr1e-3/c2b16f598521213e119e3a09a49f7e8c9c89cc3b_ligand_2.pdbqt
 12 12 0 0 0
SMALL
GASTEIGER

@<TRIPOS>ATOM
      1  C          4.9880    1.7790    0.6920 C.3     1  UNL1        0.1270
      2  C          4.4800    1.1170    1.9060 C.2     1  UNL1        0.3030
      3  O          5.1790    0.2270    2.4480 O.2     1  UNL1       -0.2520
      4  O          3.2590    1.4580    2.4550 O.3     1  UNL1       -0.4810
      5  H          3.0820    2.3530    2.9480 H       1  UNL1        0.2960
      6  C          6.5100    1.7540    0.7710 C.3     1  UNL1        0.0470
      7  C          7.1110    0.9670   -0.3200 C.2     1  UNL1       -0.0470
      8  C          8.4350    1.2210   -0.6580 C.2     1  UNL1        0.0040
      9  C          6.4600   -0.0010   -1.0400 C.2     1  UNL1        0.0040
     10  C          9.0360    0.5020   -1.6890 C.2     1  UNL1        0.0000
     11  C          7.0280   -0.7310   -2.0650 C.2     1  UNL1        0.0000
     12  C          8.3440   -0.4560   -2.3790 C.2     1  UNL1        0.0000
@<TRIPOS>BOND
     1    12    11    2
     2    12    10    1
     3    11     9    1
     4    10     8    2
     5     9     7    2
     6     8     7    1
     7     7     6    1
     8     1     6    1
     9     1     2    1
    10     2     3    2
    11     2     4    1
    12     4     5    1
