@<TRIPOS>MOLECULE
/home/cewinharhar/GITHUB/reincatalyze/data/processed/docking_pred/2023-Apr-25-1829_maxeplen10_maxtrainstep200_exh32_gamma099_lrac3e-4_lrcr1e-3/c2b16f598521213e119e3a09a49f7e8c9c89cc3b_ligand_2.pdbqt
 12 12 0 0 0
SMALL
GASTEIGER

@<TRIPOS>ATOM
      1  C          7.2840   -1.3430   -2.2880 C.3     1  UNL1        0.1270
      2  C          8.7320   -1.4280   -2.5460 C.2     1  UNL1        0.3030
      3  O          9.4810   -0.5300   -2.0930 O.2     1  UNL1       -0.2520
      4  O          9.2740   -2.4720   -3.2710 O.3     1  UNL1       -0.4810
      5  H          8.7060   -3.2230   -3.7050 H       1  UNL1        0.2960
      6  C          6.9720    0.1130   -1.9620 C.3     1  UNL1        0.0470
      7  C          6.3590    0.2660   -0.6300 C.2     1  UNL1       -0.0470
      8  C          5.6580    1.4360   -0.3630 C.2     1  UNL1        0.0040
      9  C          6.4310   -0.6600    0.3780 C.2     1  UNL1        0.0040
     10  C          5.0700    1.6190    0.8860 C.2     1  UNL1        0.0000
     11  C          5.8590   -0.5080    1.6250 C.2     1  UNL1        0.0000
     12  C          5.1700    0.6650    1.8620 C.2     1  UNL1        0.0000
@<TRIPOS>BOND
     1     5     4    1
     2     4     2    1
     3     2     1    1
     4     2     3    2
     5     1     6    1
     6     6     7    1
     7     7     8    2
     8     7     9    1
     9     8    10    1
    10     9    11    2
    11    10    12    2
    12    11    12    1
