@<TRIPOS>MOLECULE
/home/cewinharhar/GITHUB/reincatalyze/data/processed/docking_pred/2023-Apr-25-1829_maxeplen10_maxtrainstep200_exh32_gamma099_lrac3e-4_lrcr1e-3/c2b16f598521213e119e3a09a49f7e8c9c89cc3b_ligand_2.pdbqt
 12 12 0 0 0
SMALL
GASTEIGER

@<TRIPOS>ATOM
      1  C          8.4220   -0.6680   -2.1060 C.3     1  UNL1        0.1270
      2  C          8.4010   -1.9220   -2.8780 C.2     1  UNL1        0.3030
      3  O          7.2950   -2.4010   -3.2240 O.2     1  UNL1       -0.2520
      4  O          9.5680   -2.5740   -3.2260 O.3     1  UNL1       -0.4810
      5  H          9.8590   -2.7450   -4.2060 H       1  UNL1        0.2960
      6  C          7.0090   -0.0970   -2.1380 C.3     1  UNL1        0.0470
      7  C          6.4590    0.1010   -0.7860 C.2     1  UNL1       -0.0470
      8  C          6.5980   -0.9310    0.1340 C.2     1  UNL1        0.0040
      9  C          5.8090    1.2310   -0.3600 C.2     1  UNL1        0.0040
     10  C          6.0840   -0.7830    1.4220 C.2     1  UNL1        0.0000
     11  C          5.2900    1.4070    0.9070 C.2     1  UNL1        0.0000
     12  C          5.4420    0.3640    1.7990 C.2     1  UNL1        0.0000
@<TRIPOS>BOND
     1     5     4    1
     2     4     2    1
     3     3     2    2
     4     2     1    1
     5     6     1    1
     6     6     7    1
     7     7     9    2
     8     7     8    1
     9     9    11    1
    10     8    10    2
    11    11    12    2
    12    10    12    1
