@<TRIPOS>MOLECULE
/home/cewinharhar/GITHUB/reincatalyze/data/processed/docking_pred/2023-Apr-25-1829_maxeplen10_maxtrainstep200_exh32_gamma099_lrac3e-4_lrcr1e-3/c2b16f598521213e119e3a09a49f7e8c9c89cc3b_ligand_2.pdbqt
 12 12 0 0 0
SMALL
GASTEIGER

@<TRIPOS>ATOM
      1  C          8.2100   -0.8640   -1.9680 C.3     1  UNL1        0.1270
      2  C          8.3650   -2.0020   -2.8900 C.2     1  UNL1        0.3030
      3  O          9.5110   -2.4710   -3.0850 O.2     1  UNL1       -0.2520
      4  O          7.2780   -2.5590   -3.5360 O.3     1  UNL1       -0.4810
      5  H          7.0790   -3.5760   -3.5500 H       1  UNL1        0.2960
      6  C          7.3840   -1.3540   -0.7840 C.3     1  UNL1        0.0470
      7  C          6.5630   -0.2810   -0.1970 C.2     1  UNL1       -0.0470
      8  C          6.1340   -0.4310    1.1170 C.2     1  UNL1        0.0040
      9  C          6.1800    0.8620   -0.8500 C.2     1  UNL1        0.0040
     10  C          5.3500    0.5590    1.7050 C.2     1  UNL1        0.0000
     11  C          5.4050    1.8610   -0.2940 C.2     1  UNL1        0.0000
     12  C          4.9930    1.6830    1.0120 C.2     1  UNL1        0.0000
@<TRIPOS>BOND
     1     5     4    1
     2     4     2    1
     3     3     2    2
     4     2     1    1
     5     1     6    1
     6     9    11    1
     7     9     7    2
     8     6     7    1
     9    11    12    2
    10     7     8    1
    11    12    10    1
    12     8    10    2
