@<TRIPOS>MOLECULE
/home/cewinharhar/GITHUB/reincatalyze/data/processed/docking_pred/2023-Apr-25-1829_maxeplen10_maxtrainstep200_exh32_gamma099_lrac3e-4_lrcr1e-3/c2b16f598521213e119e3a09a49f7e8c9c89cc3b_ligand_2.pdbqt
 12 12 0 0 0
SMALL
GASTEIGER

@<TRIPOS>ATOM
      1  C          8.4590   -0.5900   -2.2370 C.3     1  UNL1        0.1270
      2  C          8.4760   -1.8920   -2.9260 C.2     1  UNL1        0.3030
      3  O          9.5680   -2.4920   -3.0580 O.2     1  UNL1       -0.2520
      4  O          7.3180   -2.4580   -3.4240 O.3     1  UNL1       -0.4810
      5  H          6.5710   -1.9140   -3.8950 H       1  UNL1        0.2960
      6  C          7.0080   -0.1240   -2.1930 C.3     1  UNL1        0.0470
      7  C          6.4990   -0.0200   -0.8140 C.2     1  UNL1       -0.0470
      8  C          5.8850    1.1660   -0.4330 C.2     1  UNL1        0.0040
      9  C          6.5890   -1.0070    0.1320 C.2     1  UNL1        0.0040
     10  C          5.3960    1.3060    0.8650 C.2     1  UNL1        0.0000
     11  C          6.1140   -0.9000    1.4250 C.2     1  UNL1        0.0000
     12  C          5.5100    0.2910    1.7760 C.2     1  UNL1        0.0000
@<TRIPOS>BOND
     1     5     4    1
     2     4     2    1
     3     3     2    2
     4     2     1    1
     5     1     6    1
     6     6     7    1
     7     7     8    2
     8     7     9    1
     9     8    10    1
    10     9    11    2
    11    10    12    2
    12    11    12    1
