@<TRIPOS>MOLECULE
/home/cewinharhar/GITHUB/reincatalyze/data/processed/docking_pred/2023-Apr-25-1829_maxeplen10_maxtrainstep200_exh32_gamma099_lrac3e-4_lrcr1e-3/c2bbe2b0b698b4c34a14c6b9d782c5d04fb4e97c_ligand_2.pdbqt
 12 12 0 0 0
SMALL
GASTEIGER

@<TRIPOS>ATOM
      1  C          8.3270    0.3250   -2.0650 C.3     1  UNL1        0.1270
      2  C          9.4700    0.4030   -1.1380 C.2     1  UNL1        0.3030
      3  O          9.5070   -0.3770   -0.1570 O.2     1  UNL1       -0.2520
      4  O         10.4930    1.3110   -1.3310 O.3     1  UNL1       -0.4810
      5  H         11.1420    1.2810   -2.1390 H       1  UNL1        0.2960
      6  C          7.2660   -0.5420   -1.3970 C.3     1  UNL1        0.0470
      7  C          6.4170    0.2300   -0.4730 C.2     1  UNL1       -0.0470
      8  C          6.1820   -0.2950    0.7920 C.2     1  UNL1        0.0040
      9  C          5.8310    1.4340   -0.7660 C.2     1  UNL1        0.0040
     10  C          5.3790    0.4030    1.6920 C.2     1  UNL1        0.0000
     11  C          5.0320    2.1490    0.1030 C.2     1  UNL1        0.0000
     12  C          4.8150    1.6020    1.3530 C.2     1  UNL1        0.0000
@<TRIPOS>BOND
     1     5     4    1
     2     1     6    1
     3     1     2    1
     4     6     7    1
     5     4     2    1
     6     2     3    2
     7     9     7    2
     8     9    11    1
     9     7     8    1
    10    11    12    2
    11     8    10    2
    12    12    10    1
