@<TRIPOS>MOLECULE
/home/cewinharhar/GITHUB/reincatalyze/data/processed/docking_pred/2023-Apr-25-1829_maxeplen10_maxtrainstep200_exh32_gamma099_lrac3e-4_lrcr1e-3/c2bbe2b0b698b4c34a14c6b9d782c5d04fb4e97c_ligand_2.pdbqt
 12 12 0 0 0
SMALL
GASTEIGER

@<TRIPOS>ATOM
      1  C          8.4610   -0.7120   -2.0560 C.3     1  UNL1        0.1270
      2  C          8.4570   -1.9290   -2.8870 C.2     1  UNL1        0.3030
      3  O          9.5430   -2.5170   -3.1030 O.2     1  UNL1       -0.2520
      4  O          7.2870   -2.4290   -3.4250 O.3     1  UNL1       -0.4810
      5  H          7.0230   -3.4310   -3.3910 H       1  UNL1        0.2960
      6  C          7.0580   -0.1190   -2.1220 C.3     1  UNL1        0.0470
      7  C          6.4780    0.0870   -0.7840 C.2     1  UNL1       -0.0470
      8  C          6.5920   -0.9400    0.1450 C.2     1  UNL1        0.0040
      9  C          5.8230    1.2220   -0.3780 C.2     1  UNL1        0.0040
     10  C          6.0510   -0.7850    1.4190 C.2     1  UNL1        0.0000
     11  C          5.2760    1.4060    0.8760 C.2     1  UNL1        0.0000
     12  C          5.4050    0.3670    1.7770 C.2     1  UNL1        0.0000
@<TRIPOS>BOND
     1     4     5    1
     2     4     2    1
     3     3     2    2
     4     2     1    1
     5     6     1    1
     6     6     7    1
     7     7     9    2
     8     7     8    1
     9     9    11    1
    10     8    10    2
    11    11    12    2
    12    10    12    1
