@<TRIPOS>MOLECULE
/home/cewinharhar/GITHUB/reincatalyze/data/processed/docking_pred/2023-Apr-25-1829_maxeplen10_maxtrainstep200_exh32_gamma099_lrac3e-4_lrcr1e-3/c2bbe2b0b698b4c34a14c6b9d782c5d04fb4e97c_ligand_2.pdbqt
 12 12 0 0 0
SMALL
GASTEIGER

@<TRIPOS>ATOM
      1  C          8.4390   -0.6490   -2.1180 C.3     1  UNL1        0.1270
      2  C          8.4060   -1.9130   -2.8730 C.2     1  UNL1        0.3030
      3  O          7.2950   -2.3920   -3.2030 O.2     1  UNL1       -0.2520
      4  O          9.5680   -2.5740   -3.2230 O.3     1  UNL1       -0.4810
      5  H          9.5900   -3.4080   -3.8380 H       1  UNL1        0.2960
      6  C          7.0190   -0.0930   -2.1110 C.3     1  UNL1        0.0470
      7  C          6.4740    0.0220   -0.7470 C.2     1  UNL1       -0.0470
      8  C          5.8290    1.2020   -0.3990 C.2     1  UNL1        0.0040
      9  C          6.5580   -0.9490    0.2170 C.2     1  UNL1        0.0040
     10  C          5.3050    1.3520    0.8840 C.2     1  UNL1        0.0000
     11  C          6.0500   -0.8320    1.4950 C.2     1  UNL1        0.0000
     12  C          5.4150    0.3530    1.8130 C.2     1  UNL1        0.0000
@<TRIPOS>BOND
     1     5     4    1
     2     4     2    1
     3     3     2    2
     4     2     1    1
     5     1     6    1
     6     6     7    1
     7     7     8    2
     8     7     9    1
     9     8    10    1
    10     9    11    2
    11    10    12    2
    12    11    12    1
