@<TRIPOS>MOLECULE
/home/cewinharhar/GITHUB/reincatalyze/data/processed/docking_pred/2023-Apr-25-1829_maxeplen10_maxtrainstep200_exh32_gamma099_lrac3e-4_lrcr1e-3/c2bbe2b0b698b4c34a14c6b9d782c5d04fb4e97c_ligand_2.pdbqt
 12 12 0 0 0
SMALL
GASTEIGER

@<TRIPOS>ATOM
      1  C          8.0670   -2.2440    0.8200 C.3     1  UNL1        0.1270
      2  C          8.8040   -3.4170    0.3180 C.2     1  UNL1        0.3030
      3  O          9.6800   -3.9390    1.0470 O.2     1  UNL1       -0.2520
      4  O          8.5460   -3.9480   -0.9310 O.3     1  UNL1       -0.4810
      5  H          7.9180   -4.7570   -1.0920 H       1  UNL1        0.2960
      6  C          7.4800   -1.5300   -0.3920 C.3     1  UNL1        0.0470
      7  C          6.6300   -0.3890   -0.0090 C.2     1  UNL1       -0.0470
      8  C          6.1040   -0.3700    1.2770 C.2     1  UNL1        0.0040
      9  C          6.3100    0.6620   -0.8290 C.2     1  UNL1        0.0040
     10  C          5.2900    0.6890    1.6750 C.2     1  UNL1        0.0000
     11  C          5.5080    1.7250   -0.4640 C.2     1  UNL1        0.0000
     12  C          4.9980    1.7160    0.8200 C.2     1  UNL1        0.0000
@<TRIPOS>BOND
     1     5     4    1
     2     4     2    1
     3     9    11    1
     4     9     7    2
     5    11    12    2
     6     6     7    1
     7     6     1    1
     8     7     8    1
     9     2     1    1
    10     2     3    2
    11    12    10    1
    12     8    10    2
