@<TRIPOS>MOLECULE
/home/cewinharhar/GITHUB/reincatalyze/data/processed/docking_pred/2023-Apr-25-1829_maxeplen10_maxtrainstep200_exh32_gamma099_lrac3e-4_lrcr1e-3/c2bbe2b0b698b4c34a14c6b9d782c5d04fb4e97c_ligand_2.pdbqt
 12 12 0 0 0
SMALL
GASTEIGER

@<TRIPOS>ATOM
      1  C          4.9850    1.7840    0.7390 C.3     1  UNL1        0.1270
      2  C          4.4500    1.1100    1.9350 C.2     1  UNL1        0.3030
      3  O          5.1260    0.2000    2.4700 O.2     1  UNL1       -0.2520
      4  O          3.2270    1.4620    2.4730 O.3     1  UNL1       -0.4810
      5  H          2.4110    0.8240    2.5080 H       1  UNL1        0.2960
      6  C          6.5050    1.7150    0.8290 C.3     1  UNL1        0.0470
      7  C          7.0940    0.9500   -0.2840 C.2     1  UNL1       -0.0470
      8  C          8.3980    1.2430   -0.6620 C.2     1  UNL1        0.0040
      9  C          6.4490   -0.0350   -0.9870 C.2     1  UNL1        0.0040
     10  C          8.9870    0.5450   -1.7140 C.2     1  UNL1        0.0000
     11  C          7.0050   -0.7450   -2.0320 C.2     1  UNL1        0.0000
     12  C          8.3030   -0.4300   -2.3860 C.2     1  UNL1        0.0000
@<TRIPOS>BOND
     1    12    11    2
     2    12    10    1
     3    11     9    1
     4    10     8    2
     5     9     7    2
     6     8     7    1
     7     7     6    1
     8     1     6    1
     9     1     2    1
    10     2     3    2
    11     2     4    1
    12     4     5    1
