MODEL 1
REMARK VINA RESULT:      -7.3      0.000      0.000
REMARK SMILES O=C(O)CCc1ccccc1
REMARK SMILES IDX 4 1 2 2 1 3 3 4 5 6 6 7 7 8 11 9 8 10 10 11 9 12
REMARK H PARENT 3 5
REMARK Flexibility Score: inf
ROOT
ATOM      1  C   UNL     1       8.461  -0.712  -2.056  1.00  0.00     0.127 C 
ENDROOT
BRANCH   1   2
ATOM      2  C   UNL     1       8.457  -1.929  -2.887  1.00  0.00     0.303 C 
ATOM      3  O   UNL     1       9.543  -2.517  -3.103  1.00  0.00    -0.252 OA
BRANCH   2   4
ATOM      4  O   UNL     1       7.287  -2.429  -3.425  1.00  0.00    -0.481 OA
ATOM      5  H   UNL     1       7.023  -3.431  -3.391  1.00  0.00     0.296 HD
ENDBRANCH   2   4
ENDBRANCH   1   2
BRANCH   1   6
ATOM      6  C   UNL     1       7.058  -0.119  -2.122  1.00  0.00     0.047 C 
BRANCH   6   7
ATOM      7  C   UNL     1       6.478   0.087  -0.784  1.00  0.00    -0.047 A 
ATOM      8  C   UNL     1       6.592  -0.940   0.145  1.00  0.00     0.004 A 
ATOM      9  C   UNL     1       5.823   1.222  -0.378  1.00  0.00     0.004 A 
ATOM     10  C   UNL     1       6.051  -0.785   1.419  1.00  0.00     0.000 A 
ATOM     11  C   UNL     1       5.276   1.406   0.876  1.00  0.00     0.000 A 
ATOM     12  C   UNL     1       5.405   0.367   1.777  1.00  0.00     0.000 A 
ENDBRANCH   6   7
ENDBRANCH   1   6
TORSDOF 4
ENDMDL
MODEL 2
REMARK VINA RESULT:      -7.3      0.100      1.728
REMARK SMILES O=C(O)CCc1ccccc1
REMARK SMILES IDX 4 1 2 2 1 3 3 4 5 6 6 7 7 8 11 9 8 10 10 11 9 12
REMARK H PARENT 3 5
REMARK Flexibility Score: inf
ROOT
ATOM      1  C   UNL     1       8.439  -0.649  -2.118  1.00  0.00     0.127 C 
ENDROOT
BRANCH   1   2
ATOM      2  C   UNL     1       8.406  -1.913  -2.873  1.00  0.00     0.303 C 
ATOM      3  O   UNL     1       7.295  -2.392  -3.203  1.00  0.00    -0.252 OA
BRANCH   2   4
ATOM      4  O   UNL     1       9.568  -2.574  -3.223  1.00  0.00    -0.481 OA
ATOM      5  H   UNL     1       9.590  -3.408  -3.838  1.00  0.00     0.296 HD
ENDBRANCH   2   4
ENDBRANCH   1   2
BRANCH   1   6
ATOM      6  C   UNL     1       7.019  -0.093  -2.111  1.00  0.00     0.047 C 
BRANCH   6   7
ATOM      7  C   UNL     1       6.474   0.022  -0.747  1.00  0.00    -0.047 A 
ATOM      8  C   UNL     1       5.829   1.202  -0.399  1.00  0.00     0.004 A 
ATOM      9  C   UNL     1       6.558  -0.949   0.217  1.00  0.00     0.004 A 
ATOM     10  C   UNL     1       5.305   1.352   0.884  1.00  0.00     0.000 A 
ATOM     11  C   UNL     1       6.050  -0.832   1.495  1.00  0.00     0.000 A 
ATOM     12  C   UNL     1       5.415   0.353   1.813  1.00  0.00     0.000 A 
ENDBRANCH   6   7
ENDBRANCH   1   6
TORSDOF 4
ENDMDL
MODEL 3
REMARK VINA RESULT:      -6.8      3.373      5.103
REMARK SMILES O=C(O)CCc1ccccc1
REMARK SMILES IDX 4 1 2 2 1 3 3 4 5 6 6 7 7 8 11 9 8 10 10 11 9 12
REMARK H PARENT 3 5
REMARK Flexibility Score: inf
ROOT
ATOM      1  C   UNL     1       4.985   1.784   0.739  1.00  0.00     0.127 C 
ENDROOT
BRANCH   1   2
ATOM      2  C   UNL     1       4.450   1.110   1.935  1.00  0.00     0.303 C 
ATOM      3  O   UNL     1       5.126   0.200   2.470  1.00  0.00    -0.252 OA
BRANCH   2   4
ATOM      4  O   UNL     1       3.227   1.462   2.473  1.00  0.00    -0.481 OA
ATOM      5  H   UNL     1       2.411   0.824   2.508  1.00  0.00     0.296 HD
ENDBRANCH   2   4
ENDBRANCH   1   2
BRANCH   1   6
ATOM      6  C   UNL     1       6.505   1.715   0.829  1.00  0.00     0.047 C 
BRANCH   6   7
ATOM      7  C   UNL     1       7.094   0.950  -0.284  1.00  0.00    -0.047 A 
ATOM      8  C   UNL     1       8.398   1.243  -0.662  1.00  0.00     0.004 A 
ATOM      9  C   UNL     1       6.449  -0.035  -0.987  1.00  0.00     0.004 A 
ATOM     10  C   UNL     1       8.987   0.545  -1.714  1.00  0.00     0.000 A 
ATOM     11  C   UNL     1       7.005  -0.745  -2.032  1.00  0.00     0.000 A 
ATOM     12  C   UNL     1       8.303  -0.430  -2.386  1.00  0.00     0.000 A 
ENDBRANCH   6   7
ENDBRANCH   1   6
TORSDOF 4
ENDMDL
MODEL 4
REMARK VINA RESULT:      -6.6      1.976      2.331
REMARK SMILES O=C(O)CCc1ccccc1
REMARK SMILES IDX 4 1 2 2 1 3 3 4 5 6 6 7 7 8 11 9 8 10 10 11 9 12
REMARK H PARENT 3 5
REMARK Flexibility Score: inf
ROOT
ATOM      1  C   UNL     1       8.327   0.325  -2.065  1.00  0.00     0.127 C 
ENDROOT
BRANCH   1   2
ATOM      2  C   UNL     1       9.470   0.403  -1.138  1.00  0.00     0.303 C 
ATOM      3  O   UNL     1       9.507  -0.377  -0.157  1.00  0.00    -0.252 OA
BRANCH   2   4
ATOM      4  O   UNL     1      10.493   1.311  -1.331  1.00  0.00    -0.481 OA
ATOM      5  H   UNL     1      11.142   1.281  -2.139  1.00  0.00     0.296 HD
ENDBRANCH   2   4
ENDBRANCH   1   2
BRANCH   1   6
ATOM      6  C   UNL     1       7.266  -0.542  -1.397  1.00  0.00     0.047 C 
BRANCH   6   7
ATOM      7  C   UNL     1       6.417   0.230  -0.473  1.00  0.00    -0.047 A 
ATOM      8  C   UNL     1       6.182  -0.295   0.792  1.00  0.00     0.004 A 
ATOM      9  C   UNL     1       5.831   1.434  -0.766  1.00  0.00     0.004 A 
ATOM     10  C   UNL     1       5.379   0.403   1.692  1.00  0.00     0.000 A 
ATOM     11  C   UNL     1       5.032   2.149   0.103  1.00  0.00     0.000 A 
ATOM     12  C   UNL     1       4.815   1.602   1.353  1.00  0.00     0.000 A 
ENDBRANCH   6   7
ENDBRANCH   1   6
TORSDOF 4
ENDMDL
MODEL 5
REMARK VINA RESULT:      -6.6      2.031      2.505
REMARK SMILES O=C(O)CCc1ccccc1
REMARK SMILES IDX 4 1 2 2 1 3 3 4 5 6 6 7 7 8 11 9 8 10 10 11 9 12
REMARK H PARENT 3 5
REMARK Flexibility Score: inf
ROOT
ATOM      1  C   UNL     1       8.067  -2.244   0.820  1.00  0.00     0.127 C 
ENDROOT
BRANCH   1   2
ATOM      2  C   UNL     1       8.804  -3.417   0.318  1.00  0.00     0.303 C 
ATOM      3  O   UNL     1       9.680  -3.939   1.047  1.00  0.00    -0.252 OA
BRANCH   2   4
ATOM      4  O   UNL     1       8.546  -3.948  -0.931  1.00  0.00    -0.481 OA
ATOM      5  H   UNL     1       7.918  -4.757  -1.092  1.00  0.00     0.296 HD
ENDBRANCH   2   4
ENDBRANCH   1   2
BRANCH   1   6
ATOM      6  C   UNL     1       7.480  -1.530  -0.392  1.00  0.00     0.047 C 
BRANCH   6   7
ATOM      7  C   UNL     1       6.630  -0.389  -0.009  1.00  0.00    -0.047 A 
ATOM      8  C   UNL     1       6.104  -0.370   1.277  1.00  0.00     0.004 A 
ATOM      9  C   UNL     1       6.310   0.662  -0.829  1.00  0.00     0.004 A 
ATOM     10  C   UNL     1       5.290   0.689   1.675  1.00  0.00     0.000 A 
ATOM     11  C   UNL     1       5.508   1.725  -0.464  1.00  0.00     0.000 A 
ATOM     12  C   UNL     1       4.998   1.716   0.820  1.00  0.00     0.000 A 
ENDBRANCH   6   7
ENDBRANCH   1   6
TORSDOF 4
ENDMDL
