@<TRIPOS>MOLECULE
/home/cewinharhar/GITHUB/reincatalyze/data/processed/docking_pred/2023-Apr-25-1829_maxeplen10_maxtrainstep200_exh32_gamma099_lrac3e-4_lrcr1e-3/c584487daa348165e33ca71579c90fd99cb4babd_ligand_2.pdbqt
 12 12 0 0 0
SMALL
GASTEIGER

@<TRIPOS>ATOM
      1  C          8.4520   -0.5830   -2.2220 C.3     1  UNL1        0.1270
      2  C          8.4770   -1.8880   -2.9070 C.2     1  UNL1        0.3030
      3  O          9.5740   -2.4760   -3.0480 O.2     1  UNL1       -0.2520
      4  O          7.3200   -2.4690   -3.3910 O.3     1  UNL1       -0.4810
      5  H          6.7560   -3.1540   -2.8550 H       1  UNL1        0.2960
      6  C          7.0030   -0.1100   -2.2120 C.3     1  UNL1        0.0470
      7  C          6.4840    0.0620   -0.8440 C.2     1  UNL1       -0.0470
      8  C          6.5960   -1.0060    0.0380 C.2     1  UNL1        0.0040
      9  C          5.8870    1.2010   -0.3680 C.2     1  UNL1        0.0040
     10  C          6.1110   -0.8840    1.3380 C.2     1  UNL1        0.0000
     11  C          5.3970    1.3530    0.9140 C.2     1  UNL1        0.0000
     12  C          5.5230    0.2740    1.7670 C.2     1  UNL1        0.0000
@<TRIPOS>BOND
     1     4     2    1
     2     4     5    1
     3     3     2    2
     4     2     1    1
     5     1     6    1
     6     6     7    1
     7     7     9    2
     8     7     8    1
     9     9    11    1
    10     8    10    2
    11    11    12    2
    12    10    12    1
