MODEL 1
REMARK VINA RESULT:      -7.3      0.000      0.000
REMARK SMILES O=C(O)CCc1ccccc1
REMARK SMILES IDX 4 1 2 2 1 3 3 4 5 6 6 7 7 8 11 9 8 10 10 11 9 12
REMARK H PARENT 3 5
REMARK Flexibility Score: inf
ROOT
ATOM      1  C   UNL     1       8.471  -0.619  -2.172  1.00  0.00     0.127 C 
ENDROOT
BRANCH   1   2
ATOM      2  C   UNL     1       8.475  -1.893  -2.913  1.00  0.00     0.303 C 
ATOM      3  O   UNL     1       9.561  -2.501  -3.066  1.00  0.00    -0.252 OA
BRANCH   2   4
ATOM      4  O   UNL     1       7.312  -2.425  -3.435  1.00  0.00    -0.481 OA
ATOM      5  H   UNL     1       7.155  -2.573  -4.450  1.00  0.00     0.296 HD
ENDBRANCH   2   4
ENDBRANCH   1   2
BRANCH   1   6
ATOM      6  C   UNL     1       7.034  -0.110  -2.163  1.00  0.00     0.047 C 
BRANCH   6   7
ATOM      7  C   UNL     1       6.499   0.017  -0.796  1.00  0.00    -0.047 A 
ATOM      8  C   UNL     1       5.859   1.202  -0.453  1.00  0.00     0.004 A 
ATOM      9  C   UNL     1       6.587  -0.947   0.175  1.00  0.00     0.004 A 
ATOM     10  C   UNL     1       5.344   1.363   0.832  1.00  0.00     0.000 A 
ATOM     11  C   UNL     1       6.088  -0.818   1.456  1.00  0.00     0.000 A 
ATOM     12  C   UNL     1       5.458   0.371   1.768  1.00  0.00     0.000 A 
ENDBRANCH   6   7
ENDBRANCH   1   6
TORSDOF 4
ENDMDL
MODEL 2
REMARK VINA RESULT:      -7.3      0.090      1.429
REMARK SMILES O=C(O)CCc1ccccc1
REMARK SMILES IDX 4 1 2 2 1 3 3 4 5 6 6 7 7 8 11 9 8 10 10 11 9 12
REMARK H PARENT 3 5
REMARK Flexibility Score: inf
ROOT
ATOM      1  C   UNL     1       8.452  -0.583  -2.222  1.00  0.00     0.127 C 
ENDROOT
BRANCH   1   2
ATOM      2  C   UNL     1       8.477  -1.888  -2.907  1.00  0.00     0.303 C 
ATOM      3  O   UNL     1       9.574  -2.476  -3.048  1.00  0.00    -0.252 OA
BRANCH   2   4
ATOM      4  O   UNL     1       7.320  -2.469  -3.391  1.00  0.00    -0.481 OA
ATOM      5  H   UNL     1       6.756  -3.154  -2.855  1.00  0.00     0.296 HD
ENDBRANCH   2   4
ENDBRANCH   1   2
BRANCH   1   6
ATOM      6  C   UNL     1       7.003  -0.110  -2.212  1.00  0.00     0.047 C 
BRANCH   6   7
ATOM      7  C   UNL     1       6.484   0.062  -0.844  1.00  0.00    -0.047 A 
ATOM      8  C   UNL     1       6.596  -1.006   0.038  1.00  0.00     0.004 A 
ATOM      9  C   UNL     1       5.887   1.201  -0.368  1.00  0.00     0.004 A 
ATOM     10  C   UNL     1       6.111  -0.884   1.338  1.00  0.00     0.000 A 
ATOM     11  C   UNL     1       5.397   1.353   0.914  1.00  0.00     0.000 A 
ATOM     12  C   UNL     1       5.523   0.274   1.767  1.00  0.00     0.000 A 
ENDBRANCH   6   7
ENDBRANCH   1   6
TORSDOF 4
ENDMDL
MODEL 3
REMARK VINA RESULT:      -7.2      0.645      1.135
REMARK SMILES O=C(O)CCc1ccccc1
REMARK SMILES IDX 4 1 2 2 1 3 3 4 5 6 6 7 7 8 11 9 8 10 10 11 9 12
REMARK H PARENT 3 5
REMARK Flexibility Score: inf
ROOT
ATOM      1  C   UNL     1       8.347  -0.907  -1.837  1.00  0.00     0.127 C 
ENDROOT
BRANCH   1   2
ATOM      2  C   UNL     1       8.409  -1.976  -2.849  1.00  0.00     0.303 C 
ATOM      3  O   UNL     1       9.514  -2.516  -3.093  1.00  0.00    -0.252 OA
BRANCH   2   4
ATOM      4  O   UNL     1       7.279  -2.391  -3.528  1.00  0.00    -0.481 OA
ATOM      5  H   UNL     1       6.411  -2.707  -3.057  1.00  0.00     0.296 HD
ENDBRANCH   2   4
ENDBRANCH   1   2
BRANCH   1   6
ATOM      6  C   UNL     1       7.498  -1.431  -0.684  1.00  0.00     0.047 C 
BRANCH   6   7
ATOM      7  C   UNL     1       6.633  -0.384  -0.111  1.00  0.00    -0.047 A 
ATOM      8  C   UNL     1       6.290   0.694  -0.918  1.00  0.00     0.004 A 
ATOM      9  C   UNL     1       6.140  -0.386   1.168  1.00  0.00     0.004 A 
ATOM     10  C   UNL     1       5.479   1.707  -0.410  1.00  0.00     0.000 A 
ATOM     11  C   UNL     1       5.335   0.601   1.700  1.00  0.00     0.000 A 
ATOM     12  C   UNL     1       5.011   1.661   0.875  1.00  0.00     0.000 A 
ENDBRANCH   6   7
ENDBRANCH   1   6
TORSDOF 4
ENDMDL
MODEL 4
REMARK VINA RESULT:      -7.0      0.993      1.914
REMARK SMILES O=C(O)CCc1ccccc1
REMARK SMILES IDX 4 1 2 2 1 3 3 4 5 6 6 7 7 8 11 9 8 10 10 11 9 12
REMARK H PARENT 3 5
REMARK Flexibility Score: inf
ROOT
ATOM      1  C   UNL     1       7.332  -1.404  -2.202  1.00  0.00     0.127 C 
ENDROOT
BRANCH   1   2
ATOM      2  C   UNL     1       8.760  -1.422  -2.561  1.00  0.00     0.303 C 
ATOM      3  O   UNL     1       9.490  -0.473  -2.189  1.00  0.00    -0.252 OA
BRANCH   2   4
ATOM      4  O   UNL     1       9.306  -2.459  -3.294  1.00  0.00    -0.481 OA
ATOM      5  H   UNL     1       8.739  -3.196  -3.752  1.00  0.00     0.296 HD
ENDBRANCH   2   4
ENDBRANCH   1   2
BRANCH   1   6
ATOM      6  C   UNL     1       7.252  -1.440  -0.680  1.00  0.00     0.047 C 
BRANCH   6   7
ATOM      7  C   UNL     1       6.475  -0.312  -0.137  1.00  0.00    -0.047 A 
ATOM      8  C   UNL     1       6.021  -0.401   1.173  1.00  0.00     0.004 A 
ATOM      9  C   UNL     1       6.158   0.828  -0.829  1.00  0.00     0.004 A 
ATOM     10  C   UNL     1       5.277   0.643   1.720  1.00  0.00     0.000 A 
ATOM     11  C   UNL     1       5.424   1.879  -0.316  1.00  0.00     0.000 A 
ATOM     12  C   UNL     1       4.985   1.761   0.989  1.00  0.00     0.000 A 
ENDBRANCH   6   7
ENDBRANCH   1   6
TORSDOF 4
ENDMDL
MODEL 5
REMARK VINA RESULT:      -6.8      3.379      5.063
REMARK SMILES O=C(O)CCc1ccccc1
REMARK SMILES IDX 4 1 2 2 1 3 3 4 5 6 6 7 7 8 11 9 8 10 10 11 9 12
REMARK H PARENT 3 5
REMARK Flexibility Score: inf
ROOT
ATOM      1  C   UNL     1       4.982   1.772   0.713  1.00  0.00     0.127 C 
ENDROOT
BRANCH   1   2
ATOM      2  C   UNL     1       4.469   1.114   1.928  1.00  0.00     0.303 C 
ATOM      3  O   UNL     1       5.166   0.229   2.477  1.00  0.00    -0.252 OA
BRANCH   2   4
ATOM      4  O   UNL     1       3.244   1.455   2.468  1.00  0.00    -0.481 OA
ATOM      5  H   UNL     1       2.901   2.431   2.540  1.00  0.00     0.296 HD
ENDBRANCH   2   4
ENDBRANCH   1   2
BRANCH   1   6
ATOM      6  C   UNL     1       6.504   1.741   0.795  1.00  0.00     0.047 C 
BRANCH   6   7
ATOM      7  C   UNL     1       7.105   0.973  -0.310  1.00  0.00    -0.047 A 
ATOM      8  C   UNL     1       8.427   1.237  -0.646  1.00  0.00     0.004 A 
ATOM      9  C   UNL     1       6.456   0.014  -1.043  1.00  0.00     0.004 A 
ATOM     10  C   UNL     1       9.028   0.536  -1.690  1.00  0.00     0.000 A 
ATOM     11  C   UNL     1       7.023  -0.697  -2.081  1.00  0.00     0.000 A 
ATOM     12  C   UNL     1       8.338  -0.412  -2.393  1.00  0.00     0.000 A 
ENDBRANCH   6   7
ENDBRANCH   1   6
TORSDOF 4
ENDMDL
