@<TRIPOS>MOLECULE
/home/cewinharhar/GITHUB/reincatalyze/data/processed/docking_pred/2023-Apr-25-1829_maxeplen10_maxtrainstep200_exh32_gamma099_lrac3e-4_lrcr1e-3/c584487daa348165e33ca71579c90fd99cb4babd_ligand_2.pdbqt
 12 12 0 0 0
SMALL
GASTEIGER

@<TRIPOS>ATOM
      1  C          8.4710   -0.6190   -2.1720 C.3     1  UNL1        0.1270
      2  C          8.4750   -1.8930   -2.9130 C.2     1  UNL1        0.3030
      3  O          9.5610   -2.5010   -3.0660 O.2     1  UNL1       -0.2520
      4  O          7.3120   -2.4250   -3.4350 O.3     1  UNL1       -0.4810
      5  H          7.1550   -2.5730   -4.4500 H       1  UNL1        0.2960
      6  C          7.0340   -0.1100   -2.1630 C.3     1  UNL1        0.0470
      7  C          6.4990    0.0170   -0.7960 C.2     1  UNL1       -0.0470
      8  C          5.8590    1.2020   -0.4530 C.2     1  UNL1        0.0040
      9  C          6.5870   -0.9470    0.1750 C.2     1  UNL1        0.0040
     10  C          5.3440    1.3630    0.8320 C.2     1  UNL1        0.0000
     11  C          6.0880   -0.8180    1.4560 C.2     1  UNL1        0.0000
     12  C          5.4580    0.3710    1.7680 C.2     1  UNL1        0.0000
@<TRIPOS>BOND
     1     5     4    1
     2     4     2    1
     3     3     2    2
     4     2     1    1
     5     1     6    1
     6     6     7    1
     7     7     8    2
     8     7     9    1
     9     8    10    1
    10     9    11    2
    11    10    12    2
    12    11    12    1
