@<TRIPOS>MOLECULE
/home/cewinharhar/GITHUB/reincatalyze/data/processed/docking_pred/2023-Apr-25-1829_maxeplen10_maxtrainstep200_exh32_gamma099_lrac3e-4_lrcr1e-3/c584487daa348165e33ca71579c90fd99cb4babd_ligand_2.pdbqt
 12 12 0 0 0
SMALL
GASTEIGER

@<TRIPOS>ATOM
      1  C          7.3320   -1.4040   -2.2020 C.3     1  UNL1        0.1270
      2  C          8.7600   -1.4220   -2.5610 C.2     1  UNL1        0.3030
      3  O          9.4900   -0.4730   -2.1890 O.2     1  UNL1       -0.2520
      4  O          9.3060   -2.4590   -3.2940 O.3     1  UNL1       -0.4810
      5  H          8.7390   -3.1960   -3.7520 H       1  UNL1        0.2960
      6  C          7.2520   -1.4400   -0.6800 C.3     1  UNL1        0.0470
      7  C          6.4750   -0.3120   -0.1370 C.2     1  UNL1       -0.0470
      8  C          6.0210   -0.4010    1.1730 C.2     1  UNL1        0.0040
      9  C          6.1580    0.8280   -0.8290 C.2     1  UNL1        0.0040
     10  C          5.2770    0.6430    1.7200 C.2     1  UNL1        0.0000
     11  C          5.4240    1.8790   -0.3160 C.2     1  UNL1        0.0000
     12  C          4.9850    1.7610    0.9890 C.2     1  UNL1        0.0000
@<TRIPOS>BOND
     1     5     4    1
     2     4     2    1
     3     2     1    1
     4     2     3    2
     5     1     6    1
     6     9    11    1
     7     9     7    2
     8     6     7    1
     9    11    12    2
    10     7     8    1
    11    12    10    1
    12     8    10    2
