@<TRIPOS>MOLECULE
/home/cewinharhar/GITHUB/reincatalyze/data/processed/docking_pred/2023-Apr-25-1829_maxeplen10_maxtrainstep200_exh32_gamma099_lrac3e-4_lrcr1e-3/c584487daa348165e33ca71579c90fd99cb4babd_ligand_2.pdbqt
 12 12 0 0 0
SMALL
GASTEIGER

@<TRIPOS>ATOM
      1  C          4.9820    1.7720    0.7130 C.3     1  UNL1        0.1270
      2  C          4.4690    1.1140    1.9280 C.2     1  UNL1        0.3030
      3  O          5.1660    0.2290    2.4770 O.2     1  UNL1       -0.2520
      4  O          3.2440    1.4550    2.4680 O.3     1  UNL1       -0.4810
      5  H          2.9010    2.4310    2.5400 H       1  UNL1        0.2960
      6  C          6.5040    1.7410    0.7950 C.3     1  UNL1        0.0470
      7  C          7.1050    0.9730   -0.3100 C.2     1  UNL1       -0.0470
      8  C          8.4270    1.2370   -0.6460 C.2     1  UNL1        0.0040
      9  C          6.4560    0.0140   -1.0430 C.2     1  UNL1        0.0040
     10  C          9.0280    0.5360   -1.6900 C.2     1  UNL1        0.0000
     11  C          7.0230   -0.6970   -2.0810 C.2     1  UNL1        0.0000
     12  C          8.3380   -0.4120   -2.3930 C.2     1  UNL1        0.0000
@<TRIPOS>BOND
     1    12    11    2
     2    12    10    1
     3    11     9    1
     4    10     8    2
     5     9     7    2
     6     8     7    1
     7     7     6    1
     8     1     6    1
     9     1     2    1
    10     2     4    1
    11     2     3    2
    12     4     5    1
