@<TRIPOS>MOLECULE
/home/cewinharhar/GITHUB/reincatalyze/data/processed/docking_pred/2023-Apr-25-1829_maxeplen10_maxtrainstep200_exh32_gamma099_lrac3e-4_lrcr1e-3/c8a10dea28a77dd5a54e6b3bff917c6d12aef46d_ligand_2.pdbqt
 12 12 0 0 0
SMALL
GASTEIGER

@<TRIPOS>ATOM
      1  C          8.4370   -0.6380   -2.1310 C.3     1  UNL1        0.1270
      2  C          8.4040   -1.9060   -2.8800 C.2     1  UNL1        0.3030
      3  O          7.2930   -2.3900   -3.2020 O.2     1  UNL1       -0.2520
      4  O          9.5660   -2.5650   -3.2330 O.3     1  UNL1       -0.4810
      5  H         10.5070   -2.2880   -2.8960 H       1  UNL1        0.2960
      6  C          7.0160   -0.0850   -2.1220 C.3     1  UNL1        0.0470
      7  C          6.4730    0.0300   -0.7570 C.2     1  UNL1       -0.0470
      8  C          5.8370    1.2140   -0.4050 C.2     1  UNL1        0.0040
      9  C          6.5510   -0.9450    0.2040 C.2     1  UNL1        0.0040
     10  C          5.3160    1.3630    0.8790 C.2     1  UNL1        0.0000
     11  C          6.0450   -0.8270    1.4830 C.2     1  UNL1        0.0000
     12  C          5.4190    0.3610    1.8050 C.2     1  UNL1        0.0000
@<TRIPOS>BOND
     1     4     5    1
     2     4     2    1
     3     3     2    2
     4     2     1    1
     5     1     6    1
     6     6     7    1
     7     7     8    2
     8     7     9    1
     9     8    10    1
    10     9    11    2
    11    10    12    2
    12    11    12    1
