@<TRIPOS>MOLECULE
/home/cewinharhar/GITHUB/reincatalyze/data/processed/docking_pred/2023-Apr-25-1829_maxeplen10_maxtrainstep200_exh32_gamma099_lrac3e-4_lrcr1e-3/c8a10dea28a77dd5a54e6b3bff917c6d12aef46d_ligand_2.pdbqt
 12 12 0 0 0
SMALL
GASTEIGER

@<TRIPOS>ATOM
      1  C          8.2380    0.2240   -2.2440 C.3     1  UNL1        0.1270
      2  C          9.3520    0.3480   -1.2880 C.2     1  UNL1        0.3030
      3  O          9.4000   -0.4340   -0.3100 O.2     1  UNL1       -0.2520
      4  O         10.3380    1.3020   -1.4520 O.3     1  UNL1       -0.4810
      5  H         11.2530    1.2700   -0.9650 H       1  UNL1        0.2960
      6  C          7.1250   -0.5430   -1.5380 C.3     1  UNL1        0.0470
      7  C          6.3360    0.3210   -0.6430 C.2     1  UNL1       -0.0470
      8  C          6.1060   -0.1200    0.6550 C.2     1  UNL1        0.0040
      9  C          5.8010    1.5340   -0.9920 C.2     1  UNL1        0.0040
     10  C          5.3590    0.6660    1.5300 C.2     1  UNL1        0.0000
     11  C          5.0570    2.3350   -0.1490 C.2     1  UNL1        0.0000
     12  C          4.8440    1.8700    1.1340 C.2     1  UNL1        0.0000
@<TRIPOS>BOND
     1     1     6    1
     2     1     2    1
     3     6     7    1
     4     4     2    1
     5     4     5    1
     6     2     3    2
     7     9     7    2
     8     9    11    1
     9     7     8    1
    10    11    12    2
    11     8    10    2
    12    12    10    1
