@<TRIPOS>MOLECULE
/home/cewinharhar/GITHUB/reincatalyze/data/processed/docking_pred/2023-Apr-25-1829_maxeplen10_maxtrainstep200_exh32_gamma099_lrac3e-4_lrcr1e-3/c8a10dea28a77dd5a54e6b3bff917c6d12aef46d_ligand_2.pdbqt
 12 12 0 0 0
SMALL
GASTEIGER

@<TRIPOS>ATOM
      1  C          8.4460   -0.6690   -2.0960 C.3     1  UNL1        0.1270
      2  C          8.4570   -1.9100   -2.8890 C.2     1  UNL1        0.3030
      3  O          9.5480   -2.4970   -3.0810 O.2     1  UNL1       -0.2520
      4  O          7.2940   -2.4360   -3.4190 O.3     1  UNL1       -0.4810
      5  H          6.5090   -2.7890   -2.8400 H       1  UNL1        0.2960
      6  C          7.0210   -0.1280   -2.1270 C.3     1  UNL1        0.0470
      7  C          6.4680    0.0600   -0.7750 C.2     1  UNL1       -0.0470
      8  C          6.5980   -0.9820    0.1350 C.2     1  UNL1        0.0040
      9  C          5.8240    1.1890   -0.3400 C.2     1  UNL1        0.0040
     10  C          6.0820   -0.8440    1.4230 C.2     1  UNL1        0.0000
     11  C          5.3030    1.3560    0.9280 C.2     1  UNL1        0.0000
     12  C          5.4460    0.3040    1.8100 C.2     1  UNL1        0.0000
@<TRIPOS>BOND
     1     4     2    1
     2     4     5    1
     3     3     2    2
     4     2     1    1
     5     6     1    1
     6     6     7    1
     7     7     9    2
     8     7     8    1
     9     9    11    1
    10     8    10    2
    11    11    12    2
    12    10    12    1
