@<TRIPOS>MOLECULE
/home/cewinharhar/GITHUB/reincatalyze/data/processed/docking_pred/2023-Apr-25-1829_maxeplen10_maxtrainstep200_exh32_gamma099_lrac3e-4_lrcr1e-3/c8a10dea28a77dd5a54e6b3bff917c6d12aef46d_ligand_2.pdbqt
 12 12 0 0 0
SMALL
GASTEIGER

@<TRIPOS>ATOM
      1  C          4.9730    1.7900    0.6860 C.3     1  UNL1        0.1270
      2  C          4.4830    1.1310    1.9090 C.2     1  UNL1        0.3030
      3  O          5.2000    0.2620    2.4580 O.2     1  UNL1       -0.2520
      4  O          3.2570    1.4550    2.4590 O.3     1  UNL1       -0.4810
      5  H          2.5750    0.7490    2.7940 H       1  UNL1        0.2960
      6  C          6.4960    1.7970    0.7600 C.3     1  UNL1        0.0470
      7  C          7.1090    1.0180   -0.3300 C.2     1  UNL1       -0.0470
      8  C          8.4490    1.2430   -0.6210 C.2     1  UNL1        0.0040
      9  C          6.4550    0.0840   -1.0920 C.2     1  UNL1        0.0040
     10  C          9.0630    0.5310   -1.6500 C.2     1  UNL1        0.0000
     11  C          7.0350   -0.6380   -2.1160 C.2     1  UNL1        0.0000
     12  C          8.3680   -0.3920   -2.3830 C.2     1  UNL1        0.0000
@<TRIPOS>BOND
     1    12    11    2
     2    12    10    1
     3    11     9    1
     4    10     8    2
     5     9     7    2
     6     8     7    1
     7     7     6    1
     8     1     6    1
     9     1     2    1
    10     2     3    2
    11     2     4    1
    12     4     5    1
