MODEL 1
REMARK VINA RESULT:      -7.3      0.000      0.000
REMARK SMILES O=C(O)CCc1ccccc1
REMARK SMILES IDX 4 1 2 2 1 3 3 4 5 6 6 7 7 8 11 9 8 10 10 11 9 12
REMARK H PARENT 3 5
REMARK Flexibility Score: inf
ROOT
ATOM      1  C   UNL     1       8.446  -0.669  -2.096  1.00  0.00     0.127 C 
ENDROOT
BRANCH   1   2
ATOM      2  C   UNL     1       8.457  -1.910  -2.889  1.00  0.00     0.303 C 
ATOM      3  O   UNL     1       9.548  -2.497  -3.081  1.00  0.00    -0.252 OA
BRANCH   2   4
ATOM      4  O   UNL     1       7.294  -2.436  -3.419  1.00  0.00    -0.481 OA
ATOM      5  H   UNL     1       6.509  -2.789  -2.840  1.00  0.00     0.296 HD
ENDBRANCH   2   4
ENDBRANCH   1   2
BRANCH   1   6
ATOM      6  C   UNL     1       7.021  -0.128  -2.127  1.00  0.00     0.047 C 
BRANCH   6   7
ATOM      7  C   UNL     1       6.468   0.060  -0.775  1.00  0.00    -0.047 A 
ATOM      8  C   UNL     1       6.598  -0.982   0.135  1.00  0.00     0.004 A 
ATOM      9  C   UNL     1       5.824   1.189  -0.340  1.00  0.00     0.004 A 
ATOM     10  C   UNL     1       6.082  -0.844   1.423  1.00  0.00     0.000 A 
ATOM     11  C   UNL     1       5.303   1.356   0.928  1.00  0.00     0.000 A 
ATOM     12  C   UNL     1       5.446   0.304   1.810  1.00  0.00     0.000 A 
ENDBRANCH   6   7
ENDBRANCH   1   6
TORSDOF 4
ENDMDL
MODEL 2
REMARK VINA RESULT:      -7.3      0.100      1.727
REMARK SMILES O=C(O)CCc1ccccc1
REMARK SMILES IDX 4 1 2 2 1 3 3 4 5 6 6 7 7 8 11 9 8 10 10 11 9 12
REMARK H PARENT 3 5
REMARK Flexibility Score: inf
ROOT
ATOM      1  C   UNL     1       8.437  -0.638  -2.131  1.00  0.00     0.127 C 
ENDROOT
BRANCH   1   2
ATOM      2  C   UNL     1       8.404  -1.906  -2.880  1.00  0.00     0.303 C 
ATOM      3  O   UNL     1       7.293  -2.390  -3.202  1.00  0.00    -0.252 OA
BRANCH   2   4
ATOM      4  O   UNL     1       9.566  -2.565  -3.233  1.00  0.00    -0.481 OA
ATOM      5  H   UNL     1      10.507  -2.288  -2.896  1.00  0.00     0.296 HD
ENDBRANCH   2   4
ENDBRANCH   1   2
BRANCH   1   6
ATOM      6  C   UNL     1       7.016  -0.085  -2.122  1.00  0.00     0.047 C 
BRANCH   6   7
ATOM      7  C   UNL     1       6.473   0.030  -0.757  1.00  0.00    -0.047 A 
ATOM      8  C   UNL     1       5.837   1.214  -0.405  1.00  0.00     0.004 A 
ATOM      9  C   UNL     1       6.551  -0.945   0.204  1.00  0.00     0.004 A 
ATOM     10  C   UNL     1       5.316   1.363   0.879  1.00  0.00     0.000 A 
ATOM     11  C   UNL     1       6.045  -0.827   1.483  1.00  0.00     0.000 A 
ATOM     12  C   UNL     1       5.419   0.361   1.805  1.00  0.00     0.000 A 
ENDBRANCH   6   7
ENDBRANCH   1   6
TORSDOF 4
ENDMDL
MODEL 3
REMARK VINA RESULT:      -6.8      3.374      5.091
REMARK SMILES O=C(O)CCc1ccccc1
REMARK SMILES IDX 4 1 2 2 1 3 3 4 5 6 6 7 7 8 11 9 8 10 10 11 9 12
REMARK H PARENT 3 5
REMARK Flexibility Score: inf
ROOT
ATOM      1  C   UNL     1       4.973   1.790   0.686  1.00  0.00     0.127 C 
ENDROOT
BRANCH   1   2
ATOM      2  C   UNL     1       4.483   1.131   1.909  1.00  0.00     0.303 C 
ATOM      3  O   UNL     1       5.200   0.262   2.458  1.00  0.00    -0.252 OA
BRANCH   2   4
ATOM      4  O   UNL     1       3.257   1.455   2.459  1.00  0.00    -0.481 OA
ATOM      5  H   UNL     1       2.575   0.749   2.794  1.00  0.00     0.296 HD
ENDBRANCH   2   4
ENDBRANCH   1   2
BRANCH   1   6
ATOM      6  C   UNL     1       6.496   1.797   0.760  1.00  0.00     0.047 C 
BRANCH   6   7
ATOM      7  C   UNL     1       7.109   1.018  -0.330  1.00  0.00    -0.047 A 
ATOM      8  C   UNL     1       8.449   1.243  -0.621  1.00  0.00     0.004 A 
ATOM      9  C   UNL     1       6.455   0.084  -1.092  1.00  0.00     0.004 A 
ATOM     10  C   UNL     1       9.063   0.531  -1.650  1.00  0.00     0.000 A 
ATOM     11  C   UNL     1       7.035  -0.638  -2.116  1.00  0.00     0.000 A 
ATOM     12  C   UNL     1       8.368  -0.392  -2.383  1.00  0.00     0.000 A 
ENDBRANCH   6   7
ENDBRANCH   1   6
TORSDOF 4
ENDMDL
MODEL 4
REMARK VINA RESULT:      -6.7      3.815      4.902
REMARK SMILES O=C(O)CCc1ccccc1
REMARK SMILES IDX 4 1 2 2 1 3 3 4 5 6 6 7 7 8 11 9 8 10 10 11 9 12
REMARK H PARENT 3 5
REMARK Flexibility Score: inf
ROOT
ATOM      1  C   UNL     1       5.482   2.886  -0.052  1.00  0.00     0.127 C 
ENDROOT
BRANCH   1   2
ATOM      2  C   UNL     1       6.247   3.821   0.792  1.00  0.00     0.303 C 
ATOM      3  O   UNL     1       6.861   4.766   0.243  1.00  0.00    -0.252 OA
BRANCH   2   4
ATOM      4  O   UNL     1       6.296   3.677   2.165  1.00  0.00    -0.481 OA
ATOM      5  H   UNL     1       6.431   4.470   2.820  1.00  0.00     0.296 HD
ENDBRANCH   2   4
ENDBRANCH   1   2
BRANCH   1   6
ATOM      6  C   UNL     1       4.906   1.819   0.872  1.00  0.00     0.047 C 
BRANCH   6   7
ATOM      7  C   UNL     1       5.728   0.596   0.890  1.00  0.00    -0.047 A 
ATOM      8  C   UNL     1       5.737  -0.169   2.050  1.00  0.00     0.004 A 
ATOM      9  C   UNL     1       6.498   0.152  -0.154  1.00  0.00     0.004 A 
ATOM     10  C   UNL     1       6.507  -1.329   2.108  1.00  0.00     0.000 A 
ATOM     11  C   UNL     1       7.271  -0.992  -0.128  1.00  0.00     0.000 A 
ATOM     12  C   UNL     1       7.260  -1.731   1.039  1.00  0.00     0.000 A 
ENDBRANCH   6   7
ENDBRANCH   1   6
TORSDOF 4
ENDMDL
MODEL 5
REMARK VINA RESULT:      -6.6      1.913      2.318
REMARK SMILES O=C(O)CCc1ccccc1
REMARK SMILES IDX 4 1 2 2 1 3 3 4 5 6 6 7 7 8 11 9 8 10 10 11 9 12
REMARK H PARENT 3 5
REMARK Flexibility Score: inf
ROOT
ATOM      1  C   UNL     1       8.238   0.224  -2.244  1.00  0.00     0.127 C 
ENDROOT
BRANCH   1   2
ATOM      2  C   UNL     1       9.352   0.348  -1.288  1.00  0.00     0.303 C 
ATOM      3  O   UNL     1       9.400  -0.434  -0.310  1.00  0.00    -0.252 OA
BRANCH   2   4
ATOM      4  O   UNL     1      10.338   1.302  -1.452  1.00  0.00    -0.481 OA
ATOM      5  H   UNL     1      11.253   1.270  -0.965  1.00  0.00     0.296 HD
ENDBRANCH   2   4
ENDBRANCH   1   2
BRANCH   1   6
ATOM      6  C   UNL     1       7.125  -0.543  -1.538  1.00  0.00     0.047 C 
BRANCH   6   7
ATOM      7  C   UNL     1       6.336   0.321  -0.643  1.00  0.00    -0.047 A 
ATOM      8  C   UNL     1       6.106  -0.120   0.655  1.00  0.00     0.004 A 
ATOM      9  C   UNL     1       5.801   1.534  -0.992  1.00  0.00     0.004 A 
ATOM     10  C   UNL     1       5.359   0.666   1.530  1.00  0.00     0.000 A 
ATOM     11  C   UNL     1       5.057   2.335  -0.149  1.00  0.00     0.000 A 
ATOM     12  C   UNL     1       4.844   1.870   1.134  1.00  0.00     0.000 A 
ENDBRANCH   6   7
ENDBRANCH   1   6
TORSDOF 4
ENDMDL
