@<TRIPOS>MOLECULE
/home/cewinharhar/GITHUB/reincatalyze/data/processed/docking_pred/2023-Apr-25-1829_maxeplen10_maxtrainstep200_exh32_gamma099_lrac3e-4_lrcr1e-3/c8a10dea28a77dd5a54e6b3bff917c6d12aef46d_ligand_2.pdbqt
 12 12 0 0 0
SMALL
GASTEIGER

@<TRIPOS>ATOM
      1  C          5.4820    2.8860   -0.0520 C.3     1  UNL1        0.1270
      2  C          6.2470    3.8210    0.7920 C.2     1  UNL1        0.3030
      3  O          6.8610    4.7660    0.2430 O.2     1  UNL1       -0.2520
      4  O          6.2960    3.6770    2.1650 O.3     1  UNL1       -0.4810
      5  H          6.4310    4.4700    2.8200 H       1  UNL1        0.2960
      6  C          4.9060    1.8190    0.8720 C.3     1  UNL1        0.0470
      7  C          5.7280    0.5960    0.8900 C.2     1  UNL1       -0.0470
      8  C          5.7370   -0.1690    2.0500 C.2     1  UNL1        0.0040
      9  C          6.4980    0.1520   -0.1540 C.2     1  UNL1        0.0040
     10  C          6.5070   -1.3290    2.1080 C.2     1  UNL1        0.0000
     11  C          7.2710   -0.9920   -0.1280 C.2     1  UNL1        0.0000
     12  C          7.2600   -1.7310    1.0390 C.2     1  UNL1        0.0000
@<TRIPOS>BOND
     1     9    11    1
     2     9     7    2
     3    11    12    2
     4     1     2    1
     5     1     6    1
     6     3     2    2
     7     2     4    1
     8     6     7    1
     9     7     8    1
    10    12    10    1
    11     8    10    2
    12     4     5    1
