@<TRIPOS>MOLECULE
/home/cewinharhar/GITHUB/reincatalyze/data/processed/docking_pred/2023-Apr-25-1829_maxeplen10_maxtrainstep200_exh32_gamma099_lrac3e-4_lrcr1e-3/ca2511eb0ea692a115cf18c67ef7ccdfaa736476_ligand_2.pdbqt
 12 12 0 0 0
SMALL
GASTEIGER

@<TRIPOS>ATOM
      1  C          8.3090   -0.9400   -1.8620 C.3     1  UNL1        0.1270
      2  C          8.3870   -2.0340   -2.8460 C.2     1  UNL1        0.3030
      3  O          9.5040   -2.5470   -3.0930 O.2     1  UNL1       -0.2520
      4  O          7.2600   -2.5020   -3.4930 O.3     1  UNL1       -0.4810
      5  H          7.2860   -2.9990   -4.4030 H       1  UNL1        0.2960
      6  C          7.5010   -1.4590   -0.6780 C.3     1  UNL1        0.0470
      7  C          6.6430   -0.4150   -0.0900 C.2     1  UNL1       -0.0470
      8  C          6.3170    0.6830   -0.8770 C.2     1  UNL1        0.0040
      9  C          6.1420   -0.4370    1.1860 C.2     1  UNL1        0.0040
     10  C          5.5140    1.6950   -0.3540 C.2     1  UNL1        0.0000
     11  C          5.3440    0.5490    1.7330 C.2     1  UNL1        0.0000
     12  C          5.0370    1.6280    0.9270 C.2     1  UNL1        0.0000
@<TRIPOS>BOND
     1     5     4    1
     2     4     2    1
     3     3     2    2
     4     2     1    1
     5     1     6    1
     6     8    10    1
     7     8     7    2
     8     6     7    1
     9    10    12    2
    10     7     9    1
    11    12    11    1
    12     9    11    2
