@<TRIPOS>MOLECULE
/home/cewinharhar/GITHUB/reincatalyze/data/processed/docking_pred/2023-Apr-25-1829_maxeplen10_maxtrainstep200_exh32_gamma099_lrac3e-4_lrcr1e-3/ca2511eb0ea692a115cf18c67ef7ccdfaa736476_ligand_2.pdbqt
 12 12 0 0 0
SMALL
GASTEIGER

@<TRIPOS>ATOM
      1  C          8.4450   -0.6780   -2.0870 C.3     1  UNL1        0.1270
      2  C          8.4080   -1.9220   -2.8750 C.2     1  UNL1        0.3030
      3  O          7.2960   -2.3960   -3.2070 O.2     1  UNL1       -0.2520
      4  O          9.5690   -2.5690   -3.2530 O.3     1  UNL1       -0.4810
      5  H          9.7210   -3.5880   -3.1370 H       1  UNL1        0.2960
      6  C          7.0530   -0.0600   -2.1600 C.3     1  UNL1        0.0470
      7  C          6.4740    0.1640   -0.8240 C.2     1  UNL1       -0.0470
      8  C          6.6310   -0.8320    0.1330 C.2     1  UNL1        0.0040
      9  C          5.7810    1.2860   -0.4470 C.2     1  UNL1        0.0040
     10  C          6.0920   -0.6590    1.4060 C.2     1  UNL1        0.0000
     11  C          5.2360    1.4870    0.8060 C.2     1  UNL1        0.0000
     12  C          5.4080    0.4790    1.7350 C.2     1  UNL1        0.0000
@<TRIPOS>BOND
     1     4     5    1
     2     4     2    1
     3     3     2    2
     4     2     1    1
     5     6     1    1
     6     6     7    1
     7     7     9    2
     8     7     8    1
     9     9    11    1
    10     8    10    2
    11    11    12    2
    12    10    12    1
