@<TRIPOS>MOLECULE
/home/cewinharhar/GITHUB/reincatalyze/data/processed/docking_pred/2023-Apr-25-1829_maxeplen10_maxtrainstep200_exh32_gamma099_lrac3e-4_lrcr1e-3/ca2511eb0ea692a115cf18c67ef7ccdfaa736476_ligand_2.pdbqt
 12 12 0 0 0
SMALL
GASTEIGER

@<TRIPOS>ATOM
      1  C          5.0040    1.7650    0.7330 C.3     1  UNL1        0.1270
      2  C          4.4700    1.1030    1.9360 C.2     1  UNL1        0.3030
      3  O          5.1510    0.2040    2.4840 O.2     1  UNL1       -0.2520
      4  O          3.2440    1.4540    2.4680 O.3     1  UNL1       -0.4810
      5  H          2.4320    0.8120    2.5080 H       1  UNL1        0.2960
      6  C          6.5240    1.6960    0.8200 C.3     1  UNL1        0.0470
      7  C          7.1100    0.9330   -0.2960 C.2     1  UNL1       -0.0470
      8  C          8.4140    1.2280   -0.6760 C.2     1  UNL1        0.0040
      9  C          6.4640   -0.0500   -1.0000 C.2     1  UNL1        0.0040
     10  C          9.0010    0.5320   -1.7320 C.2     1  UNL1        0.0000
     11  C          7.0180   -0.7570   -2.0490 C.2     1  UNL1        0.0000
     12  C          8.3150   -0.4410   -2.4050 C.2     1  UNL1        0.0000
@<TRIPOS>BOND
     1    12    11    2
     2    12    10    1
     3    11     9    1
     4    10     8    2
     5     9     7    2
     6     8     7    1
     7     7     6    1
     8     1     6    1
     9     1     2    1
    10     2     4    1
    11     2     3    2
    12     4     5    1
