MODEL 1
REMARK VINA RESULT:      -7.3      0.000      0.000
REMARK SMILES O=C(O)CCc1ccccc1
REMARK SMILES IDX 4 1 2 2 1 3 3 4 5 6 6 7 7 8 11 9 8 10 10 11 9 12
REMARK H PARENT 3 5
REMARK Flexibility Score: inf
ROOT
ATOM      1  C   UNL     1       8.459  -0.603  -2.211  1.00  0.00     0.127 C 
ENDROOT
BRANCH   1   2
ATOM      2  C   UNL     1       8.474  -1.890  -2.928  1.00  0.00     0.303 C 
ATOM      3  O   UNL     1       9.561  -2.501  -3.053  1.00  0.00    -0.252 OA
BRANCH   2   4
ATOM      4  O   UNL     1       7.318  -2.431  -3.460  1.00  0.00    -0.481 OA
ATOM      5  H   UNL     1       7.009  -2.274  -4.437  1.00  0.00     0.296 HD
ENDBRANCH   2   4
ENDBRANCH   1   2
BRANCH   1   6
ATOM      6  C   UNL     1       7.013  -0.122  -2.183  1.00  0.00     0.047 C 
BRANCH   6   7
ATOM      7  C   UNL     1       6.495   0.002  -0.809  1.00  0.00    -0.047 A 
ATOM      8  C   UNL     1       5.856   1.184  -0.455  1.00  0.00     0.004 A 
ATOM      9  C   UNL     1       6.599  -0.963   0.159  1.00  0.00     0.004 A 
ATOM     10  C   UNL     1       5.359   1.342   0.837  1.00  0.00     0.000 A 
ATOM     11  C   UNL     1       6.116  -0.838   1.447  1.00  0.00     0.000 A 
ATOM     12  C   UNL     1       5.487   0.349   1.770  1.00  0.00     0.000 A 
ENDBRANCH   6   7
ENDBRANCH   1   6
TORSDOF 4
ENDMDL
MODEL 2
REMARK VINA RESULT:      -7.2      0.166      1.730
REMARK SMILES O=C(O)CCc1ccccc1
REMARK SMILES IDX 4 1 2 2 1 3 3 4 5 6 6 7 7 8 11 9 8 10 10 11 9 12
REMARK H PARENT 3 5
REMARK Flexibility Score: inf
ROOT
ATOM      1  C   UNL     1       8.445  -0.678  -2.087  1.00  0.00     0.127 C 
ENDROOT
BRANCH   1   2
ATOM      2  C   UNL     1       8.408  -1.922  -2.875  1.00  0.00     0.303 C 
ATOM      3  O   UNL     1       7.296  -2.396  -3.207  1.00  0.00    -0.252 OA
BRANCH   2   4
ATOM      4  O   UNL     1       9.569  -2.569  -3.253  1.00  0.00    -0.481 OA
ATOM      5  H   UNL     1       9.721  -3.588  -3.137  1.00  0.00     0.296 HD
ENDBRANCH   2   4
ENDBRANCH   1   2
BRANCH   1   6
ATOM      6  C   UNL     1       7.053  -0.060  -2.160  1.00  0.00     0.047 C 
BRANCH   6   7
ATOM      7  C   UNL     1       6.474   0.164  -0.824  1.00  0.00    -0.047 A 
ATOM      8  C   UNL     1       6.631  -0.832   0.133  1.00  0.00     0.004 A 
ATOM      9  C   UNL     1       5.781   1.286  -0.447  1.00  0.00     0.004 A 
ATOM     10  C   UNL     1       6.092  -0.659   1.406  1.00  0.00     0.000 A 
ATOM     11  C   UNL     1       5.236   1.487   0.806  1.00  0.00     0.000 A 
ATOM     12  C   UNL     1       5.408   0.479   1.735  1.00  0.00     0.000 A 
ENDBRANCH   6   7
ENDBRANCH   1   6
TORSDOF 4
ENDMDL
MODEL 3
REMARK VINA RESULT:      -7.2      0.640      1.137
REMARK SMILES O=C(O)CCc1ccccc1
REMARK SMILES IDX 4 1 2 2 1 3 3 4 5 6 6 7 7 8 11 9 8 10 10 11 9 12
REMARK H PARENT 3 5
REMARK Flexibility Score: inf
ROOT
ATOM      1  C   UNL     1       8.309  -0.940  -1.862  1.00  0.00     0.127 C 
ENDROOT
BRANCH   1   2
ATOM      2  C   UNL     1       8.387  -2.034  -2.846  1.00  0.00     0.303 C 
ATOM      3  O   UNL     1       9.504  -2.547  -3.093  1.00  0.00    -0.252 OA
BRANCH   2   4
ATOM      4  O   UNL     1       7.260  -2.502  -3.493  1.00  0.00    -0.481 OA
ATOM      5  H   UNL     1       7.286  -2.999  -4.403  1.00  0.00     0.296 HD
ENDBRANCH   2   4
ENDBRANCH   1   2
BRANCH   1   6
ATOM      6  C   UNL     1       7.501  -1.459  -0.678  1.00  0.00     0.047 C 
BRANCH   6   7
ATOM      7  C   UNL     1       6.643  -0.415  -0.090  1.00  0.00    -0.047 A 
ATOM      8  C   UNL     1       6.317   0.683  -0.877  1.00  0.00     0.004 A 
ATOM      9  C   UNL     1       6.142  -0.437   1.186  1.00  0.00     0.004 A 
ATOM     10  C   UNL     1       5.514   1.695  -0.354  1.00  0.00     0.000 A 
ATOM     11  C   UNL     1       5.344   0.549   1.733  1.00  0.00     0.000 A 
ATOM     12  C   UNL     1       5.037   1.628   0.927  1.00  0.00     0.000 A 
ENDBRANCH   6   7
ENDBRANCH   1   6
TORSDOF 4
ENDMDL
MODEL 4
REMARK VINA RESULT:      -6.8      3.389      5.060
REMARK SMILES O=C(O)CCc1ccccc1
REMARK SMILES IDX 4 1 2 2 1 3 3 4 5 6 6 7 7 8 11 9 8 10 10 11 9 12
REMARK H PARENT 3 5
REMARK Flexibility Score: inf
ROOT
ATOM      1  C   UNL     1       5.004   1.765   0.733  1.00  0.00     0.127 C 
ENDROOT
BRANCH   1   2
ATOM      2  C   UNL     1       4.470   1.103   1.936  1.00  0.00     0.303 C 
ATOM      3  O   UNL     1       5.151   0.204   2.484  1.00  0.00    -0.252 OA
BRANCH   2   4
ATOM      4  O   UNL     1       3.244   1.454   2.468  1.00  0.00    -0.481 OA
ATOM      5  H   UNL     1       2.432   0.812   2.508  1.00  0.00     0.296 HD
ENDBRANCH   2   4
ENDBRANCH   1   2
BRANCH   1   6
ATOM      6  C   UNL     1       6.524   1.696   0.820  1.00  0.00     0.047 C 
BRANCH   6   7
ATOM      7  C   UNL     1       7.110   0.933  -0.296  1.00  0.00    -0.047 A 
ATOM      8  C   UNL     1       8.414   1.228  -0.676  1.00  0.00     0.004 A 
ATOM      9  C   UNL     1       6.464  -0.050  -1.000  1.00  0.00     0.004 A 
ATOM     10  C   UNL     1       9.001   0.532  -1.732  1.00  0.00     0.000 A 
ATOM     11  C   UNL     1       7.018  -0.757  -2.049  1.00  0.00     0.000 A 
ATOM     12  C   UNL     1       8.315  -0.441  -2.405  1.00  0.00     0.000 A 
ENDBRANCH   6   7
ENDBRANCH   1   6
TORSDOF 4
ENDMDL
MODEL 5
REMARK VINA RESULT:      -6.6      3.348      5.125
REMARK SMILES O=C(O)CCc1ccccc1
REMARK SMILES IDX 4 1 2 2 1 3 3 4 5 6 6 7 7 8 11 9 8 10 10 11 9 12
REMARK H PARENT 3 5
REMARK Flexibility Score: inf
ROOT
ATOM      1  C   UNL     1       4.985   1.772   0.720  1.00  0.00     0.127 C 
ENDROOT
BRANCH   1   2
ATOM      2  C   UNL     1       4.537   1.062   1.931  1.00  0.00     0.303 C 
ATOM      3  O   UNL     1       3.418   1.346   2.420  1.00  0.00    -0.252 OA
BRANCH   2   4
ATOM      4  O   UNL     1       5.321   0.095   2.530  1.00  0.00    -0.481 OA
ATOM      5  H   UNL     1       6.245   0.290   2.958  1.00  0.00     0.296 HD
ENDBRANCH   2   4
ENDBRANCH   1   2
BRANCH   1   6
ATOM      6  C   UNL     1       6.505   1.865   0.792  1.00  0.00     0.047 C 
BRANCH   6   7
ATOM      7  C   UNL     1       7.159   1.136  -0.308  1.00  0.00    -0.047 A 
ATOM      8  C   UNL     1       6.375   0.306  -1.100  1.00  0.00     0.004 A 
ATOM      9  C   UNL     1       8.494   1.208  -0.613  1.00  0.00     0.004 A 
ATOM     10  C   UNL     1       6.959  -0.405  -2.147  1.00  0.00     0.000 A 
ATOM     11  C   UNL     1       9.101   0.517  -1.643  1.00  0.00     0.000 A 
ATOM     12  C   UNL     1       8.297  -0.301  -2.412  1.00  0.00     0.000 A 
ENDBRANCH   6   7
ENDBRANCH   1   6
TORSDOF 4
ENDMDL
