@<TRIPOS>MOLECULE
/home/cewinharhar/GITHUB/reincatalyze/data/processed/docking_pred/2023-Apr-25-1829_maxeplen10_maxtrainstep200_exh32_gamma099_lrac3e-4_lrcr1e-3/ca2511eb0ea692a115cf18c67ef7ccdfaa736476_ligand_2.pdbqt
 12 12 0 0 0
SMALL
GASTEIGER

@<TRIPOS>ATOM
      1  C          8.4590   -0.6030   -2.2110 C.3     1  UNL1        0.1270
      2  C          8.4740   -1.8900   -2.9280 C.2     1  UNL1        0.3030
      3  O          9.5610   -2.5010   -3.0530 O.2     1  UNL1       -0.2520
      4  O          7.3180   -2.4310   -3.4600 O.3     1  UNL1       -0.4810
      5  H          7.0090   -2.2740   -4.4370 H       1  UNL1        0.2960
      6  C          7.0130   -0.1220   -2.1830 C.3     1  UNL1        0.0470
      7  C          6.4950    0.0020   -0.8090 C.2     1  UNL1       -0.0470
      8  C          5.8560    1.1840   -0.4550 C.2     1  UNL1        0.0040
      9  C          6.5990   -0.9630    0.1590 C.2     1  UNL1        0.0040
     10  C          5.3590    1.3420    0.8370 C.2     1  UNL1        0.0000
     11  C          6.1160   -0.8380    1.4470 C.2     1  UNL1        0.0000
     12  C          5.4870    0.3490    1.7700 C.2     1  UNL1        0.0000
@<TRIPOS>BOND
     1     5     4    1
     2     4     2    1
     3     3     2    2
     4     2     1    1
     5     1     6    1
     6     6     7    1
     7     7     8    2
     8     7     9    1
     9     8    10    1
    10     9    11    2
    11    10    12    2
    12    11    12    1
