@<TRIPOS>MOLECULE
/home/cewinharhar/GITHUB/reincatalyze/data/processed/docking_pred/2023-Apr-25-1829_maxeplen10_maxtrainstep200_exh32_gamma099_lrac3e-4_lrcr1e-3/cc4a81c85f0f72a0e9860fd8246284f5ccc1e781_ligand_2.pdbqt
 12 12 0 0 0
SMALL
GASTEIGER

@<TRIPOS>ATOM
      1  C          5.3570    3.0340    0.0580 C.3     1  UNL1        0.1270
      2  C          6.2480    3.8990    0.8520 C.2     1  UNL1        0.3030
      3  O          6.9270    4.7720    0.2630 O.2     1  UNL1       -0.2520
      4  O          6.3450    3.7650    2.2240 O.3     1  UNL1       -0.4810
      5  H          5.5250    3.7400    2.8570 H       1  UNL1        0.2960
      6  C          5.2030    1.7260    0.8250 C.3     1  UNL1        0.0470
      7  C          5.9430    0.6200    0.1910 C.2     1  UNL1       -0.0470
      8  C          6.2300    0.7180   -1.1650 C.2     1  UNL1        0.0040
      9  C          6.3690   -0.5110    0.8380 C.2     1  UNL1        0.0040
     10  C          6.9230   -0.3110   -1.8010 C.2     1  UNL1        0.0000
     11  C          7.0570   -1.5460    0.2370 C.2     1  UNL1        0.0000
     12  C          7.3280   -1.4210   -1.1120 C.2     1  UNL1        0.0000
@<TRIPOS>BOND
     1    10     8    1
     2    10    12    2
     3     8     7    2
     4    12    11    1
     5     1     6    1
     6     1     2    1
     7     7     6    1
     8     7     9    1
     9    11     9    2
    10     3     2    2
    11     2     4    1
    12     4     5    1
