MODEL 1
REMARK VINA RESULT:      -6.6      0.000      0.000
REMARK SMILES O=C(O)CCc1ccccc1
REMARK SMILES IDX 4 1 2 2 1 3 3 4 5 6 6 7 7 8 11 9 8 10 10 11 9 12
REMARK H PARENT 3 5
REMARK Flexibility Score: inf
ROOT
ATOM      1  C   UNL     1       8.652  -0.644  -1.982  1.00  0.00     0.127 C 
ENDROOT
BRANCH   1   2
ATOM      2  C   UNL     1       8.771  -1.879  -2.777  1.00  0.00     0.303 C 
ATOM      3  O   UNL     1       9.909  -2.369  -2.967  1.00  0.00    -0.252 OA
BRANCH   2   4
ATOM      4  O   UNL     1       7.659  -2.501  -3.311  1.00  0.00    -0.481 OA
ATOM      5  H   UNL     1       6.707  -2.415  -2.911  1.00  0.00     0.296 HD
ENDBRANCH   2   4
ENDBRANCH   1   2
BRANCH   1   6
ATOM      6  C   UNL     1       7.206  -0.175  -2.096  1.00  0.00     0.047 C 
BRANCH   6   7
ATOM      7  C   UNL     1       6.577   0.015  -0.777  1.00  0.00    -0.047 A 
ATOM      8  C   UNL     1       5.921   1.215  -0.532  1.00  0.00     0.004 A 
ATOM      9  C   UNL     1       6.593  -0.904   0.240  1.00  0.00     0.004 A 
ATOM     10  C   UNL     1       5.320   1.435   0.705  1.00  0.00     0.000 A 
ATOM     11  C   UNL     1       6.007  -0.716   1.476  1.00  0.00     0.000 A 
ATOM     12  C   UNL     1       5.363   0.487   1.690  1.00  0.00     0.000 A 
ENDBRANCH   6   7
ENDBRANCH   1   6
TORSDOF 4
ENDMDL
MODEL 2
REMARK VINA RESULT:      -6.6      0.255      1.450
REMARK SMILES O=C(O)CCc1ccccc1
REMARK SMILES IDX 4 1 2 2 1 3 3 4 5 6 6 7 7 8 11 9 8 10 10 11 9 12
REMARK H PARENT 3 5
REMARK Flexibility Score: inf
ROOT
ATOM      1  C   UNL     1       8.448  -0.325  -2.134  1.00  0.00     0.127 C 
ENDROOT
BRANCH   1   2
ATOM      2  C   UNL     1       8.668  -1.657  -2.723  1.00  0.00     0.303 C 
ATOM      3  O   UNL     1       9.818  -2.155  -2.681  1.00  0.00    -0.252 OA
BRANCH   2   4
ATOM      4  O   UNL     1       7.638  -2.362  -3.315  1.00  0.00    -0.481 OA
ATOM      5  H   UNL     1       7.673  -3.382  -3.500  1.00  0.00     0.296 HD
ENDBRANCH   2   4
ENDBRANCH   1   2
BRANCH   1   6
ATOM      6  C   UNL     1       6.948  -0.056  -2.181  1.00  0.00     0.047 C 
BRANCH   6   7
ATOM      7  C   UNL     1       6.388   0.204  -0.844  1.00  0.00    -0.047 A 
ATOM      8  C   UNL     1       6.506  -0.791   0.119  1.00  0.00     0.004 A 
ATOM      9  C   UNL     1       5.747   1.358  -0.472  1.00  0.00     0.004 A 
ATOM     10  C   UNL     1       5.982  -0.584   1.394  1.00  0.00     0.000 A 
ATOM     11  C   UNL     1       5.219   1.593   0.782  1.00  0.00     0.000 A 
ATOM     12  C   UNL     1       5.351   0.586   1.718  1.00  0.00     0.000 A 
ENDBRANCH   6   7
ENDBRANCH   1   6
TORSDOF 4
ENDMDL
MODEL 3
REMARK VINA RESULT:      -6.4      3.401      5.104
REMARK SMILES O=C(O)CCc1ccccc1
REMARK SMILES IDX 4 1 2 2 1 3 3 4 5 6 6 7 7 8 11 9 8 10 10 11 9 12
REMARK H PARENT 3 5
REMARK Flexibility Score: inf
ROOT
ATOM      1  C   UNL     1       4.984   1.804   0.711  1.00  0.00     0.127 C 
ENDROOT
BRANCH   1   2
ATOM      2  C   UNL     1       4.466   1.130   1.914  1.00  0.00     0.303 C 
ATOM      3  O   UNL     1       5.157   0.231   2.450  1.00  0.00    -0.252 OA
BRANCH   2   4
ATOM      4  O   UNL     1       3.242   1.469   2.458  1.00  0.00    -0.481 OA
ATOM      5  H   UNL     1       2.499   1.966   1.933  1.00  0.00     0.296 HD
ENDBRANCH   2   4
ENDBRANCH   1   2
BRANCH   1   6
ATOM      6  C   UNL     1       6.506   1.754   0.790  1.00  0.00     0.047 C 
BRANCH   6   7
ATOM      7  C   UNL     1       7.096   0.987  -0.321  1.00  0.00    -0.047 A 
ATOM      8  C   UNL     1       8.413   1.255  -0.674  1.00  0.00     0.004 A 
ATOM      9  C   UNL     1       6.441   0.024  -1.045  1.00  0.00     0.004 A 
ATOM     10  C   UNL     1       9.003   0.554  -1.724  1.00  0.00     0.000 A 
ATOM     11  C   UNL     1       6.998  -0.688  -2.088  1.00  0.00     0.000 A 
ATOM     12  C   UNL     1       8.308  -0.399  -2.417  1.00  0.00     0.000 A 
ENDBRANCH   6   7
ENDBRANCH   1   6
TORSDOF 4
ENDMDL
MODEL 4
REMARK VINA RESULT:      -6.2      3.735      4.983
REMARK SMILES O=C(O)CCc1ccccc1
REMARK SMILES IDX 4 1 2 2 1 3 3 4 5 6 6 7 7 8 11 9 8 10 10 11 9 12
REMARK H PARENT 3 5
REMARK Flexibility Score: inf
ROOT
ATOM      1  C   UNL     1       5.357   3.034   0.058  1.00  0.00     0.127 C 
ENDROOT
BRANCH   1   2
ATOM      2  C   UNL     1       6.248   3.899   0.852  1.00  0.00     0.303 C 
ATOM      3  O   UNL     1       6.927   4.772   0.263  1.00  0.00    -0.252 OA
BRANCH   2   4
ATOM      4  O   UNL     1       6.345   3.765   2.224  1.00  0.00    -0.481 OA
ATOM      5  H   UNL     1       5.525   3.740   2.857  1.00  0.00     0.296 HD
ENDBRANCH   2   4
ENDBRANCH   1   2
BRANCH   1   6
ATOM      6  C   UNL     1       5.203   1.726   0.825  1.00  0.00     0.047 C 
BRANCH   6   7
ATOM      7  C   UNL     1       5.943   0.620   0.191  1.00  0.00    -0.047 A 
ATOM      8  C   UNL     1       6.230   0.718  -1.165  1.00  0.00     0.004 A 
ATOM      9  C   UNL     1       6.369  -0.511   0.838  1.00  0.00     0.004 A 
ATOM     10  C   UNL     1       6.923  -0.311  -1.801  1.00  0.00     0.000 A 
ATOM     11  C   UNL     1       7.057  -1.546   0.237  1.00  0.00     0.000 A 
ATOM     12  C   UNL     1       7.328  -1.421  -1.112  1.00  0.00     0.000 A 
ENDBRANCH   6   7
ENDBRANCH   1   6
TORSDOF 4
ENDMDL
MODEL 5
REMARK VINA RESULT:      -6.2      1.467      2.394
REMARK SMILES O=C(O)CCc1ccccc1
REMARK SMILES IDX 4 1 2 2 1 3 3 4 5 6 6 7 7 8 11 9 8 10 10 11 9 12
REMARK H PARENT 3 5
REMARK Flexibility Score: inf
ROOT
ATOM      1  C   UNL     1       8.746   0.673  -1.720  1.00  0.00     0.127 C 
ENDROOT
BRANCH   1   2
ATOM      2  C   UNL     1       9.853  -0.137  -1.182  1.00  0.00     0.303 C 
ATOM      3  O   UNL     1       9.702  -1.378  -1.082  1.00  0.00    -0.252 OA
BRANCH   2   4
ATOM      4  O   UNL     1      11.045   0.442  -0.790  1.00  0.00    -0.481 OA
ATOM      5  H   UNL     1      11.121   1.414  -0.437  1.00  0.00     0.296 HD
ENDBRANCH   2   4
ENDBRANCH   1   2
BRANCH   1   6
ATOM      6  C   UNL     1       7.486  -0.183  -1.642  1.00  0.00     0.047 C 
BRANCH   6   7
ATOM      7  C   UNL     1       6.641   0.176  -0.489  1.00  0.00    -0.047 A 
ATOM      8  C   UNL     1       6.560  -0.724   0.566  1.00  0.00     0.004 A 
ATOM      9  C   UNL     1       5.917   1.335  -0.377  1.00  0.00     0.004 A 
ATOM     10  C   UNL     1       5.765  -0.423   1.671  1.00  0.00     0.000 A 
ATOM     11  C   UNL     1       5.122   1.662   0.704  1.00  0.00     0.000 A 
ATOM     12  C   UNL     1       5.060   0.748   1.737  1.00  0.00     0.000 A 
ENDBRANCH   6   7
ENDBRANCH   1   6
TORSDOF 4
ENDMDL
