@<TRIPOS>MOLECULE
/home/cewinharhar/GITHUB/reincatalyze/data/processed/docking_pred/2023-Apr-25-1829_maxeplen10_maxtrainstep200_exh32_gamma099_lrac3e-4_lrcr1e-3/cc4a81c85f0f72a0e9860fd8246284f5ccc1e781_ligand_2.pdbqt
 12 12 0 0 0
SMALL
GASTEIGER

@<TRIPOS>ATOM
      1  C          8.4480   -0.3250   -2.1340 C.3     1  UNL1        0.1270
      2  C          8.6680   -1.6570   -2.7230 C.2     1  UNL1        0.3030
      3  O          9.8180   -2.1550   -2.6810 O.2     1  UNL1       -0.2520
      4  O          7.6380   -2.3620   -3.3150 O.3     1  UNL1       -0.4810
      5  H          7.6730   -3.3820   -3.5000 H       1  UNL1        0.2960
      6  C          6.9480   -0.0560   -2.1810 C.3     1  UNL1        0.0470
      7  C          6.3880    0.2040   -0.8440 C.2     1  UNL1       -0.0470
      8  C          6.5060   -0.7910    0.1190 C.2     1  UNL1        0.0040
      9  C          5.7470    1.3580   -0.4720 C.2     1  UNL1        0.0040
     10  C          5.9820   -0.5840    1.3940 C.2     1  UNL1        0.0000
     11  C          5.2190    1.5930    0.7820 C.2     1  UNL1        0.0000
     12  C          5.3510    0.5860    1.7180 C.2     1  UNL1        0.0000
@<TRIPOS>BOND
     1     5     4    1
     2     4     2    1
     3     2     3    2
     4     2     1    1
     5     6     1    1
     6     6     7    1
     7     7     9    2
     8     7     8    1
     9     9    11    1
    10     8    10    2
    11    11    12    2
    12    10    12    1
