@<TRIPOS>MOLECULE
/home/cewinharhar/GITHUB/reincatalyze/data/processed/docking_pred/2023-Apr-25-1829_maxeplen10_maxtrainstep200_exh32_gamma099_lrac3e-4_lrcr1e-3/cc4a81c85f0f72a0e9860fd8246284f5ccc1e781_ligand_2.pdbqt
 12 12 0 0 0
SMALL
GASTEIGER

@<TRIPOS>ATOM
      1  C          8.7460    0.6730   -1.7200 C.3     1  UNL1        0.1270
      2  C          9.8530   -0.1370   -1.1820 C.2     1  UNL1        0.3030
      3  O          9.7020   -1.3780   -1.0820 O.2     1  UNL1       -0.2520
      4  O         11.0450    0.4420   -0.7900 O.3     1  UNL1       -0.4810
      5  H         11.1210    1.4140   -0.4370 H       1  UNL1        0.2960
      6  C          7.4860   -0.1830   -1.6420 C.3     1  UNL1        0.0470
      7  C          6.6410    0.1760   -0.4890 C.2     1  UNL1       -0.0470
      8  C          6.5600   -0.7240    0.5660 C.2     1  UNL1        0.0040
      9  C          5.9170    1.3350   -0.3770 C.2     1  UNL1        0.0040
     10  C          5.7650   -0.4230    1.6710 C.2     1  UNL1        0.0000
     11  C          5.1220    1.6620    0.7040 C.2     1  UNL1        0.0000
     12  C          5.0600    0.7480    1.7370 C.2     1  UNL1        0.0000
@<TRIPOS>BOND
     1     1     6    1
     2     1     2    1
     3     6     7    1
     4     2     3    2
     5     2     4    1
     6     4     5    1
     7     7     9    2
     8     7     8    1
     9     9    11    1
    10     8    10    2
    11    11    12    2
    12    10    12    1
