@<TRIPOS>MOLECULE
/home/cewinharhar/GITHUB/reincatalyze/data/processed/docking_pred/2023-Apr-25-1829_maxeplen10_maxtrainstep200_exh32_gamma099_lrac3e-4_lrcr1e-3/cc4a81c85f0f72a0e9860fd8246284f5ccc1e781_ligand_2.pdbqt
 12 12 0 0 0
SMALL
GASTEIGER

@<TRIPOS>ATOM
      1  C          8.6520   -0.6440   -1.9820 C.3     1  UNL1        0.1270
      2  C          8.7710   -1.8790   -2.7770 C.2     1  UNL1        0.3030
      3  O          9.9090   -2.3690   -2.9670 O.2     1  UNL1       -0.2520
      4  O          7.6590   -2.5010   -3.3110 O.3     1  UNL1       -0.4810
      5  H          6.7070   -2.4150   -2.9110 H       1  UNL1        0.2960
      6  C          7.2060   -0.1750   -2.0960 C.3     1  UNL1        0.0470
      7  C          6.5770    0.0150   -0.7770 C.2     1  UNL1       -0.0470
      8  C          5.9210    1.2150   -0.5320 C.2     1  UNL1        0.0040
      9  C          6.5930   -0.9040    0.2400 C.2     1  UNL1        0.0040
     10  C          5.3200    1.4350    0.7050 C.2     1  UNL1        0.0000
     11  C          6.0070   -0.7160    1.4760 C.2     1  UNL1        0.0000
     12  C          5.3630    0.4870    1.6900 C.2     1  UNL1        0.0000
@<TRIPOS>BOND
     1     4     5    1
     2     4     2    1
     3     3     2    2
     4     2     1    1
     5     6     1    1
     6     6     7    1
     7     7     8    2
     8     7     9    1
     9     8    10    1
    10     9    11    2
    11    10    12    2
    12    11    12    1
