@<TRIPOS>MOLECULE
/home/cewinharhar/GITHUB/reincatalyze/data/processed/docking_pred/2023-Apr-25-1829_maxeplen10_maxtrainstep200_exh32_gamma099_lrac3e-4_lrcr1e-3/cc4a81c85f0f72a0e9860fd8246284f5ccc1e781_ligand_2.pdbqt
 12 12 0 0 0
SMALL
GASTEIGER

@<TRIPOS>ATOM
      1  C          4.9840    1.8040    0.7110 C.3     1  UNL1        0.1270
      2  C          4.4660    1.1300    1.9140 C.2     1  UNL1        0.3030
      3  O          5.1570    0.2310    2.4500 O.2     1  UNL1       -0.2520
      4  O          3.2420    1.4690    2.4580 O.3     1  UNL1       -0.4810
      5  H          2.4990    1.9660    1.9330 H       1  UNL1        0.2960
      6  C          6.5060    1.7540    0.7900 C.3     1  UNL1        0.0470
      7  C          7.0960    0.9870   -0.3210 C.2     1  UNL1       -0.0470
      8  C          8.4130    1.2550   -0.6740 C.2     1  UNL1        0.0040
      9  C          6.4410    0.0240   -1.0450 C.2     1  UNL1        0.0040
     10  C          9.0030    0.5540   -1.7240 C.2     1  UNL1        0.0000
     11  C          6.9980   -0.6880   -2.0880 C.2     1  UNL1        0.0000
     12  C          8.3080   -0.3990   -2.4170 C.2     1  UNL1        0.0000
@<TRIPOS>BOND
     1    12    11    2
     2    12    10    1
     3    11     9    1
     4    10     8    2
     5     9     7    2
     6     8     7    1
     7     7     6    1
     8     1     6    1
     9     1     2    1
    10     2     3    2
    11     2     4    1
    12     5     4    1
