@<TRIPOS>MOLECULE
/home/cewinharhar/GITHUB/reincatalyze/data/processed/docking_pred/2023-Apr-25-1829_maxeplen10_maxtrainstep200_exh32_gamma099_lrac3e-4_lrcr1e-3/cdc825ac9d1cfd0e1f917a20457d8153cb4f8d56_ligand_2.pdbqt
 12 12 0 0 0
SMALL
GASTEIGER

@<TRIPOS>ATOM
      1  C          8.4600   -0.6210   -2.1570 C.3     1  UNL1        0.1270
      2  C          8.4610   -1.8950   -2.8980 C.2     1  UNL1        0.3030
      3  O          9.5500   -2.4880   -3.0800 O.2     1  UNL1       -0.2520
      4  O          7.2910   -2.4420   -3.3900 O.3     1  UNL1       -0.4810
      5  H          6.3720   -1.9650   -3.3440 H       1  UNL1        0.2960
      6  C          7.0290   -0.0970   -2.1680 C.3     1  UNL1        0.0470
      7  C          6.4620   -0.0010   -0.8120 C.2     1  UNL1       -0.0470
      8  C          5.8260    1.1810   -0.4510 C.2     1  UNL1        0.0040
      9  C          6.5170   -0.9920    0.1340 C.2     1  UNL1        0.0040
     10  C          5.2820    1.3120    0.8250 C.2     1  UNL1        0.0000
     11  C          5.9890   -0.8920    1.4060 C.2     1  UNL1        0.0000
     12  C          5.3630    0.2940    1.7360 C.2     1  UNL1        0.0000
@<TRIPOS>BOND
     1     4     5    1
     2     4     2    1
     3     3     2    2
     4     2     1    1
     5     6     1    1
     6     6     7    1
     7     7     8    2
     8     7     9    1
     9     8    10    1
    10     9    11    2
    11    10    12    2
    12    11    12    1
