@<TRIPOS>MOLECULE
/home/cewinharhar/GITHUB/reincatalyze/data/processed/docking_pred/2023-Apr-25-1829_maxeplen10_maxtrainstep200_exh32_gamma099_lrac3e-4_lrcr1e-3/cdc825ac9d1cfd0e1f917a20457d8153cb4f8d56_ligand_2.pdbqt
 12 12 0 0 0
SMALL
GASTEIGER

@<TRIPOS>ATOM
      1  C          4.9680    1.7190    0.7080 C.3     1  UNL1        0.1270
      2  C          4.4430    1.0810    1.9290 C.2     1  UNL1        0.3030
      3  O          5.1190    0.1800    2.4790 O.2     1  UNL1       -0.2520
      4  O          3.2310    1.4580    2.4730 O.3     1  UNL1       -0.4810
      5  H          2.3360    0.9780    2.2660 H       1  UNL1        0.2960
      6  C          6.4880    1.7330    0.8280 C.3     1  UNL1        0.0470
      7  C          7.1390    1.0150   -0.2820 C.2     1  UNL1       -0.0470
      8  C          6.3900    0.0800   -0.9850 C.2     1  UNL1        0.0040
      9  C          8.4400    1.1930   -0.6760 C.2     1  UNL1        0.0040
     10  C          6.9730   -0.6240   -2.0370 C.2     1  UNL1        0.0000
     11  C          9.0460    0.5120   -1.7130 C.2     1  UNL1        0.0000
     12  C          8.2770   -0.4120   -2.3930 C.2     1  UNL1        0.0000
@<TRIPOS>BOND
     1    12    10    2
     2    12    11    1
     3    10     8    1
     4    11     9    2
     5     8     7    2
     6     9     7    1
     7     7     6    1
     8     1     6    1
     9     1     2    1
    10     2     4    1
    11     2     3    2
    12     5     4    1
