@<TRIPOS>MOLECULE
/home/cewinharhar/GITHUB/reincatalyze/data/processed/docking_pred/2023-Apr-25-1829_maxeplen10_maxtrainstep200_exh32_gamma099_lrac3e-4_lrcr1e-3/cdc825ac9d1cfd0e1f917a20457d8153cb4f8d56_ligand_2.pdbqt
 12 12 0 0 0
SMALL
GASTEIGER

@<TRIPOS>ATOM
      1  C          8.2110   -0.9370   -1.8610 C.3     1  UNL1        0.1270
      2  C          8.3640   -2.0110   -2.8580 C.2     1  UNL1        0.3030
      3  O          9.5110   -2.4610   -3.0920 O.2     1  UNL1       -0.2520
      4  O          7.2750   -2.5260   -3.5340 O.3     1  UNL1       -0.4810
      5  H          6.3540   -2.0530   -3.5810 H       1  UNL1        0.2960
      6  C          7.3360   -1.4880   -0.7410 C.3     1  UNL1        0.0470
      7  C          6.5080   -0.4410   -0.1170 C.2     1  UNL1       -0.0470
      8  C          6.2630    0.7190   -0.8420 C.2     1  UNL1        0.0040
      9  C          5.9590   -0.5180    1.1370 C.2     1  UNL1        0.0040
     10  C          5.4900    1.7340   -0.2830 C.2     1  UNL1        0.0000
     11  C          5.1890    0.4700    1.7180 C.2     1  UNL1        0.0000
     12  C          4.9640    1.6120    0.9730 C.2     1  UNL1        0.0000
@<TRIPOS>BOND
     1     5     4    1
     2     4     2    1
     3     3     2    2
     4     2     1    1
     5     1     6    1
     6     8    10    1
     7     8     7    2
     8     6     7    1
     9    10    12    2
    10     7     9    1
    11    12    11    1
    12     9    11    2
