@<TRIPOS>MOLECULE
/home/cewinharhar/GITHUB/reincatalyze/data/processed/docking_pred/2023-Apr-25-1829_maxeplen10_maxtrainstep200_exh32_gamma099_lrac3e-4_lrcr1e-3/cdc825ac9d1cfd0e1f917a20457d8153cb4f8d56_ligand_2.pdbqt
 12 12 0 0 0
SMALL
GASTEIGER

@<TRIPOS>ATOM
      1  C          5.4890    2.8850   -0.0660 C.3     1  UNL1        0.1270
      2  C          6.2270    3.8490    0.7690 C.2     1  UNL1        0.3030
      3  O          6.8600    4.7740    0.2080 O.2     1  UNL1       -0.2520
      4  O          6.2310    3.7530    2.1470 O.3     1  UNL1       -0.4810
      5  H          6.0270    2.8760    2.6610 H       1  UNL1        0.2960
      6  C          4.8820    1.8510    0.8760 C.3     1  UNL1        0.0470
      7  C          5.6500    0.5940    0.8910 C.2     1  UNL1       -0.0470
      8  C          5.7570   -0.0920    2.0950 C.2     1  UNL1        0.0040
      9  C          6.2780    0.0440   -0.1960 C.2     1  UNL1        0.0040
     10  C          6.4810   -1.2820    2.1510 C.2     1  UNL1        0.0000
     11  C          7.0020   -1.1320   -0.1730 C.2     1  UNL1        0.0000
     12  C          7.0920   -1.7900    1.0380 C.2     1  UNL1        0.0000
@<TRIPOS>BOND
     1     9    11    1
     2     9     7    2
     3    11    12    2
     4     1     2    1
     5     1     6    1
     6     3     2    2
     7     2     4    1
     8     6     7    1
     9     7     8    1
    10    12    10    1
    11     8    10    2
    12     4     5    1
