@<TRIPOS>MOLECULE
/home/cewinharhar/GITHUB/reincatalyze/data/processed/docking_pred/2023-Apr-25-1829_maxeplen10_maxtrainstep200_exh32_gamma099_lrac3e-4_lrcr1e-3/cdc825ac9d1cfd0e1f917a20457d8153cb4f8d56_ligand_2.pdbqt
 12 12 0 0 0
SMALL
GASTEIGER

@<TRIPOS>ATOM
      1  C          8.4300   -0.6830   -2.0660 C.3     1  UNL1        0.1270
      2  C          8.4630   -1.9140   -2.8740 C.2     1  UNL1        0.3030
      3  O          9.5630   -2.4860   -3.0630 O.2     1  UNL1       -0.2520
      4  O          7.3110   -2.4470   -3.4220 O.3     1  UNL1       -0.4810
      5  H          6.6770   -1.9180   -4.0490 H       1  UNL1        0.2960
      6  C          6.9970   -0.1650   -2.0960 C.3     1  UNL1        0.0470
      7  C          6.4320   -0.0150   -0.7440 C.2     1  UNL1       -0.0470
      8  C          6.5690   -1.0760    0.1430 C.2     1  UNL1        0.0040
      9  C          5.7700    1.0960   -0.2880 C.2     1  UNL1        0.0040
     10  C          6.0420   -0.9740    1.4290 C.2     1  UNL1        0.0000
     11  C          5.2380    1.2270    0.9790 C.2     1  UNL1        0.0000
     12  C          5.3880    0.1560    1.8380 C.2     1  UNL1        0.0000
@<TRIPOS>BOND
     1     5     4    1
     2     4     2    1
     3     3     2    2
     4     2     1    1
     5     6     1    1
     6     6     7    1
     7     7     9    2
     8     7     8    1
     9     9    11    1
    10     8    10    2
    11    11    12    2
    12    10    12    1
