@<TRIPOS>MOLECULE
/home/cewinharhar/GITHUB/reincatalyze/data/processed/docking_pred/2023-Apr-25-1829_maxeplen10_maxtrainstep200_exh32_gamma099_lrac3e-4_lrcr1e-3/cf36f354a35629e8f67fe5763b2daf9f978d0e2b_ligand_2.pdbqt
 12 12 0 0 0
SMALL
GASTEIGER

@<TRIPOS>ATOM
      1  C          8.4330   -0.7480   -2.0080 C.3     1  UNL1        0.1270
      2  C          8.3990   -1.9570   -2.8490 C.2     1  UNL1        0.3030
      3  O          7.2890   -2.3990   -3.2280 O.2     1  UNL1       -0.2520
      4  O          9.5590   -2.6060   -3.2250 O.3     1  UNL1       -0.4810
      5  H          9.6260   -3.6330   -3.3530 H       1  UNL1        0.2960
      6  C          7.0600   -0.0940   -2.1070 C.3     1  UNL1        0.0470
      7  C          6.4640    0.1510   -0.7820 C.2     1  UNL1       -0.0470
      8  C          6.5800   -0.8440    0.1810 C.2     1  UNL1        0.0040
      9  C          5.7930    1.2910   -0.4210 C.2     1  UNL1        0.0040
     10  C          6.0240   -0.6520    1.4440 C.2     1  UNL1        0.0000
     11  C          5.2320    1.5110    0.8210 C.2     1  UNL1        0.0000
     12  C          5.3620    0.5040    1.7570 C.2     1  UNL1        0.0000
@<TRIPOS>BOND
     1     5     4    1
     2     3     2    2
     3     4     2    1
     4     2     1    1
     5     6     1    1
     6     6     7    1
     7     7     9    2
     8     7     8    1
     9     9    11    1
    10     8    10    2
    11    11    12    2
    12    10    12    1
