@<TRIPOS>MOLECULE
/home/cewinharhar/GITHUB/reincatalyze/data/processed/docking_pred/2023-Apr-25-1829_maxeplen10_maxtrainstep200_exh32_gamma099_lrac3e-4_lrcr1e-3/cf36f354a35629e8f67fe5763b2daf9f978d0e2b_ligand_2.pdbqt
 12 12 0 0 0
SMALL
GASTEIGER

@<TRIPOS>ATOM
      1  C          8.2860   -0.8420   -1.9880 C.3     1  UNL1        0.1270
      2  C          8.3860   -2.0040   -2.8890 C.2     1  UNL1        0.3030
      3  O          9.5100   -2.5210   -3.0870 O.2     1  UNL1       -0.2520
      4  O          7.2700   -2.5290   -3.5130 O.3     1  UNL1       -0.4810
      5  H          7.0310   -3.5370   -3.5050 H       1  UNL1        0.2960
      6  C          7.5620   -1.3110   -0.7310 C.3     1  UNL1        0.0470
      7  C          6.6780   -0.2700   -0.1780 C.2     1  UNL1       -0.0470
      8  C          6.2060   -0.4340    1.1190 C.2     1  UNL1        0.0040
      9  C          6.2750    0.8560   -0.8490 C.2     1  UNL1        0.0040
     10  C          5.3620    0.5260    1.6740 C.2     1  UNL1        0.0000
     11  C          5.4410    1.8240   -0.3260 C.2     1  UNL1        0.0000
     12  C          4.9870    1.6330    0.9640 C.2     1  UNL1        0.0000
@<TRIPOS>BOND
     1     4     5    1
     2     4     2    1
     3     3     2    2
     4     2     1    1
     5     1     6    1
     6     9    11    1
     7     9     7    2
     8     6     7    1
     9    11    12    2
    10     7     8    1
    11    12    10    1
    12     8    10    2
