@<TRIPOS>MOLECULE
/home/cewinharhar/GITHUB/reincatalyze/data/processed/docking_pred/2023-Apr-25-1829_maxeplen10_maxtrainstep200_exh32_gamma099_lrac3e-4_lrcr1e-3/cf36f354a35629e8f67fe5763b2daf9f978d0e2b_ligand_2.pdbqt
 12 12 0 0 0
SMALL
GASTEIGER

@<TRIPOS>ATOM
      1  C          8.4530   -0.6480   -2.1060 C.3     1  UNL1        0.1270
      2  C          8.4130   -1.9060   -2.8730 C.2     1  UNL1        0.3030
      3  O          7.2990   -2.3810   -3.1990 O.2     1  UNL1       -0.2520
      4  O          9.5720   -2.5640   -3.2380 O.3     1  UNL1       -0.4810
      5  H          9.6760   -3.5950   -3.2170 H       1  UNL1        0.2960
      6  C          7.0390   -0.0780   -2.1070 C.3     1  UNL1        0.0470
      7  C          6.4850    0.0350   -0.7460 C.2     1  UNL1       -0.0470
      8  C          5.8420    1.2170   -0.3980 C.2     1  UNL1        0.0040
      9  C          6.5580   -0.9400    0.2150 C.2     1  UNL1        0.0040
     10  C          5.3100    1.3640    0.8820 C.2     1  UNL1        0.0000
     11  C          6.0410   -0.8250    1.4900 C.2     1  UNL1        0.0000
     12  C          5.4090    0.3610    1.8070 C.2     1  UNL1        0.0000
@<TRIPOS>BOND
     1     4     5    1
     2     4     2    1
     3     3     2    2
     4     2     1    1
     5     6     1    1
     6     6     7    1
     7     7     8    2
     8     7     9    1
     9     8    10    1
    10     9    11    2
    11    10    12    2
    12    11    12    1
