@<TRIPOS>MOLECULE
/home/cewinharhar/GITHUB/reincatalyze/data/processed/docking_pred/2023-Apr-25-1829_maxeplen10_maxtrainstep200_exh32_gamma099_lrac3e-4_lrcr1e-3/cf36f354a35629e8f67fe5763b2daf9f978d0e2b_ligand_2.pdbqt
 12 12 0 0 0
SMALL
GASTEIGER

@<TRIPOS>ATOM
      1  C          8.1660    0.2630   -2.1450 C.3     1  UNL1        0.1270
      2  C          9.3330    0.3610   -1.2510 C.2     1  UNL1        0.3030
      3  O          9.4190   -0.4260   -0.2790 O.2     1  UNL1       -0.2520
      4  O         10.3270    1.2960   -1.4650 O.3     1  UNL1       -0.4810
      5  H         10.7990    1.8160   -0.7020 H       1  UNL1        0.2960
      6  C          7.1280   -0.5980   -1.4340 C.3     1  UNL1        0.0470
      7  C          6.3380    0.1740   -0.4590 C.2     1  UNL1       -0.0470
      8  C          6.1290   -0.3790    0.7980 C.2     1  UNL1        0.0040
      9  C          5.7820    1.4050   -0.6990 C.2     1  UNL1        0.0040
     10  C          5.3810    0.3190    1.7450 C.2     1  UNL1        0.0000
     11  C          5.0370    2.1200    0.2180 C.2     1  UNL1        0.0000
     12  C          4.8460    1.5450    1.4590 C.2     1  UNL1        0.0000
@<TRIPOS>BOND
     1     1     6    1
     2     1     2    1
     3     4     2    1
     4     4     5    1
     5     6     7    1
     6     2     3    2
     7     9     7    2
     8     9    11    1
     9     7     8    1
    10    11    12    2
    11     8    10    2
    12    12    10    1
