@<TRIPOS>MOLECULE
/home/cewinharhar/GITHUB/reincatalyze/data/processed/docking_pred/2023-Apr-25-1829_maxeplen10_maxtrainstep200_exh32_gamma099_lrac3e-4_lrcr1e-3/cf36f354a35629e8f67fe5763b2daf9f978d0e2b_ligand_2.pdbqt
 12 12 0 0 0
SMALL
GASTEIGER

@<TRIPOS>ATOM
      1  C          4.9940    1.7900    0.6720 C.3     1  UNL1        0.1270
      2  C          4.4940    1.1370    1.8940 C.2     1  UNL1        0.3030
      3  O          5.2040    0.2640    2.4480 O.2     1  UNL1       -0.2520
      4  O          3.2680    1.4680    2.4370 O.3     1  UNL1       -0.4810
      5  H          2.4720    0.8060    2.5010 H       1  UNL1        0.2960
      6  C          6.5170    1.7720    0.7450 C.3     1  UNL1        0.0470
      7  C          7.1160    0.9830   -0.3470 C.2     1  UNL1       -0.0470
      8  C          8.4540    1.2020   -0.6530 C.2     1  UNL1        0.0040
      9  C          6.4520    0.0460   -1.0950 C.2     1  UNL1        0.0040
     10  C          9.0550    0.4810   -1.6830 C.2     1  UNL1        0.0000
     11  C          7.0180   -0.6850   -2.1200 C.2     1  UNL1        0.0000
     12  C          8.3490   -0.4450   -2.4020 C.2     1  UNL1        0.0000
@<TRIPOS>BOND
     1    12    11    2
     2    12    10    1
     3    11     9    1
     4    10     8    2
     5     9     7    2
     6     8     7    1
     7     7     6    1
     8     1     6    1
     9     1     2    1
    10     2     4    1
    11     2     3    2
    12     4     5    1
