MODEL 1
REMARK VINA RESULT:      -7.2      0.000      0.000
REMARK SMILES O=C(O)CCc1ccccc1
REMARK SMILES IDX 4 1 2 2 1 3 3 4 5 6 6 7 7 8 11 9 8 10 10 11 9 12
REMARK H PARENT 3 5
REMARK Flexibility Score: inf
ROOT
ATOM      1  C   UNL     1       8.433  -0.748  -2.008  1.00  0.00     0.127 C 
ENDROOT
BRANCH   1   2
ATOM      2  C   UNL     1       8.399  -1.957  -2.849  1.00  0.00     0.303 C 
ATOM      3  O   UNL     1       7.289  -2.399  -3.228  1.00  0.00    -0.252 OA
BRANCH   2   4
ATOM      4  O   UNL     1       9.559  -2.606  -3.225  1.00  0.00    -0.481 OA
ATOM      5  H   UNL     1       9.626  -3.633  -3.353  1.00  0.00     0.296 HD
ENDBRANCH   2   4
ENDBRANCH   1   2
BRANCH   1   6
ATOM      6  C   UNL     1       7.060  -0.094  -2.107  1.00  0.00     0.047 C 
BRANCH   6   7
ATOM      7  C   UNL     1       6.464   0.151  -0.782  1.00  0.00    -0.047 A 
ATOM      8  C   UNL     1       6.580  -0.844   0.181  1.00  0.00     0.004 A 
ATOM      9  C   UNL     1       5.793   1.291  -0.421  1.00  0.00     0.004 A 
ATOM     10  C   UNL     1       6.024  -0.652   1.444  1.00  0.00     0.000 A 
ATOM     11  C   UNL     1       5.232   1.511   0.821  1.00  0.00     0.000 A 
ATOM     12  C   UNL     1       5.362   0.504   1.757  1.00  0.00     0.000 A 
ENDBRANCH   6   7
ENDBRANCH   1   6
TORSDOF 4
ENDMDL
MODEL 2
REMARK VINA RESULT:      -7.2      0.117      1.434
REMARK SMILES O=C(O)CCc1ccccc1
REMARK SMILES IDX 4 1 2 2 1 3 3 4 5 6 6 7 7 8 11 9 8 10 10 11 9 12
REMARK H PARENT 3 5
REMARK Flexibility Score: inf
ROOT
ATOM      1  C   UNL     1       8.453  -0.648  -2.106  1.00  0.00     0.127 C 
ENDROOT
BRANCH   1   2
ATOM      2  C   UNL     1       8.413  -1.906  -2.873  1.00  0.00     0.303 C 
ATOM      3  O   UNL     1       7.299  -2.381  -3.199  1.00  0.00    -0.252 OA
BRANCH   2   4
ATOM      4  O   UNL     1       9.572  -2.564  -3.238  1.00  0.00    -0.481 OA
ATOM      5  H   UNL     1       9.676  -3.595  -3.217  1.00  0.00     0.296 HD
ENDBRANCH   2   4
ENDBRANCH   1   2
BRANCH   1   6
ATOM      6  C   UNL     1       7.039  -0.078  -2.107  1.00  0.00     0.047 C 
BRANCH   6   7
ATOM      7  C   UNL     1       6.485   0.035  -0.746  1.00  0.00    -0.047 A 
ATOM      8  C   UNL     1       5.842   1.217  -0.398  1.00  0.00     0.004 A 
ATOM      9  C   UNL     1       6.558  -0.940   0.215  1.00  0.00     0.004 A 
ATOM     10  C   UNL     1       5.310   1.364   0.882  1.00  0.00     0.000 A 
ATOM     11  C   UNL     1       6.041  -0.825   1.490  1.00  0.00     0.000 A 
ATOM     12  C   UNL     1       5.409   0.361   1.807  1.00  0.00     0.000 A 
ENDBRANCH   6   7
ENDBRANCH   1   6
TORSDOF 4
ENDMDL
MODEL 3
REMARK VINA RESULT:      -7.2      0.599      1.405
REMARK SMILES O=C(O)CCc1ccccc1
REMARK SMILES IDX 4 1 2 2 1 3 3 4 5 6 6 7 7 8 11 9 8 10 10 11 9 12
REMARK H PARENT 3 5
REMARK Flexibility Score: inf
ROOT
ATOM      1  C   UNL     1       8.286  -0.842  -1.988  1.00  0.00     0.127 C 
ENDROOT
BRANCH   1   2
ATOM      2  C   UNL     1       8.386  -2.004  -2.889  1.00  0.00     0.303 C 
ATOM      3  O   UNL     1       9.510  -2.521  -3.087  1.00  0.00    -0.252 OA
BRANCH   2   4
ATOM      4  O   UNL     1       7.270  -2.529  -3.513  1.00  0.00    -0.481 OA
ATOM      5  H   UNL     1       7.031  -3.537  -3.505  1.00  0.00     0.296 HD
ENDBRANCH   2   4
ENDBRANCH   1   2
BRANCH   1   6
ATOM      6  C   UNL     1       7.562  -1.311  -0.731  1.00  0.00     0.047 C 
BRANCH   6   7
ATOM      7  C   UNL     1       6.678  -0.270  -0.178  1.00  0.00    -0.047 A 
ATOM      8  C   UNL     1       6.206  -0.434   1.119  1.00  0.00     0.004 A 
ATOM      9  C   UNL     1       6.275   0.856  -0.849  1.00  0.00     0.004 A 
ATOM     10  C   UNL     1       5.362   0.526   1.674  1.00  0.00     0.000 A 
ATOM     11  C   UNL     1       5.441   1.824  -0.326  1.00  0.00     0.000 A 
ATOM     12  C   UNL     1       4.987   1.633   0.964  1.00  0.00     0.000 A 
ENDBRANCH   6   7
ENDBRANCH   1   6
TORSDOF 4
ENDMDL
MODEL 4
REMARK VINA RESULT:      -6.7      3.289      5.159
REMARK SMILES O=C(O)CCc1ccccc1
REMARK SMILES IDX 4 1 2 2 1 3 3 4 5 6 6 7 7 8 11 9 8 10 10 11 9 12
REMARK H PARENT 3 5
REMARK Flexibility Score: inf
ROOT
ATOM      1  C   UNL     1       4.994   1.790   0.672  1.00  0.00     0.127 C 
ENDROOT
BRANCH   1   2
ATOM      2  C   UNL     1       4.494   1.137   1.894  1.00  0.00     0.303 C 
ATOM      3  O   UNL     1       5.204   0.264   2.448  1.00  0.00    -0.252 OA
BRANCH   2   4
ATOM      4  O   UNL     1       3.268   1.468   2.437  1.00  0.00    -0.481 OA
ATOM      5  H   UNL     1       2.472   0.806   2.501  1.00  0.00     0.296 HD
ENDBRANCH   2   4
ENDBRANCH   1   2
BRANCH   1   6
ATOM      6  C   UNL     1       6.517   1.772   0.745  1.00  0.00     0.047 C 
BRANCH   6   7
ATOM      7  C   UNL     1       7.116   0.983  -0.347  1.00  0.00    -0.047 A 
ATOM      8  C   UNL     1       8.454   1.202  -0.653  1.00  0.00     0.004 A 
ATOM      9  C   UNL     1       6.452   0.046  -1.095  1.00  0.00     0.004 A 
ATOM     10  C   UNL     1       9.055   0.481  -1.683  1.00  0.00     0.000 A 
ATOM     11  C   UNL     1       7.018  -0.685  -2.120  1.00  0.00     0.000 A 
ATOM     12  C   UNL     1       8.349  -0.445  -2.402  1.00  0.00     0.000 A 
ENDBRANCH   6   7
ENDBRANCH   1   6
TORSDOF 4
ENDMDL
MODEL 5
REMARK VINA RESULT:      -6.6      1.906      2.160
REMARK SMILES O=C(O)CCc1ccccc1
REMARK SMILES IDX 4 1 2 2 1 3 3 4 5 6 6 7 7 8 11 9 8 10 10 11 9 12
REMARK H PARENT 3 5
REMARK Flexibility Score: inf
ROOT
ATOM      1  C   UNL     1       8.166   0.263  -2.145  1.00  0.00     0.127 C 
ENDROOT
BRANCH   1   2
ATOM      2  C   UNL     1       9.333   0.361  -1.251  1.00  0.00     0.303 C 
ATOM      3  O   UNL     1       9.419  -0.426  -0.279  1.00  0.00    -0.252 OA
BRANCH   2   4
ATOM      4  O   UNL     1      10.327   1.296  -1.465  1.00  0.00    -0.481 OA
ATOM      5  H   UNL     1      10.799   1.816  -0.702  1.00  0.00     0.296 HD
ENDBRANCH   2   4
ENDBRANCH   1   2
BRANCH   1   6
ATOM      6  C   UNL     1       7.128  -0.598  -1.434  1.00  0.00     0.047 C 
BRANCH   6   7
ATOM      7  C   UNL     1       6.338   0.174  -0.459  1.00  0.00    -0.047 A 
ATOM      8  C   UNL     1       6.129  -0.379   0.798  1.00  0.00     0.004 A 
ATOM      9  C   UNL     1       5.782   1.405  -0.699  1.00  0.00     0.004 A 
ATOM     10  C   UNL     1       5.381   0.319   1.745  1.00  0.00     0.000 A 
ATOM     11  C   UNL     1       5.037   2.120   0.218  1.00  0.00     0.000 A 
ATOM     12  C   UNL     1       4.846   1.545   1.459  1.00  0.00     0.000 A 
ENDBRANCH   6   7
ENDBRANCH   1   6
TORSDOF 4
ENDMDL
