MODEL 1
REMARK VINA RESULT:      -7.3      0.000      0.000
REMARK SMILES O=C(O)CCc1ccccc1
REMARK SMILES IDX 4 1 2 2 1 3 3 4 5 6 6 7 7 8 11 9 8 10 10 11 9 12
REMARK H PARENT 3 5
REMARK Flexibility Score: inf
ROOT
ATOM      1  C   UNL     1       8.479  -0.678  -2.092  1.00  0.00     0.127 C 
ENDROOT
BRANCH   1   2
ATOM      2  C   UNL     1       8.467  -1.919  -2.887  1.00  0.00     0.303 C 
ATOM      3  O   UNL     1       9.548  -2.525  -3.077  1.00  0.00    -0.252 OA
BRANCH   2   4
ATOM      4  O   UNL     1       7.296  -2.422  -3.420  1.00  0.00    -0.481 OA
ATOM      5  H   UNL     1       6.472  -1.835  -3.648  1.00  0.00     0.296 HD
ENDBRANCH   2   4
ENDBRANCH   1   2
BRANCH   1   6
ATOM      6  C   UNL     1       7.076  -0.086  -2.165  1.00  0.00     0.047 C 
BRANCH   6   7
ATOM      7  C   UNL     1       6.490   0.122  -0.829  1.00  0.00    -0.047 A 
ATOM      8  C   UNL     1       6.612  -0.899   0.105  1.00  0.00     0.004 A 
ATOM      9  C   UNL     1       5.823   1.253  -0.432  1.00  0.00     0.004 A 
ATOM     10  C   UNL     1       6.066  -0.742   1.377  1.00  0.00     0.000 A 
ATOM     11  C   UNL     1       5.272   1.439   0.820  1.00  0.00     0.000 A 
ATOM     12  C   UNL     1       5.408   0.406   1.727  1.00  0.00     0.000 A 
ENDBRANCH   6   7
ENDBRANCH   1   6
TORSDOF 4
ENDMDL
MODEL 2
REMARK VINA RESULT:      -7.3      0.119      1.729
REMARK SMILES O=C(O)CCc1ccccc1
REMARK SMILES IDX 4 1 2 2 1 3 3 4 5 6 6 7 7 8 11 9 8 10 10 11 9 12
REMARK H PARENT 3 5
REMARK Flexibility Score: inf
ROOT
ATOM      1  C   UNL     1       8.442  -0.672  -2.103  1.00  0.00     0.127 C 
ENDROOT
BRANCH   1   2
ATOM      2  C   UNL     1       8.411  -1.932  -2.866  1.00  0.00     0.303 C 
ATOM      3  O   UNL     1       7.302  -2.404  -3.211  1.00  0.00    -0.252 OA
BRANCH   2   4
ATOM      4  O   UNL     1       9.575  -2.596  -3.206  1.00  0.00    -0.481 OA
ATOM      5  H   UNL     1      10.263  -2.232  -3.891  1.00  0.00     0.296 HD
ENDBRANCH   2   4
ENDBRANCH   1   2
BRANCH   1   6
ATOM      6  C   UNL     1       7.024  -0.111  -2.108  1.00  0.00     0.047 C 
BRANCH   6   7
ATOM      7  C   UNL     1       6.472   0.017  -0.748  1.00  0.00    -0.047 A 
ATOM      8  C   UNL     1       5.816   1.197  -0.417  1.00  0.00     0.004 A 
ATOM      9  C   UNL     1       6.560  -0.941   0.229  1.00  0.00     0.004 A 
ATOM     10  C   UNL     1       5.286   1.358   0.862  1.00  0.00     0.000 A 
ATOM     11  C   UNL     1       6.046  -0.811   1.503  1.00  0.00     0.000 A 
ATOM     12  C   UNL     1       5.400   0.372   1.803  1.00  0.00     0.000 A 
ENDBRANCH   6   7
ENDBRANCH   1   6
TORSDOF 4
ENDMDL
MODEL 3
REMARK VINA RESULT:      -6.8      3.375      5.084
REMARK SMILES O=C(O)CCc1ccccc1
REMARK SMILES IDX 4 1 2 2 1 3 3 4 5 6 6 7 7 8 11 9 8 10 10 11 9 12
REMARK H PARENT 3 5
REMARK Flexibility Score: inf
ROOT
ATOM      1  C   UNL     1       4.975   1.800   0.714  1.00  0.00     0.127 C 
ENDROOT
BRANCH   1   2
ATOM      2  C   UNL     1       4.462   1.125   1.920  1.00  0.00     0.303 C 
ATOM      3  O   UNL     1       5.157   0.228   2.453  1.00  0.00    -0.252 OA
BRANCH   2   4
ATOM      4  O   UNL     1       3.240   1.463   2.468  1.00  0.00    -0.481 OA
ATOM      5  H   UNL     1       2.984   1.278   3.456  1.00  0.00     0.296 HD
ENDBRANCH   2   4
ENDBRANCH   1   2
BRANCH   1   6
ATOM      6  C   UNL     1       6.495   1.830   0.831  1.00  0.00     0.047 C 
BRANCH   6   7
ATOM      7  C   UNL     1       7.152   1.132  -0.288  1.00  0.00    -0.047 A 
ATOM      8  C   UNL     1       6.369   0.330  -1.109  1.00  0.00     0.004 A 
ATOM      9  C   UNL     1       8.489   1.207  -0.584  1.00  0.00     0.004 A 
ATOM     10  C   UNL     1       6.955  -0.351  -2.174  1.00  0.00     0.000 A 
ATOM     11  C   UNL     1       9.099   0.545  -1.631  1.00  0.00     0.000 A 
ATOM     12  C   UNL     1       8.295  -0.245  -2.429  1.00  0.00     0.000 A 
ENDBRANCH   6   7
ENDBRANCH   1   6
TORSDOF 4
ENDMDL
MODEL 4
REMARK VINA RESULT:      -6.6      1.895      2.288
REMARK SMILES O=C(O)CCc1ccccc1
REMARK SMILES IDX 4 1 2 2 1 3 3 4 5 6 6 7 7 8 11 9 8 10 10 11 9 12
REMARK H PARENT 3 5
REMARK Flexibility Score: inf
ROOT
ATOM      1  C   UNL     1       8.245   0.241  -2.260  1.00  0.00     0.127 C 
ENDROOT
BRANCH   1   2
ATOM      2  C   UNL     1       9.355   0.346  -1.296  1.00  0.00     0.303 C 
ATOM      3  O   UNL     1       9.391  -0.448  -0.326  1.00  0.00    -0.252 OA
BRANCH   2   4
ATOM      4  O   UNL     1      10.348   1.295  -1.443  1.00  0.00    -0.481 OA
ATOM      5  H   UNL     1      10.170   2.316  -1.443  1.00  0.00     0.296 HD
ENDBRANCH   2   4
ENDBRANCH   1   2
BRANCH   1   6
ATOM      6  C   UNL     1       7.124  -0.528  -1.570  1.00  0.00     0.047 C 
BRANCH   6   7
ATOM      7  C   UNL     1       6.336   0.329  -0.666  1.00  0.00    -0.047 A 
ATOM      8  C   UNL     1       6.115  -0.119   0.630  1.00  0.00     0.004 A 
ATOM      9  C   UNL     1       5.795   1.542  -1.007  1.00  0.00     0.004 A 
ATOM     10  C   UNL     1       5.369   0.661   1.513  1.00  0.00     0.000 A 
ATOM     11  C   UNL     1       5.053   2.337  -0.157  1.00  0.00     0.000 A 
ATOM     12  C   UNL     1       4.848   1.865   1.125  1.00  0.00     0.000 A 
ENDBRANCH   6   7
ENDBRANCH   1   6
TORSDOF 4
ENDMDL
MODEL 5
REMARK VINA RESULT:      -6.6      3.826      4.961
REMARK SMILES O=C(O)CCc1ccccc1
REMARK SMILES IDX 4 1 2 2 1 3 3 4 5 6 6 7 7 8 11 9 8 10 10 11 9 12
REMARK H PARENT 3 5
REMARK Flexibility Score: inf
ROOT
ATOM      1  C   UNL     1       5.671   3.104  -0.090  1.00  0.00     0.127 C 
ENDROOT
BRANCH   1   2
ATOM      2  C   UNL     1       6.378   4.003   0.838  1.00  0.00     0.303 C 
ATOM      3  O   UNL     1       7.255   4.774   0.384  1.00  0.00    -0.252 OA
BRANCH   2   4
ATOM      4  O   UNL     1       6.090   4.013   2.190  1.00  0.00    -0.481 OA
ATOM      5  H   UNL     1       6.693   3.569   2.907  1.00  0.00     0.296 HD
ENDBRANCH   2   4
ENDBRANCH   1   2
BRANCH   1   6
ATOM      6  C   UNL     1       4.934   2.073   0.757  1.00  0.00     0.047 C 
BRANCH   6   7
ATOM      7  C   UNL     1       5.646   0.784   0.808  1.00  0.00    -0.047 A 
ATOM      8  C   UNL     1       5.678   0.103   2.019  1.00  0.00     0.004 A 
ATOM      9  C   UNL     1       6.289   0.200  -0.252  1.00  0.00     0.004 A 
ATOM     10  C   UNL     1       6.347  -1.117   2.108  1.00  0.00     0.000 A 
ATOM     11  C   UNL     1       6.960  -1.006  -0.196  1.00  0.00     0.000 A 
ATOM     12  C   UNL     1       6.976  -1.659   1.021  1.00  0.00     0.000 A 
ENDBRANCH   6   7
ENDBRANCH   1   6
TORSDOF 4
ENDMDL
