@<TRIPOS>MOLECULE
/home/cewinharhar/GITHUB/reincatalyze/data/processed/docking_pred/2023-Apr-25-1829_maxeplen10_maxtrainstep200_exh32_gamma099_lrac3e-4_lrcr1e-3/d0b377ce7413ba2d0a06352180e6db5bf746794c_ligand_2.pdbqt
 12 12 0 0 0
SMALL
GASTEIGER

@<TRIPOS>ATOM
      1  C          4.9750    1.8000    0.7140 C.3     1  UNL1        0.1270
      2  C          4.4620    1.1250    1.9200 C.2     1  UNL1        0.3030
      3  O          5.1570    0.2280    2.4530 O.2     1  UNL1       -0.2520
      4  O          3.2400    1.4630    2.4680 O.3     1  UNL1       -0.4810
      5  H          2.9840    1.2780    3.4560 H       1  UNL1        0.2960
      6  C          6.4950    1.8300    0.8310 C.3     1  UNL1        0.0470
      7  C          7.1520    1.1320   -0.2880 C.2     1  UNL1       -0.0470
      8  C          6.3690    0.3300   -1.1090 C.2     1  UNL1        0.0040
      9  C          8.4890    1.2070   -0.5840 C.2     1  UNL1        0.0040
     10  C          6.9550   -0.3510   -2.1740 C.2     1  UNL1        0.0000
     11  C          9.0990    0.5450   -1.6310 C.2     1  UNL1        0.0000
     12  C          8.2950   -0.2450   -2.4290 C.2     1  UNL1        0.0000
@<TRIPOS>BOND
     1    12    10    2
     2    12    11    1
     3    10     8    1
     4    11     9    2
     5     8     7    2
     6     9     7    1
     7     7     6    1
     8     1     6    1
     9     1     2    1
    10     2     3    2
    11     2     4    1
    12     4     5    1
