@<TRIPOS>MOLECULE
/home/cewinharhar/GITHUB/reincatalyze/data/processed/docking_pred/2023-Apr-25-1829_maxeplen10_maxtrainstep200_exh32_gamma099_lrac3e-4_lrcr1e-3/d0b377ce7413ba2d0a06352180e6db5bf746794c_ligand_2.pdbqt
 12 12 0 0 0
SMALL
GASTEIGER

@<TRIPOS>ATOM
      1  C          8.4790   -0.6780   -2.0920 C.3     1  UNL1        0.1270
      2  C          8.4670   -1.9190   -2.8870 C.2     1  UNL1        0.3030
      3  O          9.5480   -2.5250   -3.0770 O.2     1  UNL1       -0.2520
      4  O          7.2960   -2.4220   -3.4200 O.3     1  UNL1       -0.4810
      5  H          6.4720   -1.8350   -3.6480 H       1  UNL1        0.2960
      6  C          7.0760   -0.0860   -2.1650 C.3     1  UNL1        0.0470
      7  C          6.4900    0.1220   -0.8290 C.2     1  UNL1       -0.0470
      8  C          6.6120   -0.8990    0.1050 C.2     1  UNL1        0.0040
      9  C          5.8230    1.2530   -0.4320 C.2     1  UNL1        0.0040
     10  C          6.0660   -0.7420    1.3770 C.2     1  UNL1        0.0000
     11  C          5.2720    1.4390    0.8200 C.2     1  UNL1        0.0000
     12  C          5.4080    0.4060    1.7270 C.2     1  UNL1        0.0000
@<TRIPOS>BOND
     1     5     4    1
     2     4     2    1
     3     3     2    2
     4     2     1    1
     5     6     1    1
     6     6     7    1
     7     7     9    2
     8     7     8    1
     9     9    11    1
    10     8    10    2
    11    11    12    2
    12    10    12    1
