@<TRIPOS>MOLECULE
/home/cewinharhar/GITHUB/reincatalyze/data/processed/docking_pred/2023-Apr-25-1829_maxeplen10_maxtrainstep200_exh32_gamma099_lrac3e-4_lrcr1e-3/d0b377ce7413ba2d0a06352180e6db5bf746794c_ligand_2.pdbqt
 12 12 0 0 0
SMALL
GASTEIGER

@<TRIPOS>ATOM
      1  C          8.4420   -0.6720   -2.1030 C.3     1  UNL1        0.1270
      2  C          8.4110   -1.9320   -2.8660 C.2     1  UNL1        0.3030
      3  O          7.3020   -2.4040   -3.2110 O.2     1  UNL1       -0.2520
      4  O          9.5750   -2.5960   -3.2060 O.3     1  UNL1       -0.4810
      5  H         10.2630   -2.2320   -3.8910 H       1  UNL1        0.2960
      6  C          7.0240   -0.1110   -2.1080 C.3     1  UNL1        0.0470
      7  C          6.4720    0.0170   -0.7480 C.2     1  UNL1       -0.0470
      8  C          5.8160    1.1970   -0.4170 C.2     1  UNL1        0.0040
      9  C          6.5600   -0.9410    0.2290 C.2     1  UNL1        0.0040
     10  C          5.2860    1.3580    0.8620 C.2     1  UNL1        0.0000
     11  C          6.0460   -0.8110    1.5030 C.2     1  UNL1        0.0000
     12  C          5.4000    0.3720    1.8030 C.2     1  UNL1        0.0000
@<TRIPOS>BOND
     1     5     4    1
     2     3     2    2
     3     4     2    1
     4     2     1    1
     5     6     1    1
     6     6     7    1
     7     7     8    2
     8     7     9    1
     9     8    10    1
    10     9    11    2
    11    10    12    2
    12    11    12    1
