@<TRIPOS>MOLECULE
/home/cewinharhar/GITHUB/reincatalyze/data/processed/docking_pred/2023-Apr-25-1829_maxeplen10_maxtrainstep200_exh32_gamma099_lrac3e-4_lrcr1e-3/d0b377ce7413ba2d0a06352180e6db5bf746794c_ligand_2.pdbqt
 12 12 0 0 0
SMALL
GASTEIGER

@<TRIPOS>ATOM
      1  C          8.2450    0.2410   -2.2600 C.3     1  UNL1        0.1270
      2  C          9.3550    0.3460   -1.2960 C.2     1  UNL1        0.3030
      3  O          9.3910   -0.4480   -0.3260 O.2     1  UNL1       -0.2520
      4  O         10.3480    1.2950   -1.4430 O.3     1  UNL1       -0.4810
      5  H         10.1700    2.3160   -1.4430 H       1  UNL1        0.2960
      6  C          7.1240   -0.5280   -1.5700 C.3     1  UNL1        0.0470
      7  C          6.3360    0.3290   -0.6660 C.2     1  UNL1       -0.0470
      8  C          6.1150   -0.1190    0.6300 C.2     1  UNL1        0.0040
      9  C          5.7950    1.5420   -1.0070 C.2     1  UNL1        0.0040
     10  C          5.3690    0.6610    1.5130 C.2     1  UNL1        0.0000
     11  C          5.0530    2.3370   -0.1570 C.2     1  UNL1        0.0000
     12  C          4.8480    1.8650    1.1250 C.2     1  UNL1        0.0000
@<TRIPOS>BOND
     1     1     6    1
     2     1     2    1
     3     6     7    1
     4     4     5    1
     5     4     2    1
     6     2     3    2
     7     9     7    2
     8     9    11    1
     9     7     8    1
    10    11    12    2
    11     8    10    2
    12    12    10    1
