@<TRIPOS>MOLECULE
/home/cewinharhar/GITHUB/reincatalyze/data/processed/docking_pred/2023-Apr-25-1829_maxeplen10_maxtrainstep200_exh32_gamma099_lrac3e-4_lrcr1e-3/d0b377ce7413ba2d0a06352180e6db5bf746794c_ligand_2.pdbqt
 12 12 0 0 0
SMALL
GASTEIGER

@<TRIPOS>ATOM
      1  C          5.6710    3.1040   -0.0900 C.3     1  UNL1        0.1270
      2  C          6.3780    4.0030    0.8380 C.2     1  UNL1        0.3030
      3  O          7.2550    4.7740    0.3840 O.2     1  UNL1       -0.2520
      4  O          6.0900    4.0130    2.1900 O.3     1  UNL1       -0.4810
      5  H          6.6930    3.5690    2.9070 H       1  UNL1        0.2960
      6  C          4.9340    2.0730    0.7570 C.3     1  UNL1        0.0470
      7  C          5.6460    0.7840    0.8080 C.2     1  UNL1       -0.0470
      8  C          5.6780    0.1030    2.0190 C.2     1  UNL1        0.0040
      9  C          6.2890    0.2000   -0.2520 C.2     1  UNL1        0.0040
     10  C          6.3470   -1.1170    2.1080 C.2     1  UNL1        0.0000
     11  C          6.9600   -1.0060   -0.1960 C.2     1  UNL1        0.0000
     12  C          6.9760   -1.6590    1.0210 C.2     1  UNL1        0.0000
@<TRIPOS>BOND
     1     9    11    1
     2     9     7    2
     3    11    12    2
     4     1     6    1
     5     1     2    1
     6     3     2    2
     7     6     7    1
     8     7     8    1
     9     2     4    1
    10    12    10    1
    11     8    10    2
    12     4     5    1
