@<TRIPOS>MOLECULE
/home/cewinharhar/GITHUB/reincatalyze/data/processed/docking_pred/2023-Apr-25-1829_maxeplen10_maxtrainstep200_exh32_gamma099_lrac3e-4_lrcr1e-3/d18fc177cce43baae8a65556dd45e7572e61ad5e_ligand_2.pdbqt
 12 12 0 0 0
SMALL
GASTEIGER

@<TRIPOS>ATOM
      1  C          4.9880    1.7470    0.7140 C.3     1  UNL1        0.1270
      2  C          4.4660    1.1010    1.9310 C.2     1  UNL1        0.3030
      3  O          5.1540    0.2110    2.4860 O.2     1  UNL1       -0.2520
      4  O          3.2440    1.4570    2.4680 O.3     1  UNL1       -0.4810
      5  H          3.0850    1.6060    3.4820 H       1  UNL1        0.2960
      6  C          6.5090    1.7050    0.8000 C.3     1  UNL1        0.0470
      7  C          7.1080    0.9380   -0.3060 C.2     1  UNL1       -0.0470
      8  C          8.4200    1.2220   -0.6640 C.2     1  UNL1        0.0040
      9  C          6.4650   -0.0400   -1.0210 C.2     1  UNL1        0.0040
     10  C          9.0190    0.5220   -1.7100 C.2     1  UNL1        0.0000
     11  C          7.0310   -0.7510   -2.0600 C.2     1  UNL1        0.0000
     12  C          8.3360   -0.4460   -2.3940 C.2     1  UNL1        0.0000
@<TRIPOS>BOND
     1    12    11    2
     2    12    10    1
     3    11     9    1
     4    10     8    2
     5     9     7    2
     6     8     7    1
     7     7     6    1
     8     1     6    1
     9     1     2    1
    10     2     4    1
    11     2     3    2
    12     4     5    1
