MODEL 1
REMARK VINA RESULT:      -7.2      0.000      0.000
REMARK SMILES O=C(O)CCc1ccccc1
REMARK SMILES IDX 4 1 2 2 1 3 3 4 5 6 6 7 7 8 11 9 8 10 10 11 9 12
REMARK H PARENT 3 5
REMARK Flexibility Score: inf
ROOT
ATOM      1  C   UNL     1       8.426  -0.651  -2.124  1.00  0.00     0.127 C 
ENDROOT
BRANCH   1   2
ATOM      2  C   UNL     1       8.391  -1.911  -2.887  1.00  0.00     0.303 C 
ATOM      3  O   UNL     1       7.280  -2.387  -3.218  1.00  0.00    -0.252 OA
BRANCH   2   4
ATOM      4  O   UNL     1       9.552  -2.571  -3.241  1.00  0.00    -0.481 OA
ATOM      5  H   UNL     1      10.068  -3.205  -2.604  1.00  0.00     0.296 HD
ENDBRANCH   2   4
ENDBRANCH   1   2
BRANCH   1   6
ATOM      6  C   UNL     1       7.007  -0.093  -2.115  1.00  0.00     0.047 C 
BRANCH   6   7
ATOM      7  C   UNL     1       6.465   0.024  -0.749  1.00  0.00    -0.047 A 
ATOM      8  C   UNL     1       5.836   1.211  -0.395  1.00  0.00     0.004 A 
ATOM      9  C   UNL     1       6.538  -0.953   0.210  1.00  0.00     0.004 A 
ATOM     10  C   UNL     1       5.316   1.362   0.889  1.00  0.00     0.000 A 
ATOM     11  C   UNL     1       6.032  -0.834   1.490  1.00  0.00     0.000 A 
ATOM     12  C   UNL     1       5.413   0.358   1.813  1.00  0.00     0.000 A 
ENDBRANCH   6   7
ENDBRANCH   1   6
TORSDOF 4
ENDMDL
MODEL 2
REMARK VINA RESULT:      -7.2      0.652      1.877
REMARK SMILES O=C(O)CCc1ccccc1
REMARK SMILES IDX 4 1 2 2 1 3 3 4 5 6 6 7 7 8 11 9 8 10 10 11 9 12
REMARK H PARENT 3 5
REMARK Flexibility Score: inf
ROOT
ATOM      1  C   UNL     1       8.259  -0.914  -1.911  1.00  0.00     0.127 C 
ENDROOT
BRANCH   1   2
ATOM      2  C   UNL     1       8.392  -2.024  -2.871  1.00  0.00     0.303 C 
ATOM      3  O   UNL     1       9.531  -2.498  -3.095  1.00  0.00    -0.252 OA
BRANCH   2   4
ATOM      4  O   UNL     1       7.291  -2.549  -3.521  1.00  0.00    -0.481 OA
ATOM      5  H   UNL     1       6.314  -2.287  -3.296  1.00  0.00     0.296 HD
ENDBRANCH   2   4
ENDBRANCH   1   2
BRANCH   1   6
ATOM      6  C   UNL     1       7.351  -1.400  -0.787  1.00  0.00     0.047 C 
BRANCH   6   7
ATOM      7  C   UNL     1       6.548  -0.307  -0.210  1.00  0.00    -0.047 A 
ATOM      8  C   UNL     1       6.121  -0.434   1.106  1.00  0.00     0.004 A 
ATOM      9  C   UNL     1       6.180   0.834  -0.876  1.00  0.00     0.004 A 
ATOM     10  C   UNL     1       5.354   0.575   1.686  1.00  0.00     0.000 A 
ATOM     11  C   UNL     1       5.423   1.851  -0.330  1.00  0.00     0.000 A 
ATOM     12  C   UNL     1       5.012   1.696   0.979  1.00  0.00     0.000 A 
ENDBRANCH   6   7
ENDBRANCH   1   6
TORSDOF 4
ENDMDL
MODEL 3
REMARK VINA RESULT:      -7.2      0.050      1.429
REMARK SMILES O=C(O)CCc1ccccc1
REMARK SMILES IDX 4 1 2 2 1 3 3 4 5 6 6 7 7 8 11 9 8 10 10 11 9 12
REMARK H PARENT 3 5
REMARK Flexibility Score: inf
ROOT
ATOM      1  C   UNL     1       8.417  -0.674  -2.087  1.00  0.00     0.127 C 
ENDROOT
BRANCH   1   2
ATOM      2  C   UNL     1       8.400  -1.921  -2.871  1.00  0.00     0.303 C 
ATOM      3  O   UNL     1       7.296  -2.404  -3.215  1.00  0.00    -0.252 OA
BRANCH   2   4
ATOM      4  O   UNL     1       9.571  -2.561  -3.231  1.00  0.00    -0.481 OA
ATOM      5  H   UNL     1      10.441  -2.523  -2.668  1.00  0.00     0.296 HD
ENDBRANCH   2   4
ENDBRANCH   1   2
BRANCH   1   6
ATOM      6  C   UNL     1       7.004  -0.104  -2.121  1.00  0.00     0.047 C 
BRANCH   6   7
ATOM      7  C   UNL     1       6.450   0.089  -0.769  1.00  0.00    -0.047 A 
ATOM      8  C   UNL     1       6.581  -0.949   0.146  1.00  0.00     0.004 A 
ATOM      9  C   UNL     1       5.804   1.220  -0.339  1.00  0.00     0.004 A 
ATOM     10  C   UNL     1       6.065  -0.806   1.432  1.00  0.00     0.000 A 
ATOM     11  C   UNL     1       5.282   1.391   0.928  1.00  0.00     0.000 A 
ATOM     12  C   UNL     1       5.427   0.342   1.815  1.00  0.00     0.000 A 
ENDBRANCH   6   7
ENDBRANCH   1   6
TORSDOF 4
ENDMDL
MODEL 4
REMARK VINA RESULT:      -6.8      3.300      5.134
REMARK SMILES O=C(O)CCc1ccccc1
REMARK SMILES IDX 4 1 2 2 1 3 3 4 5 6 6 7 7 8 11 9 8 10 10 11 9 12
REMARK H PARENT 3 5
REMARK Flexibility Score: inf
ROOT
ATOM      1  C   UNL     1       4.988   1.747   0.714  1.00  0.00     0.127 C 
ENDROOT
BRANCH   1   2
ATOM      2  C   UNL     1       4.466   1.101   1.931  1.00  0.00     0.303 C 
ATOM      3  O   UNL     1       5.154   0.211   2.486  1.00  0.00    -0.252 OA
BRANCH   2   4
ATOM      4  O   UNL     1       3.244   1.457   2.468  1.00  0.00    -0.481 OA
ATOM      5  H   UNL     1       3.085   1.606   3.482  1.00  0.00     0.296 HD
ENDBRANCH   2   4
ENDBRANCH   1   2
BRANCH   1   6
ATOM      6  C   UNL     1       6.509   1.705   0.800  1.00  0.00     0.047 C 
BRANCH   6   7
ATOM      7  C   UNL     1       7.108   0.938  -0.306  1.00  0.00    -0.047 A 
ATOM      8  C   UNL     1       8.420   1.222  -0.664  1.00  0.00     0.004 A 
ATOM      9  C   UNL     1       6.465  -0.040  -1.021  1.00  0.00     0.004 A 
ATOM     10  C   UNL     1       9.019   0.522  -1.710  1.00  0.00     0.000 A 
ATOM     11  C   UNL     1       7.031  -0.751  -2.060  1.00  0.00     0.000 A 
ATOM     12  C   UNL     1       8.336  -0.446  -2.394  1.00  0.00     0.000 A 
ENDBRANCH   6   7
ENDBRANCH   1   6
TORSDOF 4
ENDMDL
MODEL 5
REMARK VINA RESULT:      -6.6      1.938      2.612
REMARK SMILES O=C(O)CCc1ccccc1
REMARK SMILES IDX 4 1 2 2 1 3 3 4 5 6 6 7 7 8 11 9 8 10 10 11 9 12
REMARK H PARENT 3 5
REMARK Flexibility Score: inf
ROOT
ATOM      1  C   UNL     1       8.269   0.356  -2.087  1.00  0.00     0.127 C 
ENDROOT
BRANCH   1   2
ATOM      2  C   UNL     1       9.411   0.399  -1.156  1.00  0.00     0.303 C 
ATOM      3  O   UNL     1       9.450  -0.420  -0.208  1.00  0.00    -0.252 OA
BRANCH   2   4
ATOM      4  O   UNL     1      10.432   1.317  -1.311  1.00  0.00    -0.481 OA
ATOM      5  H   UNL     1      10.892   1.514  -2.219  1.00  0.00     0.296 HD
ENDBRANCH   2   4
ENDBRANCH   1   2
BRANCH   1   6
ATOM      6  C   UNL     1       7.194  -0.507  -1.437  1.00  0.00     0.047 C 
BRANCH   6   7
ATOM      7  C   UNL     1       6.373   0.255  -0.479  1.00  0.00    -0.047 A 
ATOM      8  C   UNL     1       6.157  -0.294   0.779  1.00  0.00     0.004 A 
ATOM      9  C   UNL     1       5.795   1.472  -0.734  1.00  0.00     0.004 A 
ATOM     10  C   UNL     1       5.381   0.393   1.710  1.00  0.00     0.000 A 
ATOM     11  C   UNL     1       5.023   2.178   0.167  1.00  0.00     0.000 A 
ATOM     12  C   UNL     1       4.825   1.606   1.409  1.00  0.00     0.000 A 
ENDBRANCH   6   7
ENDBRANCH   1   6
TORSDOF 4
ENDMDL
