@<TRIPOS>MOLECULE
/home/cewinharhar/GITHUB/reincatalyze/data/processed/docking_pred/2023-Apr-25-1829_maxeplen10_maxtrainstep200_exh32_gamma099_lrac3e-4_lrcr1e-3/d18fc177cce43baae8a65556dd45e7572e61ad5e_ligand_2.pdbqt
 12 12 0 0 0
SMALL
GASTEIGER

@<TRIPOS>ATOM
      1  C          8.2590   -0.9140   -1.9110 C.3     1  UNL1        0.1270
      2  C          8.3920   -2.0240   -2.8710 C.2     1  UNL1        0.3030
      3  O          9.5310   -2.4980   -3.0950 O.2     1  UNL1       -0.2520
      4  O          7.2910   -2.5490   -3.5210 O.3     1  UNL1       -0.4810
      5  H          6.3140   -2.2870   -3.2960 H       1  UNL1        0.2960
      6  C          7.3510   -1.4000   -0.7870 C.3     1  UNL1        0.0470
      7  C          6.5480   -0.3070   -0.2100 C.2     1  UNL1       -0.0470
      8  C          6.1210   -0.4340    1.1060 C.2     1  UNL1        0.0040
      9  C          6.1800    0.8340   -0.8760 C.2     1  UNL1        0.0040
     10  C          5.3540    0.5750    1.6860 C.2     1  UNL1        0.0000
     11  C          5.4230    1.8510   -0.3300 C.2     1  UNL1        0.0000
     12  C          5.0120    1.6960    0.9790 C.2     1  UNL1        0.0000
@<TRIPOS>BOND
     1     4     5    1
     2     4     2    1
     3     3     2    2
     4     2     1    1
     5     1     6    1
     6     9    11    1
     7     9     7    2
     8     6     7    1
     9    11    12    2
    10     7     8    1
    11    12    10    1
    12     8    10    2
