@<TRIPOS>MOLECULE
/home/cewinharhar/GITHUB/reincatalyze/data/processed/docking_pred/2023-Apr-25-1829_maxeplen10_maxtrainstep200_exh32_gamma099_lrac3e-4_lrcr1e-3/d18fc177cce43baae8a65556dd45e7572e61ad5e_ligand_2.pdbqt
 12 12 0 0 0
SMALL
GASTEIGER

@<TRIPOS>ATOM
      1  C          8.2690    0.3560   -2.0870 C.3     1  UNL1        0.1270
      2  C          9.4110    0.3990   -1.1560 C.2     1  UNL1        0.3030
      3  O          9.4500   -0.4200   -0.2080 O.2     1  UNL1       -0.2520
      4  O         10.4320    1.3170   -1.3110 O.3     1  UNL1       -0.4810
      5  H         10.8920    1.5140   -2.2190 H       1  UNL1        0.2960
      6  C          7.1940   -0.5070   -1.4370 C.3     1  UNL1        0.0470
      7  C          6.3730    0.2550   -0.4790 C.2     1  UNL1       -0.0470
      8  C          6.1570   -0.2940    0.7790 C.2     1  UNL1        0.0040
      9  C          5.7950    1.4720   -0.7340 C.2     1  UNL1        0.0040
     10  C          5.3810    0.3930    1.7100 C.2     1  UNL1        0.0000
     11  C          5.0230    2.1780    0.1670 C.2     1  UNL1        0.0000
     12  C          4.8250    1.6060    1.4090 C.2     1  UNL1        0.0000
@<TRIPOS>BOND
     1     5     4    1
     2     1     6    1
     3     1     2    1
     4     6     7    1
     5     4     2    1
     6     2     3    2
     7     9     7    2
     8     9    11    1
     9     7     8    1
    10    11    12    2
    11     8    10    2
    12    12    10    1
