@<TRIPOS>MOLECULE
/home/cewinharhar/GITHUB/reincatalyze/data/processed/docking_pred/2023-Apr-25-1829_maxeplen10_maxtrainstep200_exh32_gamma099_lrac3e-4_lrcr1e-3/d18fc177cce43baae8a65556dd45e7572e61ad5e_ligand_2.pdbqt
 12 12 0 0 0
SMALL
GASTEIGER

@<TRIPOS>ATOM
      1  C          8.4170   -0.6740   -2.0870 C.3     1  UNL1        0.1270
      2  C          8.4000   -1.9210   -2.8710 C.2     1  UNL1        0.3030
      3  O          7.2960   -2.4040   -3.2150 O.2     1  UNL1       -0.2520
      4  O          9.5710   -2.5610   -3.2310 O.3     1  UNL1       -0.4810
      5  H         10.4410   -2.5230   -2.6680 H       1  UNL1        0.2960
      6  C          7.0040   -0.1040   -2.1210 C.3     1  UNL1        0.0470
      7  C          6.4500    0.0890   -0.7690 C.2     1  UNL1       -0.0470
      8  C          6.5810   -0.9490    0.1460 C.2     1  UNL1        0.0040
      9  C          5.8040    1.2200   -0.3390 C.2     1  UNL1        0.0040
     10  C          6.0650   -0.8060    1.4320 C.2     1  UNL1        0.0000
     11  C          5.2820    1.3910    0.9280 C.2     1  UNL1        0.0000
     12  C          5.4270    0.3420    1.8150 C.2     1  UNL1        0.0000
@<TRIPOS>BOND
     1     4     2    1
     2     4     5    1
     3     3     2    2
     4     2     1    1
     5     6     1    1
     6     6     7    1
     7     7     9    2
     8     7     8    1
     9     9    11    1
    10     8    10    2
    11    11    12    2
    12    10    12    1
