@<TRIPOS>MOLECULE
/home/cewinharhar/GITHUB/reincatalyze/data/processed/docking_pred/2023-Apr-25-1829_maxeplen10_maxtrainstep200_exh32_gamma099_lrac3e-4_lrcr1e-3/d27e6afc186b75c76b7fe435f4b9560b42cd14a2_ligand_2.pdbqt
 12 12 0 0 0
SMALL
GASTEIGER

@<TRIPOS>ATOM
      1  C          7.3210   -1.2420   -2.2510 C.3     1  UNL1        0.1270
      2  C          8.7560   -1.3600   -2.5630 C.2     1  UNL1        0.3030
      3  O          9.5430   -0.4860   -2.1310 O.2     1  UNL1       -0.2520
      4  O          9.2450   -2.4110   -3.3150 O.3     1  UNL1       -0.4810
      5  H          9.5630   -2.3140   -4.2970 H       1  UNL1        0.2960
      6  C          7.1710   -1.4350   -0.7460 C.3     1  UNL1        0.0470
      7  C          6.4120   -0.3400   -0.1180 C.2     1  UNL1       -0.0470
      8  C          6.1500    0.7940   -0.8780 C.2     1  UNL1        0.0040
      9  C          5.9440   -0.3470    1.1710 C.2     1  UNL1        0.0040
     10  C          5.4410    1.8540   -0.3160 C.2     1  UNL1        0.0000
     11  C          5.2390    0.6860    1.7550 C.2     1  UNL1        0.0000
     12  C          4.9940    1.8000    0.9760 C.2     1  UNL1        0.0000
@<TRIPOS>BOND
     1     5     4    1
     2     4     2    1
     3     2     1    1
     4     2     3    2
     5     1     6    1
     6     8    10    1
     7     8     7    2
     8     6     7    1
     9    10    12    2
    10     7     9    1
    11    12    11    1
    12     9    11    2
