MODEL 1
REMARK VINA RESULT:      -7.3      0.000      0.000
REMARK SMILES O=C(O)CCc1ccccc1
REMARK SMILES IDX 4 1 2 2 1 3 3 4 5 6 6 7 7 8 11 9 8 10 10 11 9 12
REMARK H PARENT 3 5
REMARK Flexibility Score: inf
ROOT
ATOM      1  C   UNL     1       8.491  -0.684  -2.129  1.00  0.00     0.127 C 
ENDROOT
BRANCH   1   2
ATOM      2  C   UNL     1       8.481  -1.932  -2.912  1.00  0.00     0.303 C 
ATOM      3  O   UNL     1       9.555  -2.560  -3.065  1.00  0.00    -0.252 OA
BRANCH   2   4
ATOM      4  O   UNL     1       7.316  -2.420  -3.473  1.00  0.00    -0.481 OA
ATOM      5  H   UNL     1       7.136  -2.438  -4.494  1.00  0.00     0.296 HD
ENDBRANCH   2   4
ENDBRANCH   1   2
BRANCH   1   6
ATOM      6  C   UNL     1       7.071  -0.130  -2.150  1.00  0.00     0.047 C 
BRANCH   6   7
ATOM      7  C   UNL     1       6.511   0.015  -0.795  1.00  0.00    -0.047 A 
ATOM      8  C   UNL     1       5.854   1.199  -0.482  1.00  0.00     0.004 A 
ATOM      9  C   UNL     1       6.593  -0.932   0.194  1.00  0.00     0.004 A 
ATOM     10  C   UNL     1       5.317   1.376   0.792  1.00  0.00     0.000 A 
ATOM     11  C   UNL     1       6.071  -0.786   1.464  1.00  0.00     0.000 A 
ATOM     12  C   UNL     1       5.424   0.401   1.746  1.00  0.00     0.000 A 
ENDBRANCH   6   7
ENDBRANCH   1   6
TORSDOF 4
ENDMDL
MODEL 2
REMARK VINA RESULT:      -7.2      0.619      1.606
REMARK SMILES O=C(O)CCc1ccccc1
REMARK SMILES IDX 4 1 2 2 1 3 3 4 5 6 6 7 7 8 11 9 8 10 10 11 9 12
REMARK H PARENT 3 5
REMARK Flexibility Score: inf
ROOT
ATOM      1  C   UNL     1       8.261  -0.910  -1.904  1.00  0.00     0.127 C 
ENDROOT
BRANCH   1   2
ATOM      2  C   UNL     1       8.396  -2.010  -2.875  1.00  0.00     0.303 C 
ATOM      3  O   UNL     1       9.536  -2.476  -3.107  1.00  0.00    -0.252 OA
BRANCH   2   4
ATOM      4  O   UNL     1       7.296  -2.532  -3.528  1.00  0.00    -0.481 OA
ATOM      5  H   UNL     1       7.131  -3.548  -3.650  1.00  0.00     0.296 HD
ENDBRANCH   2   4
ENDBRANCH   1   2
BRANCH   1   6
ATOM      6  C   UNL     1       7.328  -1.397  -0.801  1.00  0.00     0.047 C 
BRANCH   6   7
ATOM      7  C   UNL     1       6.535  -0.300  -0.220  1.00  0.00    -0.047 A 
ATOM      8  C   UNL     1       6.108  -0.428   1.097  1.00  0.00     0.004 A 
ATOM      9  C   UNL     1       6.176   0.846  -0.882  1.00  0.00     0.004 A 
ATOM     10  C   UNL     1       5.350   0.585   1.680  1.00  0.00     0.000 A 
ATOM     11  C   UNL     1       5.427   1.867  -0.332  1.00  0.00     0.000 A 
ATOM     12  C   UNL     1       5.016   1.711   0.978  1.00  0.00     0.000 A 
ENDBRANCH   6   7
ENDBRANCH   1   6
TORSDOF 4
ENDMDL
MODEL 3
REMARK VINA RESULT:      -7.2      0.125      1.727
REMARK SMILES O=C(O)CCc1ccccc1
REMARK SMILES IDX 4 1 2 2 1 3 3 4 5 6 6 7 7 8 11 9 8 10 10 11 9 12
REMARK H PARENT 3 5
REMARK Flexibility Score: inf
ROOT
ATOM      1  C   UNL     1       8.421  -0.689  -2.070  1.00  0.00     0.127 C 
ENDROOT
BRANCH   1   2
ATOM      2  C   UNL     1       8.400  -1.928  -2.866  1.00  0.00     0.303 C 
ATOM      3  O   UNL     1       7.295  -2.404  -3.217  1.00  0.00    -0.252 OA
BRANCH   2   4
ATOM      4  O   UNL     1       9.569  -2.569  -3.231  1.00  0.00    -0.481 OA
ATOM      5  H   UNL     1       9.915  -3.433  -2.774  1.00  0.00     0.296 HD
ENDBRANCH   2   4
ENDBRANCH   1   2
BRANCH   1   6
ATOM      6  C   UNL     1       7.017  -0.096  -2.127  1.00  0.00     0.047 C 
BRANCH   6   7
ATOM      7  C   UNL     1       6.450   0.120  -0.784  1.00  0.00    -0.047 A 
ATOM      8  C   UNL     1       6.574  -0.901   0.150  1.00  0.00     0.004 A 
ATOM      9  C   UNL     1       5.799   1.257  -0.381  1.00  0.00     0.004 A 
ATOM     10  C   UNL     1       6.045  -0.736   1.429  1.00  0.00     0.000 A 
ATOM     11  C   UNL     1       5.265   1.451   0.878  1.00  0.00     0.000 A 
ATOM     12  C   UNL     1       5.402   0.418   1.784  1.00  0.00     0.000 A 
ENDBRANCH   6   7
ENDBRANCH   1   6
TORSDOF 4
ENDMDL
MODEL 4
REMARK VINA RESULT:      -7.0      0.996      1.498
REMARK SMILES O=C(O)CCc1ccccc1
REMARK SMILES IDX 4 1 2 2 1 3 3 4 5 6 6 7 7 8 11 9 8 10 10 11 9 12
REMARK H PARENT 3 5
REMARK Flexibility Score: inf
ROOT
ATOM      1  C   UNL     1       7.321  -1.242  -2.251  1.00  0.00     0.127 C 
ENDROOT
BRANCH   1   2
ATOM      2  C   UNL     1       8.756  -1.360  -2.563  1.00  0.00     0.303 C 
ATOM      3  O   UNL     1       9.543  -0.486  -2.131  1.00  0.00    -0.252 OA
BRANCH   2   4
ATOM      4  O   UNL     1       9.245  -2.411  -3.315  1.00  0.00    -0.481 OA
ATOM      5  H   UNL     1       9.563  -2.314  -4.297  1.00  0.00     0.296 HD
ENDBRANCH   2   4
ENDBRANCH   1   2
BRANCH   1   6
ATOM      6  C   UNL     1       7.171  -1.435  -0.746  1.00  0.00     0.047 C 
BRANCH   6   7
ATOM      7  C   UNL     1       6.412  -0.340  -0.118  1.00  0.00    -0.047 A 
ATOM      8  C   UNL     1       6.150   0.794  -0.878  1.00  0.00     0.004 A 
ATOM      9  C   UNL     1       5.944  -0.347   1.171  1.00  0.00     0.004 A 
ATOM     10  C   UNL     1       5.441   1.854  -0.316  1.00  0.00     0.000 A 
ATOM     11  C   UNL     1       5.239   0.686   1.755  1.00  0.00     0.000 A 
ATOM     12  C   UNL     1       4.994   1.800   0.976  1.00  0.00     0.000 A 
ENDBRANCH   6   7
ENDBRANCH   1   6
TORSDOF 4
ENDMDL
MODEL 5
REMARK VINA RESULT:      -6.8      3.388      5.075
REMARK SMILES O=C(O)CCc1ccccc1
REMARK SMILES IDX 4 1 2 2 1 3 3 4 5 6 6 7 7 8 11 9 8 10 10 11 9 12
REMARK H PARENT 3 5
REMARK Flexibility Score: inf
ROOT
ATOM      1  C   UNL     1       4.983   1.770   0.701  1.00  0.00     0.127 C 
ENDROOT
BRANCH   1   2
ATOM      2  C   UNL     1       4.472   1.117   1.919  1.00  0.00     0.303 C 
ATOM      3  O   UNL     1       5.170   0.234   2.470  1.00  0.00    -0.252 OA
BRANCH   2   4
ATOM      4  O   UNL     1       3.248   1.461   2.461  1.00  0.00    -0.481 OA
ATOM      5  H   UNL     1       2.390   1.599   1.896  1.00  0.00     0.296 HD
ENDBRANCH   2   4
ENDBRANCH   1   2
BRANCH   1   6
ATOM      6  C   UNL     1       6.505   1.742   0.782  1.00  0.00     0.047 C 
BRANCH   6   7
ATOM      7  C   UNL     1       7.106   0.972  -0.321  1.00  0.00    -0.047 A 
ATOM      8  C   UNL     1       8.433   1.225  -0.647  1.00  0.00     0.004 A 
ATOM      9  C   UNL     1       6.453   0.021  -1.062  1.00  0.00     0.004 A 
ATOM     10  C   UNL     1       9.035   0.521  -1.689  1.00  0.00     0.000 A 
ATOM     11  C   UNL     1       7.022  -0.692  -2.098  1.00  0.00     0.000 A 
ATOM     12  C   UNL     1       8.341  -0.419  -2.400  1.00  0.00     0.000 A 
ENDBRANCH   6   7
ENDBRANCH   1   6
TORSDOF 4
ENDMDL
