@<TRIPOS>MOLECULE
/home/cewinharhar/GITHUB/reincatalyze/data/processed/docking_pred/2023-Apr-25-1829_maxeplen10_maxtrainstep200_exh32_gamma099_lrac3e-4_lrcr1e-3/d27e6afc186b75c76b7fe435f4b9560b42cd14a2_ligand_2.pdbqt
 12 12 0 0 0
SMALL
GASTEIGER

@<TRIPOS>ATOM
      1  C          8.4910   -0.6840   -2.1290 C.3     1  UNL1        0.1270
      2  C          8.4810   -1.9320   -2.9120 C.2     1  UNL1        0.3030
      3  O          9.5550   -2.5600   -3.0650 O.2     1  UNL1       -0.2520
      4  O          7.3160   -2.4200   -3.4730 O.3     1  UNL1       -0.4810
      5  H          7.1360   -2.4380   -4.4940 H       1  UNL1        0.2960
      6  C          7.0710   -0.1300   -2.1500 C.3     1  UNL1        0.0470
      7  C          6.5110    0.0150   -0.7950 C.2     1  UNL1       -0.0470
      8  C          5.8540    1.1990   -0.4820 C.2     1  UNL1        0.0040
      9  C          6.5930   -0.9320    0.1940 C.2     1  UNL1        0.0040
     10  C          5.3170    1.3760    0.7920 C.2     1  UNL1        0.0000
     11  C          6.0710   -0.7860    1.4640 C.2     1  UNL1        0.0000
     12  C          5.4240    0.4010    1.7460 C.2     1  UNL1        0.0000
@<TRIPOS>BOND
     1     5     4    1
     2     4     2    1
     3     3     2    2
     4     2     1    1
     5     6     1    1
     6     6     7    1
     7     7     8    2
     8     7     9    1
     9     8    10    1
    10     9    11    2
    11    10    12    2
    12    11    12    1
