@<TRIPOS>MOLECULE
/home/cewinharhar/GITHUB/reincatalyze/data/processed/docking_pred/2023-Apr-25-1829_maxeplen10_maxtrainstep200_exh32_gamma099_lrac3e-4_lrcr1e-3/d27e6afc186b75c76b7fe435f4b9560b42cd14a2_ligand_2.pdbqt
 12 12 0 0 0
SMALL
GASTEIGER

@<TRIPOS>ATOM
      1  C          4.9830    1.7700    0.7010 C.3     1  UNL1        0.1270
      2  C          4.4720    1.1170    1.9190 C.2     1  UNL1        0.3030
      3  O          5.1700    0.2340    2.4700 O.2     1  UNL1       -0.2520
      4  O          3.2480    1.4610    2.4610 O.3     1  UNL1       -0.4810
      5  H          2.3900    1.5990    1.8960 H       1  UNL1        0.2960
      6  C          6.5050    1.7420    0.7820 C.3     1  UNL1        0.0470
      7  C          7.1060    0.9720   -0.3210 C.2     1  UNL1       -0.0470
      8  C          8.4330    1.2250   -0.6470 C.2     1  UNL1        0.0040
      9  C          6.4530    0.0210   -1.0620 C.2     1  UNL1        0.0040
     10  C          9.0350    0.5210   -1.6890 C.2     1  UNL1        0.0000
     11  C          7.0220   -0.6920   -2.0980 C.2     1  UNL1        0.0000
     12  C          8.3410   -0.4190   -2.4000 C.2     1  UNL1        0.0000
@<TRIPOS>BOND
     1    12    11    2
     2    12    10    1
     3    11     9    1
     4    10     8    2
     5     9     7    2
     6     8     7    1
     7     7     6    1
     8     1     6    1
     9     1     2    1
    10     5     4    1
    11     2     4    1
    12     2     3    2
