@<TRIPOS>MOLECULE
/home/cewinharhar/GITHUB/reincatalyze/data/processed/docking_pred/2023-Apr-25-1829_maxeplen10_maxtrainstep200_exh32_gamma099_lrac3e-4_lrcr1e-3/d27e6afc186b75c76b7fe435f4b9560b42cd14a2_ligand_2.pdbqt
 12 12 0 0 0
SMALL
GASTEIGER

@<TRIPOS>ATOM
      1  C          8.2610   -0.9100   -1.9040 C.3     1  UNL1        0.1270
      2  C          8.3960   -2.0100   -2.8750 C.2     1  UNL1        0.3030
      3  O          9.5360   -2.4760   -3.1070 O.2     1  UNL1       -0.2520
      4  O          7.2960   -2.5320   -3.5280 O.3     1  UNL1       -0.4810
      5  H          7.1310   -3.5480   -3.6500 H       1  UNL1        0.2960
      6  C          7.3280   -1.3970   -0.8010 C.3     1  UNL1        0.0470
      7  C          6.5350   -0.3000   -0.2200 C.2     1  UNL1       -0.0470
      8  C          6.1080   -0.4280    1.0970 C.2     1  UNL1        0.0040
      9  C          6.1760    0.8460   -0.8820 C.2     1  UNL1        0.0040
     10  C          5.3500    0.5850    1.6800 C.2     1  UNL1        0.0000
     11  C          5.4270    1.8670   -0.3320 C.2     1  UNL1        0.0000
     12  C          5.0160    1.7110    0.9780 C.2     1  UNL1        0.0000
@<TRIPOS>BOND
     1     5     4    1
     2     4     2    1
     3     3     2    2
     4     2     1    1
     5     1     6    1
     6     9    11    1
     7     9     7    2
     8     6     7    1
     9    11    12    2
    10     7     8    1
    11    12    10    1
    12     8    10    2
