@<TRIPOS>MOLECULE
/home/cewinharhar/GITHUB/reincatalyze/data/processed/docking_pred/2023-Apr-25-1829_maxeplen10_maxtrainstep200_exh32_gamma099_lrac3e-4_lrcr1e-3/d32515ef85c53a65d829162c3cbbbf13c46f52f9_ligand_2.pdbqt
 12 12 0 0 0
SMALL
GASTEIGER

@<TRIPOS>ATOM
      1  C          8.4580   -0.6420   -2.1530 C.3     1  UNL1        0.1270
      2  C          8.4650   -1.9070   -2.9080 C.2     1  UNL1        0.3030
      3  O          9.5560   -2.4960   -3.0910 O.2     1  UNL1       -0.2520
      4  O          7.2990   -2.4520   -3.4110 O.3     1  UNL1       -0.4810
      5  H          7.1850   -2.7530   -4.3960 H       1  UNL1        0.2960
      6  C          7.0210   -0.1320   -2.1460 C.3     1  UNL1        0.0470
      7  C          6.4860    0.0040   -0.7800 C.2     1  UNL1       -0.0470
      8  C          5.8540    1.1940   -0.4400 C.2     1  UNL1        0.0040
      9  C          6.5670   -0.9580    0.1940 C.2     1  UNL1        0.0040
     10  C          5.3410    1.3630    0.8440 C.2     1  UNL1        0.0000
     11  C          6.0690   -0.8210    1.4750 C.2     1  UNL1        0.0000
     12  C          5.4470    0.3730    1.7830 C.2     1  UNL1        0.0000
@<TRIPOS>BOND
     1     5     4    1
     2     4     2    1
     3     3     2    2
     4     2     1    1
     5     1     6    1
     6     6     7    1
     7     7     8    2
     8     7     9    1
     9     8    10    1
    10     9    11    2
    11    10    12    2
    12    11    12    1
