MODEL 1
REMARK VINA RESULT:      -7.3      0.000      0.000
REMARK SMILES O=C(O)CCc1ccccc1
REMARK SMILES IDX 4 1 2 2 1 3 3 4 5 6 6 7 7 8 11 9 8 10 10 11 9 12
REMARK H PARENT 3 5
REMARK Flexibility Score: inf
ROOT
ATOM      1  C   UNL     1       8.458  -0.642  -2.153  1.00  0.00     0.127 C 
ENDROOT
BRANCH   1   2
ATOM      2  C   UNL     1       8.465  -1.907  -2.908  1.00  0.00     0.303 C 
ATOM      3  O   UNL     1       9.556  -2.496  -3.091  1.00  0.00    -0.252 OA
BRANCH   2   4
ATOM      4  O   UNL     1       7.299  -2.452  -3.411  1.00  0.00    -0.481 OA
ATOM      5  H   UNL     1       7.185  -2.753  -4.396  1.00  0.00     0.296 HD
ENDBRANCH   2   4
ENDBRANCH   1   2
BRANCH   1   6
ATOM      6  C   UNL     1       7.021  -0.132  -2.146  1.00  0.00     0.047 C 
BRANCH   6   7
ATOM      7  C   UNL     1       6.486   0.004  -0.780  1.00  0.00    -0.047 A 
ATOM      8  C   UNL     1       5.854   1.194  -0.440  1.00  0.00     0.004 A 
ATOM      9  C   UNL     1       6.567  -0.958   0.194  1.00  0.00     0.004 A 
ATOM     10  C   UNL     1       5.341   1.363   0.844  1.00  0.00     0.000 A 
ATOM     11  C   UNL     1       6.069  -0.821   1.475  1.00  0.00     0.000 A 
ATOM     12  C   UNL     1       5.447   0.373   1.783  1.00  0.00     0.000 A 
ENDBRANCH   6   7
ENDBRANCH   1   6
TORSDOF 4
ENDMDL
MODEL 2
REMARK VINA RESULT:      -7.3      0.070      1.430
REMARK SMILES O=C(O)CCc1ccccc1
REMARK SMILES IDX 4 1 2 2 1 3 3 4 5 6 6 7 7 8 11 9 8 10 10 11 9 12
REMARK H PARENT 3 5
REMARK Flexibility Score: inf
ROOT
ATOM      1  C   UNL     1       8.439  -0.652  -2.123  1.00  0.00     0.127 C 
ENDROOT
BRANCH   1   2
ATOM      2  C   UNL     1       8.458  -1.913  -2.886  1.00  0.00     0.303 C 
ATOM      3  O   UNL     1       9.542  -2.531  -3.007  1.00  0.00    -0.252 OA
BRANCH   2   4
ATOM      4  O   UNL     1       7.311  -2.422  -3.464  1.00  0.00    -0.481 OA
ATOM      5  H   UNL     1       6.927  -3.360  -3.245  1.00  0.00     0.296 HD
ENDBRANCH   2   4
ENDBRANCH   1   2
BRANCH   1   6
ATOM      6  C   UNL     1       7.010  -0.123  -2.167  1.00  0.00     0.047 C 
BRANCH   6   7
ATOM      7  C   UNL     1       6.449   0.077  -0.819  1.00  0.00    -0.047 A 
ATOM      8  C   UNL     1       6.573  -0.958   0.100  1.00  0.00     0.004 A 
ATOM      9  C   UNL     1       5.805   1.211  -0.398  1.00  0.00     0.004 A 
ATOM     10  C   UNL     1       6.050  -0.809   1.383  1.00  0.00     0.000 A 
ATOM     11  C   UNL     1       5.277   1.389   0.866  1.00  0.00     0.000 A 
ATOM     12  C   UNL     1       5.414   0.343   1.758  1.00  0.00     0.000 A 
ENDBRANCH   6   7
ENDBRANCH   1   6
TORSDOF 4
ENDMDL
MODEL 3
REMARK VINA RESULT:      -7.2      0.321      1.754
REMARK SMILES O=C(O)CCc1ccccc1
REMARK SMILES IDX 4 1 2 2 1 3 3 4 5 6 6 7 7 8 11 9 8 10 10 11 9 12
REMARK H PARENT 3 5
REMARK Flexibility Score: inf
ROOT
ATOM      1  C   UNL     1       8.304  -0.946  -1.772  1.00  0.00     0.127 C 
ENDROOT
BRANCH   1   2
ATOM      2  C   UNL     1       8.315  -1.976  -2.826  1.00  0.00     0.303 C 
ATOM      3  O   UNL     1       7.223  -2.370  -3.298  1.00  0.00    -0.252 OA
BRANCH   2   4
ATOM      4  O   UNL     1       9.499  -2.509  -3.300  1.00  0.00    -0.481 OA
ATOM      5  H   UNL     1       9.595  -2.953  -4.232  1.00  0.00     0.296 HD
ENDBRANCH   2   4
ENDBRANCH   1   2
BRANCH   1   6
ATOM      6  C   UNL     1       7.036  -0.122  -1.964  1.00  0.00     0.047 C 
BRANCH   6   7
ATOM      7  C   UNL     1       6.387   0.205  -0.682  1.00  0.00    -0.047 A 
ATOM      8  C   UNL     1       6.466  -0.725   0.347  1.00  0.00     0.004 A 
ATOM      9  C   UNL     1       5.700   1.363  -0.423  1.00  0.00     0.004 A 
ATOM     10  C   UNL     1       5.860  -0.454   1.572  1.00  0.00     0.000 A 
ATOM     11  C   UNL     1       5.090   1.661   0.779  1.00  0.00     0.000 A 
ATOM     12  C   UNL     1       5.184   0.717   1.783  1.00  0.00     0.000 A 
ENDBRANCH   6   7
ENDBRANCH   1   6
TORSDOF 4
ENDMDL
MODEL 4
REMARK VINA RESULT:      -6.8      3.370      5.063
REMARK SMILES O=C(O)CCc1ccccc1
REMARK SMILES IDX 4 1 2 2 1 3 3 4 5 6 6 7 7 8 11 9 8 10 10 11 9 12
REMARK H PARENT 3 5
REMARK Flexibility Score: inf
ROOT
ATOM      1  C   UNL     1       4.994   1.787   0.713  1.00  0.00     0.127 C 
ENDROOT
BRANCH   1   2
ATOM      2  C   UNL     1       4.473   1.119   1.918  1.00  0.00     0.303 C 
ATOM      3  O   UNL     1       5.162   0.222   2.459  1.00  0.00    -0.252 OA
BRANCH   2   4
ATOM      4  O   UNL     1       3.249   1.462   2.459  1.00  0.00    -0.481 OA
ATOM      5  H   UNL     1       2.365   1.469   1.917  1.00  0.00     0.296 HD
ENDBRANCH   2   4
ENDBRANCH   1   2
BRANCH   1   6
ATOM      6  C   UNL     1       6.516   1.738   0.796  1.00  0.00     0.047 C 
BRANCH   6   7
ATOM      7  C   UNL     1       7.108   0.968  -0.313  1.00  0.00    -0.047 A 
ATOM      8  C   UNL     1       8.430   1.227  -0.655  1.00  0.00     0.004 A 
ATOM      9  C   UNL     1       6.451   0.013  -1.044  1.00  0.00     0.004 A 
ATOM     10  C   UNL     1       9.023   0.524  -1.702  1.00  0.00     0.000 A 
ATOM     11  C   UNL     1       7.011  -0.700  -2.085  1.00  0.00     0.000 A 
ATOM     12  C   UNL     1       8.325  -0.421  -2.404  1.00  0.00     0.000 A 
ENDBRANCH   6   7
ENDBRANCH   1   6
TORSDOF 4
ENDMDL
MODEL 5
REMARK VINA RESULT:      -6.6      1.914      2.653
REMARK SMILES O=C(O)CCc1ccccc1
REMARK SMILES IDX 4 1 2 2 1 3 3 4 5 6 6 7 7 8 11 9 8 10 10 11 9 12
REMARK H PARENT 3 5
REMARK Flexibility Score: inf
ROOT
ATOM      1  C   UNL     1       8.241   0.231  -2.205  1.00  0.00     0.127 C 
ENDROOT
BRANCH   1   2
ATOM      2  C   UNL     1       9.370   0.353  -1.267  1.00  0.00     0.303 C 
ATOM      3  O   UNL     1       9.425  -0.420  -0.282  1.00  0.00    -0.252 OA
BRANCH   2   4
ATOM      4  O   UNL     1      10.362   1.296  -1.454  1.00  0.00    -0.481 OA
ATOM      5  H   UNL     1      10.232   2.309  -1.275  1.00  0.00     0.296 HD
ENDBRANCH   2   4
ENDBRANCH   1   2
BRANCH   1   6
ATOM      6  C   UNL     1       7.153  -0.568  -1.496  1.00  0.00     0.047 C 
BRANCH   6   7
ATOM      7  C   UNL     1       6.353   0.269  -0.584  1.00  0.00    -0.047 A 
ATOM      8  C   UNL     1       6.126  -0.200   0.704  1.00  0.00     0.004 A 
ATOM      9  C   UNL     1       5.805   1.482  -0.910  1.00  0.00     0.004 A 
ATOM     10  C   UNL     1       5.369   0.560   1.593  1.00  0.00     0.000 A 
ATOM     11  C   UNL     1       5.051   2.258  -0.052  1.00  0.00     0.000 A 
ATOM     12  C   UNL     1       4.842   1.766   1.221  1.00  0.00     0.000 A 
ENDBRANCH   6   7
ENDBRANCH   1   6
TORSDOF 4
ENDMDL
