@<TRIPOS>MOLECULE
/home/cewinharhar/GITHUB/reincatalyze/data/processed/docking_pred/2023-Apr-25-1829_maxeplen10_maxtrainstep200_exh32_gamma099_lrac3e-4_lrcr1e-3/d32515ef85c53a65d829162c3cbbbf13c46f52f9_ligand_2.pdbqt
 12 12 0 0 0
SMALL
GASTEIGER

@<TRIPOS>ATOM
      1  C          4.9940    1.7870    0.7130 C.3     1  UNL1        0.1270
      2  C          4.4730    1.1190    1.9180 C.2     1  UNL1        0.3030
      3  O          5.1620    0.2220    2.4590 O.2     1  UNL1       -0.2520
      4  O          3.2490    1.4620    2.4590 O.3     1  UNL1       -0.4810
      5  H          2.3650    1.4690    1.9170 H       1  UNL1        0.2960
      6  C          6.5160    1.7380    0.7960 C.3     1  UNL1        0.0470
      7  C          7.1080    0.9680   -0.3130 C.2     1  UNL1       -0.0470
      8  C          8.4300    1.2270   -0.6550 C.2     1  UNL1        0.0040
      9  C          6.4510    0.0130   -1.0440 C.2     1  UNL1        0.0040
     10  C          9.0230    0.5240   -1.7020 C.2     1  UNL1        0.0000
     11  C          7.0110   -0.7000   -2.0850 C.2     1  UNL1        0.0000
     12  C          8.3250   -0.4210   -2.4040 C.2     1  UNL1        0.0000
@<TRIPOS>BOND
     1    12    11    2
     2    12    10    1
     3    11     9    1
     4    10     8    2
     5     9     7    2
     6     8     7    1
     7     7     6    1
     8     1     6    1
     9     1     2    1
    10     5     4    1
    11     2     3    2
    12     2     4    1
