@<TRIPOS>MOLECULE
/home/cewinharhar/GITHUB/reincatalyze/data/processed/docking_pred/2023-Apr-25-1829_maxeplen10_maxtrainstep200_exh32_gamma099_lrac3e-4_lrcr1e-3/d32515ef85c53a65d829162c3cbbbf13c46f52f9_ligand_2.pdbqt
 12 12 0 0 0
SMALL
GASTEIGER

@<TRIPOS>ATOM
      1  C          8.2410    0.2310   -2.2050 C.3     1  UNL1        0.1270
      2  C          9.3700    0.3530   -1.2670 C.2     1  UNL1        0.3030
      3  O          9.4250   -0.4200   -0.2820 O.2     1  UNL1       -0.2520
      4  O         10.3620    1.2960   -1.4540 O.3     1  UNL1       -0.4810
      5  H         10.2320    2.3090   -1.2750 H       1  UNL1        0.2960
      6  C          7.1530   -0.5680   -1.4960 C.3     1  UNL1        0.0470
      7  C          6.3530    0.2690   -0.5840 C.2     1  UNL1       -0.0470
      8  C          6.1260   -0.2000    0.7040 C.2     1  UNL1        0.0040
      9  C          5.8050    1.4820   -0.9100 C.2     1  UNL1        0.0040
     10  C          5.3690    0.5600    1.5930 C.2     1  UNL1        0.0000
     11  C          5.0510    2.2580   -0.0520 C.2     1  UNL1        0.0000
     12  C          4.8420    1.7660    1.2210 C.2     1  UNL1        0.0000
@<TRIPOS>BOND
     1     1     6    1
     2     1     2    1
     3     6     7    1
     4     4     5    1
     5     4     2    1
     6     2     3    2
     7     9     7    2
     8     9    11    1
     9     7     8    1
    10    11    12    2
    11     8    10    2
    12    12    10    1
