@<TRIPOS>MOLECULE
/home/cewinharhar/GITHUB/reincatalyze/data/processed/docking_pred/2023-Apr-25-1829_maxeplen10_maxtrainstep200_exh32_gamma099_lrac3e-4_lrcr1e-3/d32515ef85c53a65d829162c3cbbbf13c46f52f9_ligand_2.pdbqt
 12 12 0 0 0
SMALL
GASTEIGER

@<TRIPOS>ATOM
      1  C          8.3040   -0.9460   -1.7720 C.3     1  UNL1        0.1270
      2  C          8.3150   -1.9760   -2.8260 C.2     1  UNL1        0.3030
      3  O          7.2230   -2.3700   -3.2980 O.2     1  UNL1       -0.2520
      4  O          9.4990   -2.5090   -3.3000 O.3     1  UNL1       -0.4810
      5  H          9.5950   -2.9530   -4.2320 H       1  UNL1        0.2960
      6  C          7.0360   -0.1220   -1.9640 C.3     1  UNL1        0.0470
      7  C          6.3870    0.2050   -0.6820 C.2     1  UNL1       -0.0470
      8  C          6.4660   -0.7250    0.3470 C.2     1  UNL1        0.0040
      9  C          5.7000    1.3630   -0.4230 C.2     1  UNL1        0.0040
     10  C          5.8600   -0.4540    1.5720 C.2     1  UNL1        0.0000
     11  C          5.0900    1.6610    0.7790 C.2     1  UNL1        0.0000
     12  C          5.1840    0.7170    1.7830 C.2     1  UNL1        0.0000
@<TRIPOS>BOND
     1     5     4    1
     2     4     2    1
     3     3     2    2
     4     2     1    1
     5     6     1    1
     6     6     7    1
     7     7     9    2
     8     7     8    1
     9     9    11    1
    10     8    10    2
    11    11    12    2
    12    10    12    1
