@<TRIPOS>MOLECULE
/home/cewinharhar/GITHUB/reincatalyze/data/processed/docking_pred/2023-Apr-25-1829_maxeplen10_maxtrainstep200_exh32_gamma099_lrac3e-4_lrcr1e-3/d32515ef85c53a65d829162c3cbbbf13c46f52f9_ligand_2.pdbqt
 12 12 0 0 0
SMALL
GASTEIGER

@<TRIPOS>ATOM
      1  C          8.4390   -0.6520   -2.1230 C.3     1  UNL1        0.1270
      2  C          8.4580   -1.9130   -2.8860 C.2     1  UNL1        0.3030
      3  O          9.5420   -2.5310   -3.0070 O.2     1  UNL1       -0.2520
      4  O          7.3110   -2.4220   -3.4640 O.3     1  UNL1       -0.4810
      5  H          6.9270   -3.3600   -3.2450 H       1  UNL1        0.2960
      6  C          7.0100   -0.1230   -2.1670 C.3     1  UNL1        0.0470
      7  C          6.4490    0.0770   -0.8190 C.2     1  UNL1       -0.0470
      8  C          6.5730   -0.9580    0.1000 C.2     1  UNL1        0.0040
      9  C          5.8050    1.2110   -0.3980 C.2     1  UNL1        0.0040
     10  C          6.0500   -0.8090    1.3830 C.2     1  UNL1        0.0000
     11  C          5.2770    1.3890    0.8660 C.2     1  UNL1        0.0000
     12  C          5.4140    0.3430    1.7580 C.2     1  UNL1        0.0000
@<TRIPOS>BOND
     1     4     5    1
     2     4     2    1
     3     3     2    2
     4     2     1    1
     5     6     1    1
     6     6     7    1
     7     7     9    2
     8     7     8    1
     9     9    11    1
    10     8    10    2
    11    11    12    2
    12    10    12    1
