@<TRIPOS>MOLECULE
/home/cewinharhar/GITHUB/reincatalyze/data/processed/docking_pred/2023-Apr-25-1829_maxeplen10_maxtrainstep200_exh32_gamma099_lrac3e-4_lrcr1e-3/d6fa7c89c21ca11aa73af88b15ecc664e93337c3_ligand_2.pdbqt
 12 12 0 0 0
SMALL
GASTEIGER

@<TRIPOS>ATOM
      1  C          5.4730    2.9200    0.0200 C.3     1  UNL1        0.1270
      2  C          6.2390    3.8990    0.8110 C.2     1  UNL1        0.3030
      3  O          6.9040    4.7750    0.2090 O.2     1  UNL1       -0.2520
      4  O          6.2370    3.8690    2.1920 O.3     1  UNL1       -0.4810
      5  H          5.7210    3.1630    2.7490 H       1  UNL1        0.2960
      6  C          4.9110    1.8940    0.9990 C.3     1  UNL1        0.0470
      7  C          5.6940    0.6460    1.0060 C.2     1  UNL1       -0.0470
      8  C          6.3410    0.2740   -0.1670 C.2     1  UNL1        0.0040
      9  C          5.8310   -0.1890    2.0840 C.2     1  UNL1        0.0040
     10  C          7.0850   -0.9040   -0.2020 C.2     1  UNL1        0.0000
     11  C          6.5610   -1.3610    2.0810 C.2     1  UNL1        0.0000
     12  C          7.1920   -1.7060    0.9020 C.2     1  UNL1        0.0000
@<TRIPOS>BOND
     1    10     8    1
     2    10    12    2
     3     8     7    2
     4     1     2    1
     5     1     6    1
     6     3     2    2
     7     2     4    1
     8    12    11    1
     9     6     7    1
    10     7     9    1
    11    11     9    2
    12     4     5    1
