MODEL 1
REMARK VINA RESULT:      -7.3      0.000      0.000
REMARK SMILES O=C(O)CCc1ccccc1
REMARK SMILES IDX 4 1 2 2 1 3 3 4 5 6 6 7 7 8 11 9 8 10 10 11 9 12
REMARK H PARENT 3 5
REMARK Flexibility Score: inf
ROOT
ATOM      1  C   UNL     1       8.474  -0.696  -2.049  1.00  0.00     0.127 C 
ENDROOT
BRANCH   1   2
ATOM      2  C   UNL     1       8.481  -1.916  -2.875  1.00  0.00     0.303 C 
ATOM      3  O   UNL     1       9.576  -2.469  -3.129  1.00  0.00    -0.252 OA
BRANCH   2   4
ATOM      4  O   UNL     1       7.309  -2.456  -3.370  1.00  0.00    -0.481 OA
ATOM      5  H   UNL     1       7.219  -3.441  -3.682  1.00  0.00     0.296 HD
ENDBRANCH   2   4
ENDBRANCH   1   2
BRANCH   1   6
ATOM      6  C   UNL     1       7.080  -0.088  -2.159  1.00  0.00     0.047 C 
BRANCH   6   7
ATOM      7  C   UNL     1       6.476   0.158  -0.838  1.00  0.00    -0.047 A 
ATOM      8  C   UNL     1       6.614  -0.821   0.138  1.00  0.00     0.004 A 
ATOM      9  C   UNL     1       5.776   1.286  -0.493  1.00  0.00     0.004 A 
ATOM     10  C   UNL     1       6.051  -0.628   1.398  1.00  0.00     0.000 A 
ATOM     11  C   UNL     1       5.207   1.507   0.746  1.00  0.00     0.000 A 
ATOM     12  C   UNL     1       5.360   0.515   1.695  1.00  0.00     0.000 A 
ENDBRANCH   6   7
ENDBRANCH   1   6
TORSDOF 4
ENDMDL
MODEL 2
REMARK VINA RESULT:      -7.3      0.183      1.439
REMARK SMILES O=C(O)CCc1ccccc1
REMARK SMILES IDX 4 1 2 2 1 3 3 4 5 6 6 7 7 8 11 9 8 10 10 11 9 12
REMARK H PARENT 3 5
REMARK Flexibility Score: inf
ROOT
ATOM      1  C   UNL     1       8.464  -0.585  -2.257  1.00  0.00     0.127 C 
ENDROOT
BRANCH   1   2
ATOM      2  C   UNL     1       8.479  -1.897  -2.927  1.00  0.00     0.303 C 
ATOM      3  O   UNL     1       9.572  -2.499  -3.054  1.00  0.00    -0.252 OA
BRANCH   2   4
ATOM      4  O   UNL     1       7.320  -2.470  -3.414  1.00  0.00    -0.481 OA
ATOM      5  H   UNL     1       6.957  -3.387  -3.094  1.00  0.00     0.296 HD
ENDBRANCH   2   4
ENDBRANCH   1   2
BRANCH   1   6
ATOM      6  C   UNL     1       7.013  -0.120  -2.214  1.00  0.00     0.047 C 
BRANCH   6   7
ATOM      7  C   UNL     1       6.507  -0.004  -0.835  1.00  0.00    -0.047 A 
ATOM      8  C   UNL     1       5.900   1.188  -0.459  1.00  0.00     0.004 A 
ATOM      9  C   UNL     1       6.593  -0.986   0.118  1.00  0.00     0.004 A 
ATOM     10  C   UNL     1       5.415   1.339   0.839  1.00  0.00     0.000 A 
ATOM     11  C   UNL     1       6.122  -0.868   1.411  1.00  0.00     0.000 A 
ATOM     12  C   UNL     1       5.525   0.329   1.755  1.00  0.00     0.000 A 
ENDBRANCH   6   7
ENDBRANCH   1   6
TORSDOF 4
ENDMDL
MODEL 3
REMARK VINA RESULT:      -7.1      0.597      1.571
REMARK SMILES O=C(O)CCc1ccccc1
REMARK SMILES IDX 4 1 2 2 1 3 3 4 5 6 6 7 7 8 11 9 8 10 10 11 9 12
REMARK H PARENT 3 5
REMARK Flexibility Score: inf
ROOT
ATOM      1  C   UNL     1       7.948  -0.777  -2.134  1.00  0.00     0.127 C 
ENDROOT
BRANCH   1   2
ATOM      2  C   UNL     1       8.219  -1.952  -2.982  1.00  0.00     0.303 C 
ATOM      3  O   UNL     1       9.395  -2.377  -3.069  1.00  0.00    -0.252 OA
BRANCH   2   4
ATOM      4  O   UNL     1       7.207  -2.588  -3.675  1.00  0.00    -0.481 OA
ATOM      5  H   UNL     1       7.159  -3.615  -3.805  1.00  0.00     0.296 HD
ENDBRANCH   2   4
ENDBRANCH   1   2
BRANCH   1   6
ATOM      6  C   UNL     1       7.387  -1.297  -0.815  1.00  0.00     0.047 C 
BRANCH   6   7
ATOM      7  C   UNL     1       6.538  -0.299  -0.140  1.00  0.00    -0.047 A 
ATOM      8  C   UNL     1       6.194   0.849  -0.844  1.00  0.00     0.004 A 
ATOM      9  C   UNL     1       6.062  -0.411   1.140  1.00  0.00     0.004 A 
ATOM     10  C   UNL     1       5.398   1.819  -0.238  1.00  0.00     0.000 A 
ATOM     11  C   UNL     1       5.272   0.532   1.768  1.00  0.00     0.000 A 
ATOM     12  C   UNL     1       4.946   1.662   1.044  1.00  0.00     0.000 A 
ENDBRANCH   6   7
ENDBRANCH   1   6
TORSDOF 4
ENDMDL
MODEL 4
REMARK VINA RESULT:      -6.8      3.351      5.084
REMARK SMILES O=C(O)CCc1ccccc1
REMARK SMILES IDX 4 1 2 2 1 3 3 4 5 6 6 7 7 8 11 9 8 10 10 11 9 12
REMARK H PARENT 3 5
REMARK Flexibility Score: inf
ROOT
ATOM      1  C   UNL     1       5.002   1.787   0.720  1.00  0.00     0.127 C 
ENDROOT
BRANCH   1   2
ATOM      2  C   UNL     1       4.478   1.115   1.922  1.00  0.00     0.303 C 
ATOM      3  O   UNL     1       5.165   0.216   2.461  1.00  0.00    -0.252 OA
BRANCH   2   4
ATOM      4  O   UNL     1       3.252   1.456   2.460  1.00  0.00    -0.481 OA
ATOM      5  H   UNL     1       2.480   1.875   1.909  1.00  0.00     0.296 HD
ENDBRANCH   2   4
ENDBRANCH   1   2
BRANCH   1   6
ATOM      6  C   UNL     1       6.523   1.729   0.802  1.00  0.00     0.047 C 
BRANCH   6   7
ATOM      7  C   UNL     1       7.111   0.965  -0.312  1.00  0.00    -0.047 A 
ATOM      8  C   UNL     1       8.437   1.213  -0.648  1.00  0.00     0.004 A 
ATOM      9  C   UNL     1       6.447   0.024  -1.056  1.00  0.00     0.004 A 
ATOM     10  C   UNL     1       9.026   0.516  -1.701  1.00  0.00     0.000 A 
ATOM     11  C   UNL     1       7.002  -0.684  -2.103  1.00  0.00     0.000 A 
ATOM     12  C   UNL     1       8.321  -0.415  -2.414  1.00  0.00     0.000 A 
ENDBRANCH   6   7
ENDBRANCH   1   6
TORSDOF 4
ENDMDL
MODEL 5
REMARK VINA RESULT:      -6.6      3.813      5.038
REMARK SMILES O=C(O)CCc1ccccc1
REMARK SMILES IDX 4 1 2 2 1 3 3 4 5 6 6 7 7 8 11 9 8 10 10 11 9 12
REMARK H PARENT 3 5
REMARK Flexibility Score: inf
ROOT
ATOM      1  C   UNL     1       5.473   2.920   0.020  1.00  0.00     0.127 C 
ENDROOT
BRANCH   1   2
ATOM      2  C   UNL     1       6.239   3.899   0.811  1.00  0.00     0.303 C 
ATOM      3  O   UNL     1       6.904   4.775   0.209  1.00  0.00    -0.252 OA
BRANCH   2   4
ATOM      4  O   UNL     1       6.237   3.869   2.192  1.00  0.00    -0.481 OA
ATOM      5  H   UNL     1       5.721   3.163   2.749  1.00  0.00     0.296 HD
ENDBRANCH   2   4
ENDBRANCH   1   2
BRANCH   1   6
ATOM      6  C   UNL     1       4.911   1.894   0.999  1.00  0.00     0.047 C 
BRANCH   6   7
ATOM      7  C   UNL     1       5.694   0.646   1.006  1.00  0.00    -0.047 A 
ATOM      8  C   UNL     1       6.341   0.274  -0.167  1.00  0.00     0.004 A 
ATOM      9  C   UNL     1       5.831  -0.189   2.084  1.00  0.00     0.004 A 
ATOM     10  C   UNL     1       7.085  -0.904  -0.202  1.00  0.00     0.000 A 
ATOM     11  C   UNL     1       6.561  -1.361   2.081  1.00  0.00     0.000 A 
ATOM     12  C   UNL     1       7.192  -1.706   0.902  1.00  0.00     0.000 A 
ENDBRANCH   6   7
ENDBRANCH   1   6
TORSDOF 4
ENDMDL
