@<TRIPOS>MOLECULE
/home/cewinharhar/GITHUB/reincatalyze/data/processed/docking_pred/2023-Apr-25-1829_maxeplen10_maxtrainstep200_exh32_gamma099_lrac3e-4_lrcr1e-3/d6fa7c89c21ca11aa73af88b15ecc664e93337c3_ligand_2.pdbqt
 12 12 0 0 0
SMALL
GASTEIGER

@<TRIPOS>ATOM
      1  C          8.4740   -0.6960   -2.0490 C.3     1  UNL1        0.1270
      2  C          8.4810   -1.9160   -2.8750 C.2     1  UNL1        0.3030
      3  O          9.5760   -2.4690   -3.1290 O.2     1  UNL1       -0.2520
      4  O          7.3090   -2.4560   -3.3700 O.3     1  UNL1       -0.4810
      5  H          7.2190   -3.4410   -3.6820 H       1  UNL1        0.2960
      6  C          7.0800   -0.0880   -2.1590 C.3     1  UNL1        0.0470
      7  C          6.4760    0.1580   -0.8380 C.2     1  UNL1       -0.0470
      8  C          6.6140   -0.8210    0.1380 C.2     1  UNL1        0.0040
      9  C          5.7760    1.2860   -0.4930 C.2     1  UNL1        0.0040
     10  C          6.0510   -0.6280    1.3980 C.2     1  UNL1        0.0000
     11  C          5.2070    1.5070    0.7460 C.2     1  UNL1        0.0000
     12  C          5.3600    0.5150    1.6950 C.2     1  UNL1        0.0000
@<TRIPOS>BOND
     1     5     4    1
     2     4     2    1
     3     3     2    2
     4     2     1    1
     5     6     1    1
     6     6     7    1
     7     7     9    2
     8     7     8    1
     9     9    11    1
    10     8    10    2
    11    11    12    2
    12    10    12    1
