@<TRIPOS>MOLECULE
/home/cewinharhar/GITHUB/reincatalyze/data/processed/docking_pred/2023-Apr-25-1829_maxeplen10_maxtrainstep200_exh32_gamma099_lrac3e-4_lrcr1e-3/d6fa7c89c21ca11aa73af88b15ecc664e93337c3_ligand_2.pdbqt
 12 12 0 0 0
SMALL
GASTEIGER

@<TRIPOS>ATOM
      1  C          7.9480   -0.7770   -2.1340 C.3     1  UNL1        0.1270
      2  C          8.2190   -1.9520   -2.9820 C.2     1  UNL1        0.3030
      3  O          9.3950   -2.3770   -3.0690 O.2     1  UNL1       -0.2520
      4  O          7.2070   -2.5880   -3.6750 O.3     1  UNL1       -0.4810
      5  H          7.1590   -3.6150   -3.8050 H       1  UNL1        0.2960
      6  C          7.3870   -1.2970   -0.8150 C.3     1  UNL1        0.0470
      7  C          6.5380   -0.2990   -0.1400 C.2     1  UNL1       -0.0470
      8  C          6.1940    0.8490   -0.8440 C.2     1  UNL1        0.0040
      9  C          6.0620   -0.4110    1.1400 C.2     1  UNL1        0.0040
     10  C          5.3980    1.8190   -0.2380 C.2     1  UNL1        0.0000
     11  C          5.2720    0.5320    1.7680 C.2     1  UNL1        0.0000
     12  C          4.9460    1.6620    1.0440 C.2     1  UNL1        0.0000
@<TRIPOS>BOND
     1     5     4    1
     2     4     2    1
     3     3     2    2
     4     2     1    1
     5     1     6    1
     6     8    10    1
     7     8     7    2
     8     6     7    1
     9    10    12    2
    10     7     9    1
    11    12    11    1
    12     9    11    2
