@<TRIPOS>MOLECULE
/home/cewinharhar/GITHUB/reincatalyze/data/processed/docking_pred/2023-Apr-25-1829_maxeplen10_maxtrainstep200_exh32_gamma099_lrac3e-4_lrcr1e-3/d6fa7c89c21ca11aa73af88b15ecc664e93337c3_ligand_2.pdbqt
 12 12 0 0 0
SMALL
GASTEIGER

@<TRIPOS>ATOM
      1  C          5.0020    1.7870    0.7200 C.3     1  UNL1        0.1270
      2  C          4.4780    1.1150    1.9220 C.2     1  UNL1        0.3030
      3  O          5.1650    0.2160    2.4610 O.2     1  UNL1       -0.2520
      4  O          3.2520    1.4560    2.4600 O.3     1  UNL1       -0.4810
      5  H          2.4800    1.8750    1.9090 H       1  UNL1        0.2960
      6  C          6.5230    1.7290    0.8020 C.3     1  UNL1        0.0470
      7  C          7.1110    0.9650   -0.3120 C.2     1  UNL1       -0.0470
      8  C          8.4370    1.2130   -0.6480 C.2     1  UNL1        0.0040
      9  C          6.4470    0.0240   -1.0560 C.2     1  UNL1        0.0040
     10  C          9.0260    0.5160   -1.7010 C.2     1  UNL1        0.0000
     11  C          7.0020   -0.6840   -2.1030 C.2     1  UNL1        0.0000
     12  C          8.3210   -0.4150   -2.4140 C.2     1  UNL1        0.0000
@<TRIPOS>BOND
     1    12    11    2
     2    12    10    1
     3    11     9    1
     4    10     8    2
     5     9     7    2
     6     8     7    1
     7     7     6    1
     8     1     6    1
     9     1     2    1
    10     5     4    1
    11     2     4    1
    12     2     3    2
