@<TRIPOS>MOLECULE
/home/cewinharhar/GITHUB/reincatalyze/data/processed/docking_pred/2023-Apr-25-1829_maxeplen10_maxtrainstep200_exh32_gamma099_lrac3e-4_lrcr1e-3/d6fa7c89c21ca11aa73af88b15ecc664e93337c3_ligand_2.pdbqt
 12 12 0 0 0
SMALL
GASTEIGER

@<TRIPOS>ATOM
      1  C          8.4640   -0.5850   -2.2570 C.3     1  UNL1        0.1270
      2  C          8.4790   -1.8970   -2.9270 C.2     1  UNL1        0.3030
      3  O          9.5720   -2.4990   -3.0540 O.2     1  UNL1       -0.2520
      4  O          7.3200   -2.4700   -3.4140 O.3     1  UNL1       -0.4810
      5  H          6.9570   -3.3870   -3.0940 H       1  UNL1        0.2960
      6  C          7.0130   -0.1200   -2.2140 C.3     1  UNL1        0.0470
      7  C          6.5070   -0.0040   -0.8350 C.2     1  UNL1       -0.0470
      8  C          5.9000    1.1880   -0.4590 C.2     1  UNL1        0.0040
      9  C          6.5930   -0.9860    0.1180 C.2     1  UNL1        0.0040
     10  C          5.4150    1.3390    0.8390 C.2     1  UNL1        0.0000
     11  C          6.1220   -0.8680    1.4110 C.2     1  UNL1        0.0000
     12  C          5.5250    0.3290    1.7550 C.2     1  UNL1        0.0000
@<TRIPOS>BOND
     1     4     5    1
     2     4     2    1
     3     3     2    2
     4     2     1    1
     5     1     6    1
     6     6     7    1
     7     7     8    2
     8     7     9    1
     9     8    10    1
    10     9    11    2
    11    10    12    2
    12    11    12    1
