@<TRIPOS>MOLECULE
/home/cewinharhar/GITHUB/reincatalyze/data/processed/docking_pred/2023-Apr-25-1829_maxeplen10_maxtrainstep200_exh32_gamma099_lrac3e-4_lrcr1e-3/d7d9c72b52c2e0a01b4806f6bcc2a503b8c9528b_ligand_2.pdbqt
 12 12 0 0 0
SMALL
GASTEIGER

@<TRIPOS>ATOM
      1  C          8.2290    0.2670   -2.0320 C.3     1  UNL1        0.1270
      2  C          9.4140    0.3780   -1.1630 C.2     1  UNL1        0.3030
      3  O          9.5040   -0.3740   -0.1640 O.2     1  UNL1       -0.2520
      4  O         10.4180    1.2890   -1.4280 O.3     1  UNL1       -0.4810
      5  H         10.3030    2.0990   -2.0640 H       1  UNL1        0.2960
      6  C          7.2260   -0.6270   -1.3110 C.3     1  UNL1        0.0470
      7  C          6.3890    0.1290   -0.3630 C.2     1  UNL1       -0.0470
      8  C          6.1440   -0.4320    0.8850 C.2     1  UNL1        0.0040
      9  C          5.8230    1.3510   -0.6180 C.2     1  UNL1        0.0040
     10  C          5.3520    0.2500    1.8060 C.2     1  UNL1        0.0000
     11  C          5.0340    2.0510    0.2740 C.2     1  UNL1        0.0000
     12  C          4.8070    1.4680    1.5050 C.2     1  UNL1        0.0000
@<TRIPOS>BOND
     1     5     4    1
     2     1     6    1
     3     1     2    1
     4     4     2    1
     5     6     7    1
     6     2     3    2
     7     9     7    2
     8     9    11    1
     9     7     8    1
    10    11    12    2
    11     8    10    2
    12    12    10    1
