@<TRIPOS>MOLECULE
/home/cewinharhar/GITHUB/reincatalyze/data/processed/docking_pred/2023-Apr-25-1829_maxeplen10_maxtrainstep200_exh32_gamma099_lrac3e-4_lrcr1e-3/d7d9c72b52c2e0a01b4806f6bcc2a503b8c9528b_ligand_2.pdbqt
 12 12 0 0 0
SMALL
GASTEIGER

@<TRIPOS>ATOM
      1  C          8.4230   -0.7960   -1.9450 C.3     1  UNL1        0.1270
      2  C          8.3940   -1.9660   -2.8410 C.2     1  UNL1        0.3030
      3  O          7.2860   -2.3930   -3.2430 O.2     1  UNL1       -0.2520
      4  O          9.5580   -2.5940   -3.2420 O.3     1  UNL1       -0.4810
      5  H         10.0630   -3.2890   -2.6620 H       1  UNL1        0.2960
      6  C          7.0690   -0.1070   -2.0650 C.3     1  UNL1        0.0470
      7  C          6.4570    0.1500   -0.7490 C.2     1  UNL1       -0.0470
      8  C          6.5510   -0.8420    0.2200 C.2     1  UNL1        0.0040
      9  C          5.7930    1.2980   -0.4020 C.2     1  UNL1        0.0040
     10  C          5.9800   -0.6390    1.4750 C.2     1  UNL1        0.0000
     11  C          5.2180    1.5290    0.8310 C.2     1  UNL1        0.0000
     12  C          5.3250    0.5250    1.7740 C.2     1  UNL1        0.0000
@<TRIPOS>BOND
     1     3     2    2
     2     4     2    1
     3     4     5    1
     4     2     1    1
     5     6     1    1
     6     6     7    1
     7     7     9    2
     8     7     8    1
     9     9    11    1
    10     8    10    2
    11    11    12    2
    12    10    12    1
