MODEL 1
REMARK VINA RESULT:      -7.3      0.000      0.000
REMARK SMILES O=C(O)CCc1ccccc1
REMARK SMILES IDX 4 1 2 2 1 3 3 4 5 6 6 7 7 8 11 9 8 10 10 11 9 12
REMARK H PARENT 3 5
REMARK Flexibility Score: inf
ROOT
ATOM      1  C   UNL     1       8.457  -0.582  -2.232  1.00  0.00     0.127 C 
ENDROOT
BRANCH   1   2
ATOM      2  C   UNL     1       8.469  -1.886  -2.917  1.00  0.00     0.303 C 
ATOM      3  O   UNL     1       9.561  -2.486  -3.056  1.00  0.00    -0.252 OA
BRANCH   2   4
ATOM      4  O   UNL     1       7.308  -2.455  -3.404  1.00  0.00    -0.481 OA
ATOM      5  H   UNL     1       6.974  -3.398  -3.132  1.00  0.00     0.296 HD
ENDBRANCH   2   4
ENDBRANCH   1   2
BRANCH   1   6
ATOM      6  C   UNL     1       7.008  -0.111  -2.192  1.00  0.00     0.047 C 
BRANCH   6   7
ATOM      7  C   UNL     1       6.498   0.003  -0.814  1.00  0.00    -0.047 A 
ATOM      8  C   UNL     1       5.883   1.192  -0.441  1.00  0.00     0.004 A 
ATOM      9  C   UNL     1       6.588  -0.978   0.140  1.00  0.00     0.004 A 
ATOM     10  C   UNL     1       5.393   1.339   0.856  1.00  0.00     0.000 A 
ATOM     11  C   UNL     1       6.113  -0.862   1.431  1.00  0.00     0.000 A 
ATOM     12  C   UNL     1       5.507   0.331   1.774  1.00  0.00     0.000 A 
ENDBRANCH   6   7
ENDBRANCH   1   6
TORSDOF 4
ENDMDL
MODEL 2
REMARK VINA RESULT:      -7.2      0.219      1.738
REMARK SMILES O=C(O)CCc1ccccc1
REMARK SMILES IDX 4 1 2 2 1 3 3 4 5 6 6 7 7 8 11 9 8 10 10 11 9 12
REMARK H PARENT 3 5
REMARK Flexibility Score: inf
ROOT
ATOM      1  C   UNL     1       8.423  -0.796  -1.945  1.00  0.00     0.127 C 
ENDROOT
BRANCH   1   2
ATOM      2  C   UNL     1       8.394  -1.966  -2.841  1.00  0.00     0.303 C 
ATOM      3  O   UNL     1       7.286  -2.393  -3.243  1.00  0.00    -0.252 OA
BRANCH   2   4
ATOM      4  O   UNL     1       9.558  -2.594  -3.242  1.00  0.00    -0.481 OA
ATOM      5  H   UNL     1      10.063  -3.289  -2.662  1.00  0.00     0.296 HD
ENDBRANCH   2   4
ENDBRANCH   1   2
BRANCH   1   6
ATOM      6  C   UNL     1       7.069  -0.107  -2.065  1.00  0.00     0.047 C 
BRANCH   6   7
ATOM      7  C   UNL     1       6.457   0.150  -0.749  1.00  0.00    -0.047 A 
ATOM      8  C   UNL     1       6.551  -0.842   0.220  1.00  0.00     0.004 A 
ATOM      9  C   UNL     1       5.793   1.298  -0.402  1.00  0.00     0.004 A 
ATOM     10  C   UNL     1       5.980  -0.639   1.475  1.00  0.00     0.000 A 
ATOM     11  C   UNL     1       5.218   1.529   0.831  1.00  0.00     0.000 A 
ATOM     12  C   UNL     1       5.325   0.525   1.774  1.00  0.00     0.000 A 
ENDBRANCH   6   7
ENDBRANCH   1   6
TORSDOF 4
ENDMDL
MODEL 3
REMARK VINA RESULT:      -6.8      3.371      5.052
REMARK SMILES O=C(O)CCc1ccccc1
REMARK SMILES IDX 4 1 2 2 1 3 3 4 5 6 6 7 7 8 11 9 8 10 10 11 9 12
REMARK H PARENT 3 5
REMARK Flexibility Score: inf
ROOT
ATOM      1  C   UNL     1       4.977   1.780   0.725  1.00  0.00     0.127 C 
ENDROOT
BRANCH   1   2
ATOM      2  C   UNL     1       4.458   1.103   1.926  1.00  0.00     0.303 C 
ATOM      3  O   UNL     1       5.143   0.195   2.453  1.00  0.00    -0.252 OA
BRANCH   2   4
ATOM      4  O   UNL     1       3.240   1.450   2.478  1.00  0.00    -0.481 OA
ATOM      5  H   UNL     1       2.383   1.615   1.918  1.00  0.00     0.296 HD
ENDBRANCH   2   4
ENDBRANCH   1   2
BRANCH   1   6
ATOM      6  C   UNL     1       6.499   1.735   0.808  1.00  0.00     0.047 C 
BRANCH   6   7
ATOM      7  C   UNL     1       7.094   0.973  -0.304  1.00  0.00    -0.047 A 
ATOM      8  C   UNL     1       8.417   1.234  -0.641  1.00  0.00     0.004 A 
ATOM      9  C   UNL     1       6.439   0.023  -1.044  1.00  0.00     0.004 A 
ATOM     10  C   UNL     1       9.014   0.538  -1.691  1.00  0.00     0.000 A 
ATOM     11  C   UNL     1       7.002  -0.683  -2.089  1.00  0.00     0.000 A 
ATOM     12  C   UNL     1       8.318  -0.402  -2.401  1.00  0.00     0.000 A 
ENDBRANCH   6   7
ENDBRANCH   1   6
TORSDOF 4
ENDMDL
MODEL 4
REMARK VINA RESULT:      -6.7      3.816      4.977
REMARK SMILES O=C(O)CCc1ccccc1
REMARK SMILES IDX 4 1 2 2 1 3 3 4 5 6 6 7 7 8 11 9 8 10 10 11 9 12
REMARK H PARENT 3 5
REMARK Flexibility Score: inf
ROOT
ATOM      1  C   UNL     1       5.465   2.912  -0.019  1.00  0.00     0.127 C 
ENDROOT
BRANCH   1   2
ATOM      2  C   UNL     1       6.238   3.866   0.796  1.00  0.00     0.303 C 
ATOM      3  O   UNL     1       6.883   4.772   0.217  1.00  0.00    -0.252 OA
BRANCH   2   4
ATOM      4  O   UNL     1       6.262   3.781   2.174  1.00  0.00    -0.481 OA
ATOM      5  H   UNL     1       6.436   2.899   2.691  1.00  0.00     0.296 HD
ENDBRANCH   2   4
ENDBRANCH   1   2
BRANCH   1   6
ATOM      6  C   UNL     1       4.918   1.852   0.931  1.00  0.00     0.047 C 
BRANCH   6   7
ATOM      7  C   UNL     1       5.712   0.611   0.895  1.00  0.00    -0.047 A 
ATOM      8  C   UNL     1       5.773  -0.159   2.050  1.00  0.00     0.004 A 
ATOM      9  C   UNL     1       6.407   0.154  -0.195  1.00  0.00     0.004 A 
ATOM     10  C   UNL     1       6.519  -1.336   2.058  1.00  0.00     0.000 A 
ATOM     11  C   UNL     1       7.154  -1.006  -0.219  1.00  0.00     0.000 A 
ATOM     12  C   UNL     1       7.197  -1.751   0.944  1.00  0.00     0.000 A 
ENDBRANCH   6   7
ENDBRANCH   1   6
TORSDOF 4
ENDMDL
MODEL 5
REMARK VINA RESULT:      -6.6      1.965      2.657
REMARK SMILES O=C(O)CCc1ccccc1
REMARK SMILES IDX 4 1 2 2 1 3 3 4 5 6 6 7 7 8 11 9 8 10 10 11 9 12
REMARK H PARENT 3 5
REMARK Flexibility Score: inf
ROOT
ATOM      1  C   UNL     1       8.229   0.267  -2.032  1.00  0.00     0.127 C 
ENDROOT
BRANCH   1   2
ATOM      2  C   UNL     1       9.414   0.378  -1.163  1.00  0.00     0.303 C 
ATOM      3  O   UNL     1       9.504  -0.374  -0.164  1.00  0.00    -0.252 OA
BRANCH   2   4
ATOM      4  O   UNL     1      10.418   1.289  -1.428  1.00  0.00    -0.481 OA
ATOM      5  H   UNL     1      10.303   2.099  -2.064  1.00  0.00     0.296 HD
ENDBRANCH   2   4
ENDBRANCH   1   2
BRANCH   1   6
ATOM      6  C   UNL     1       7.226  -0.627  -1.311  1.00  0.00     0.047 C 
BRANCH   6   7
ATOM      7  C   UNL     1       6.389   0.129  -0.363  1.00  0.00    -0.047 A 
ATOM      8  C   UNL     1       6.144  -0.432   0.885  1.00  0.00     0.004 A 
ATOM      9  C   UNL     1       5.823   1.351  -0.618  1.00  0.00     0.004 A 
ATOM     10  C   UNL     1       5.352   0.250   1.806  1.00  0.00     0.000 A 
ATOM     11  C   UNL     1       5.034   2.051   0.274  1.00  0.00     0.000 A 
ATOM     12  C   UNL     1       4.807   1.468   1.505  1.00  0.00     0.000 A 
ENDBRANCH   6   7
ENDBRANCH   1   6
TORSDOF 4
ENDMDL
