@<TRIPOS>MOLECULE
/home/cewinharhar/GITHUB/reincatalyze/data/processed/docking_pred/2023-Apr-25-1829_maxeplen10_maxtrainstep200_exh32_gamma099_lrac3e-4_lrcr1e-3/d7d9c72b52c2e0a01b4806f6bcc2a503b8c9528b_ligand_2.pdbqt
 12 12 0 0 0
SMALL
GASTEIGER

@<TRIPOS>ATOM
      1  C          4.9770    1.7800    0.7250 C.3     1  UNL1        0.1270
      2  C          4.4580    1.1030    1.9260 C.2     1  UNL1        0.3030
      3  O          5.1430    0.1950    2.4530 O.2     1  UNL1       -0.2520
      4  O          3.2400    1.4500    2.4780 O.3     1  UNL1       -0.4810
      5  H          2.3830    1.6150    1.9180 H       1  UNL1        0.2960
      6  C          6.4990    1.7350    0.8080 C.3     1  UNL1        0.0470
      7  C          7.0940    0.9730   -0.3040 C.2     1  UNL1       -0.0470
      8  C          8.4170    1.2340   -0.6410 C.2     1  UNL1        0.0040
      9  C          6.4390    0.0230   -1.0440 C.2     1  UNL1        0.0040
     10  C          9.0140    0.5380   -1.6910 C.2     1  UNL1        0.0000
     11  C          7.0020   -0.6830   -2.0890 C.2     1  UNL1        0.0000
     12  C          8.3180   -0.4020   -2.4010 C.2     1  UNL1        0.0000
@<TRIPOS>BOND
     1    12    11    2
     2    12    10    1
     3    11     9    1
     4    10     8    2
     5     9     7    2
     6     8     7    1
     7     7     6    1
     8     1     6    1
     9     1     2    1
    10     5     4    1
    11     2     3    2
    12     2     4    1
