@<TRIPOS>MOLECULE
/home/cewinharhar/GITHUB/reincatalyze/data/processed/docking_pred/2023-Apr-25-1829_maxeplen10_maxtrainstep200_exh32_gamma099_lrac3e-4_lrcr1e-3/d7d9c72b52c2e0a01b4806f6bcc2a503b8c9528b_ligand_2.pdbqt
 12 12 0 0 0
SMALL
GASTEIGER

@<TRIPOS>ATOM
      1  C          8.4570   -0.5820   -2.2320 C.3     1  UNL1        0.1270
      2  C          8.4690   -1.8860   -2.9170 C.2     1  UNL1        0.3030
      3  O          9.5610   -2.4860   -3.0560 O.2     1  UNL1       -0.2520
      4  O          7.3080   -2.4550   -3.4040 O.3     1  UNL1       -0.4810
      5  H          6.9740   -3.3980   -3.1320 H       1  UNL1        0.2960
      6  C          7.0080   -0.1110   -2.1920 C.3     1  UNL1        0.0470
      7  C          6.4980    0.0030   -0.8140 C.2     1  UNL1       -0.0470
      8  C          5.8830    1.1920   -0.4410 C.2     1  UNL1        0.0040
      9  C          6.5880   -0.9780    0.1400 C.2     1  UNL1        0.0040
     10  C          5.3930    1.3390    0.8560 C.2     1  UNL1        0.0000
     11  C          6.1130   -0.8620    1.4310 C.2     1  UNL1        0.0000
     12  C          5.5070    0.3310    1.7740 C.2     1  UNL1        0.0000
@<TRIPOS>BOND
     1     4     5    1
     2     4     2    1
     3     3     2    2
     4     2     1    1
     5     1     6    1
     6     6     7    1
     7     7     8    2
     8     7     9    1
     9     8    10    1
    10     9    11    2
    11    10    12    2
    12    11    12    1
