@<TRIPOS>MOLECULE
/home/cewinharhar/GITHUB/reincatalyze/data/processed/docking_pred/2023-Apr-25-1829_maxeplen10_maxtrainstep200_exh32_gamma099_lrac3e-4_lrcr1e-3/d7d9c72b52c2e0a01b4806f6bcc2a503b8c9528b_ligand_2.pdbqt
 12 12 0 0 0
SMALL
GASTEIGER

@<TRIPOS>ATOM
      1  C          5.4650    2.9120   -0.0190 C.3     1  UNL1        0.1270
      2  C          6.2380    3.8660    0.7960 C.2     1  UNL1        0.3030
      3  O          6.8830    4.7720    0.2170 O.2     1  UNL1       -0.2520
      4  O          6.2620    3.7810    2.1740 O.3     1  UNL1       -0.4810
      5  H          6.4360    2.8990    2.6910 H       1  UNL1        0.2960
      6  C          4.9180    1.8520    0.9310 C.3     1  UNL1        0.0470
      7  C          5.7120    0.6110    0.8950 C.2     1  UNL1       -0.0470
      8  C          5.7730   -0.1590    2.0500 C.2     1  UNL1        0.0040
      9  C          6.4070    0.1540   -0.1950 C.2     1  UNL1        0.0040
     10  C          6.5190   -1.3360    2.0580 C.2     1  UNL1        0.0000
     11  C          7.1540   -1.0060   -0.2190 C.2     1  UNL1        0.0000
     12  C          7.1970   -1.7510    0.9440 C.2     1  UNL1        0.0000
@<TRIPOS>BOND
     1    11     9    1
     2    11    12    2
     3     9     7    2
     4     1     2    1
     5     1     6    1
     6     3     2    2
     7     2     4    1
     8     7     6    1
     9     7     8    1
    10    12    10    1
    11     8    10    2
    12     4     5    1
