@<TRIPOS>MOLECULE
/home/cewinharhar/GITHUB/reincatalyze/data/processed/docking_pred/2023-Apr-25-1829_maxeplen10_maxtrainstep200_exh32_gamma099_lrac3e-4_lrcr1e-3/db02e8dbba2ca978bde564db4603195d7659b46f_ligand_2.pdbqt
 12 12 0 0 0
SMALL
GASTEIGER

@<TRIPOS>ATOM
      1  C          7.9740   -2.2370    0.8310 C.3     1  UNL1        0.1270
      2  C          8.7630   -3.3700    0.3170 C.2     1  UNL1        0.3030
      3  O          9.6230   -3.8970    1.0630 O.2     1  UNL1       -0.2520
      4  O          8.5730   -3.8590   -0.9610 O.3     1  UNL1       -0.4810
      5  H          8.4140   -3.2550   -1.7880 H       1  UNL1        0.2960
      6  C          7.4430   -1.4760   -0.3790 C.3     1  UNL1        0.0470
      7  C          6.5940   -0.3360    0.0110 C.2     1  UNL1       -0.0470
      8  C          6.0660   -0.3230    1.2960 C.2     1  UNL1        0.0040
      9  C          6.2750    0.7200   -0.8040 C.2     1  UNL1        0.0040
     10  C          5.2540    0.7350    1.7000 C.2     1  UNL1        0.0000
     11  C          5.4740    1.7810   -0.4340 C.2     1  UNL1        0.0000
     12  C          4.9630    1.7660    0.8500 C.2     1  UNL1        0.0000
@<TRIPOS>BOND
     1     5     4    1
     2     4     2    1
     3     9    11    1
     4     9     7    2
     5    11    12    2
     6     6     7    1
     7     6     1    1
     8     7     8    1
     9     2     1    1
    10     2     3    2
    11    12    10    1
    12     8    10    2
