@<TRIPOS>MOLECULE
/home/cewinharhar/GITHUB/reincatalyze/data/processed/docking_pred/2023-Apr-25-1829_maxeplen10_maxtrainstep200_exh32_gamma099_lrac3e-4_lrcr1e-3/db02e8dbba2ca978bde564db4603195d7659b46f_ligand_2.pdbqt
 12 12 0 0 0
SMALL
GASTEIGER

@<TRIPOS>ATOM
      1  C          8.4570   -0.6920   -2.0690 C.3     1  UNL1        0.1270
      2  C          8.4670   -1.9250   -2.8760 C.2     1  UNL1        0.3030
      3  O          9.5590   -2.5070   -3.0780 O.2     1  UNL1       -0.2520
      4  O          7.3040   -2.4480   -3.4070 O.3     1  UNL1       -0.4810
      5  H          7.0410   -2.3630   -4.4060 H       1  UNL1        0.2960
      6  C          7.0430   -0.1250   -2.1370 C.3     1  UNL1        0.0470
      7  C          6.4700    0.1010   -0.7980 C.2     1  UNL1       -0.0470
      8  C          6.5810   -0.9180    0.1410 C.2     1  UNL1        0.0040
      9  C          5.8250    1.2440   -0.4030 C.2     1  UNL1        0.0040
     10  C          6.0460   -0.7440    1.4160 C.2     1  UNL1        0.0000
     11  C          5.2850    1.4460    0.8520 C.2     1  UNL1        0.0000
     12  C          5.4100    0.4160    1.7630 C.2     1  UNL1        0.0000
@<TRIPOS>BOND
     1     5     4    1
     2     4     2    1
     3     3     2    2
     4     2     1    1
     5     6     1    1
     6     6     7    1
     7     7     9    2
     8     7     8    1
     9     9    11    1
    10     8    10    2
    11    11    12    2
    12    10    12    1
