@<TRIPOS>MOLECULE
/home/cewinharhar/GITHUB/reincatalyze/data/processed/docking_pred/2023-Apr-25-1829_maxeplen10_maxtrainstep200_exh32_gamma099_lrac3e-4_lrcr1e-3/db02e8dbba2ca978bde564db4603195d7659b46f_ligand_2.pdbqt
 12 12 0 0 0
SMALL
GASTEIGER

@<TRIPOS>ATOM
      1  C          4.9990    1.8030    0.7600 C.3     1  UNL1        0.1270
      2  C          4.4590    1.1170    1.9470 C.2     1  UNL1        0.3030
      3  O          5.1370    0.2080    2.4820 O.2     1  UNL1       -0.2520
      4  O          3.2290    1.4580    2.4780 O.3     1  UNL1       -0.4810
      5  H          2.8150    2.4060    2.4030 H       1  UNL1        0.2960
      6  C          6.5180    1.7730    0.8770 C.3     1  UNL1        0.0470
      7  C          7.1500    1.0810   -0.2600 C.2     1  UNL1       -0.0470
      8  C          6.3670    0.2200   -1.0190 C.2     1  UNL1        0.0040
      9  C          8.4640    1.2180   -0.6310 C.2     1  UNL1        0.0040
     10  C          6.9310   -0.4570   -2.0990 C.2     1  UNL1        0.0000
     11  C          9.0500    0.5620   -1.6950 C.2     1  UNL1        0.0000
     12  C          8.2480   -0.2880   -2.4290 C.2     1  UNL1        0.0000
@<TRIPOS>BOND
     1    12    10    2
     2    12    11    1
     3    10     8    1
     4    11     9    2
     5     8     7    2
     6     9     7    1
     7     7     6    1
     8     1     6    1
     9     1     2    1
    10     2     4    1
    11     2     3    2
    12     5     4    1
