MODEL 1
REMARK VINA RESULT:      -7.3      0.000      0.000
REMARK SMILES O=C(O)CCc1ccccc1
REMARK SMILES IDX 4 1 2 2 1 3 3 4 5 6 6 7 7 8 11 9 8 10 10 11 9 12
REMARK H PARENT 3 5
REMARK Flexibility Score: inf
ROOT
ATOM      1  C   UNL     1       8.457  -0.692  -2.069  1.00  0.00     0.127 C 
ENDROOT
BRANCH   1   2
ATOM      2  C   UNL     1       8.467  -1.925  -2.876  1.00  0.00     0.303 C 
ATOM      3  O   UNL     1       9.559  -2.507  -3.078  1.00  0.00    -0.252 OA
BRANCH   2   4
ATOM      4  O   UNL     1       7.304  -2.448  -3.407  1.00  0.00    -0.481 OA
ATOM      5  H   UNL     1       7.041  -2.363  -4.406  1.00  0.00     0.296 HD
ENDBRANCH   2   4
ENDBRANCH   1   2
BRANCH   1   6
ATOM      6  C   UNL     1       7.043  -0.125  -2.137  1.00  0.00     0.047 C 
BRANCH   6   7
ATOM      7  C   UNL     1       6.470   0.101  -0.798  1.00  0.00    -0.047 A 
ATOM      8  C   UNL     1       6.581  -0.918   0.141  1.00  0.00     0.004 A 
ATOM      9  C   UNL     1       5.825   1.244  -0.403  1.00  0.00     0.004 A 
ATOM     10  C   UNL     1       6.046  -0.744   1.416  1.00  0.00     0.000 A 
ATOM     11  C   UNL     1       5.285   1.446   0.852  1.00  0.00     0.000 A 
ATOM     12  C   UNL     1       5.410   0.416   1.763  1.00  0.00     0.000 A 
ENDBRANCH   6   7
ENDBRANCH   1   6
TORSDOF 4
ENDMDL
MODEL 2
REMARK VINA RESULT:      -7.3      0.087      1.432
REMARK SMILES O=C(O)CCc1ccccc1
REMARK SMILES IDX 4 1 2 2 1 3 3 4 5 6 6 7 7 8 11 9 8 10 10 11 9 12
REMARK H PARENT 3 5
REMARK Flexibility Score: inf
ROOT
ATOM      1  C   UNL     1       8.470  -0.596  -2.211  1.00  0.00     0.127 C 
ENDROOT
BRANCH   1   2
ATOM      2  C   UNL     1       8.469  -1.889  -2.917  1.00  0.00     0.303 C 
ATOM      3  O   UNL     1       9.552  -2.504  -3.056  1.00  0.00    -0.252 OA
BRANCH   2   4
ATOM      4  O   UNL     1       7.303  -2.431  -3.424  1.00  0.00    -0.481 OA
ATOM      5  H   UNL     1       6.494  -2.701  -2.835  1.00  0.00     0.296 HD
ENDBRANCH   2   4
ENDBRANCH   1   2
BRANCH   1   6
ATOM      6  C   UNL     1       7.031  -0.095  -2.189  1.00  0.00     0.047 C 
BRANCH   6   7
ATOM      7  C   UNL     1       6.505   0.028  -0.818  1.00  0.00    -0.047 A 
ATOM      8  C   UNL     1       5.887   1.220  -0.459  1.00  0.00     0.004 A 
ATOM      9  C   UNL     1       6.584  -0.947   0.143  1.00  0.00     0.004 A 
ATOM     10  C   UNL     1       5.383   1.376   0.831  1.00  0.00     0.000 A 
ATOM     11  C   UNL     1       6.095  -0.822   1.428  1.00  0.00     0.000 A 
ATOM     12  C   UNL     1       5.486   0.374   1.756  1.00  0.00     0.000 A 
ENDBRANCH   6   7
ENDBRANCH   1   6
TORSDOF 4
ENDMDL
MODEL 3
REMARK VINA RESULT:      -7.2      0.614      1.056
REMARK SMILES O=C(O)CCc1ccccc1
REMARK SMILES IDX 4 1 2 2 1 3 3 4 5 6 6 7 7 8 11 9 8 10 10 11 9 12
REMARK H PARENT 3 5
REMARK Flexibility Score: inf
ROOT
ATOM      1  C   UNL     1       8.274  -0.894  -1.917  1.00  0.00     0.127 C 
ENDROOT
BRANCH   1   2
ATOM      2  C   UNL     1       8.391  -2.022  -2.858  1.00  0.00     0.303 C 
ATOM      3  O   UNL     1       9.522  -2.518  -3.072  1.00  0.00    -0.252 OA
BRANCH   2   4
ATOM      4  O   UNL     1       7.283  -2.540  -3.502  1.00  0.00    -0.481 OA
ATOM      5  H   UNL     1       6.362  -2.065  -3.530  1.00  0.00     0.296 HD
ENDBRANCH   2   4
ENDBRANCH   1   2
BRANCH   1   6
ATOM      6  C   UNL     1       7.449  -1.382  -0.732  1.00  0.00     0.047 C 
BRANCH   6   7
ATOM      7  C   UNL     1       6.603  -0.316  -0.167  1.00  0.00    -0.047 A 
ATOM      8  C   UNL     1       6.155  -0.461   1.140  1.00  0.00     0.004 A 
ATOM      9  C   UNL     1       6.216   0.816  -0.836  1.00  0.00     0.004 A 
ATOM     10  C   UNL     1       5.348   0.523   1.708  1.00  0.00     0.000 A 
ATOM     11  C   UNL     1       5.418   1.809  -0.301  1.00  0.00     0.000 A 
ATOM     12  C   UNL     1       4.987   1.636   1.000  1.00  0.00     0.000 A 
ENDBRANCH   6   7
ENDBRANCH   1   6
TORSDOF 4
ENDMDL
MODEL 4
REMARK VINA RESULT:      -6.7      3.381      5.084
REMARK SMILES O=C(O)CCc1ccccc1
REMARK SMILES IDX 4 1 2 2 1 3 3 4 5 6 6 7 7 8 11 9 8 10 10 11 9 12
REMARK H PARENT 3 5
REMARK Flexibility Score: inf
ROOT
ATOM      1  C   UNL     1       4.999   1.803   0.760  1.00  0.00     0.127 C 
ENDROOT
BRANCH   1   2
ATOM      2  C   UNL     1       4.459   1.117   1.947  1.00  0.00     0.303 C 
ATOM      3  O   UNL     1       5.137   0.208   2.482  1.00  0.00    -0.252 OA
BRANCH   2   4
ATOM      4  O   UNL     1       3.229   1.458   2.478  1.00  0.00    -0.481 OA
ATOM      5  H   UNL     1       2.815   2.406   2.403  1.00  0.00     0.296 HD
ENDBRANCH   2   4
ENDBRANCH   1   2
BRANCH   1   6
ATOM      6  C   UNL     1       6.518   1.773   0.877  1.00  0.00     0.047 C 
BRANCH   6   7
ATOM      7  C   UNL     1       7.150   1.081  -0.260  1.00  0.00    -0.047 A 
ATOM      8  C   UNL     1       6.367   0.220  -1.019  1.00  0.00     0.004 A 
ATOM      9  C   UNL     1       8.464   1.218  -0.631  1.00  0.00     0.004 A 
ATOM     10  C   UNL     1       6.931  -0.457  -2.099  1.00  0.00     0.000 A 
ATOM     11  C   UNL     1       9.050   0.562  -1.695  1.00  0.00     0.000 A 
ATOM     12  C   UNL     1       8.248  -0.288  -2.429  1.00  0.00     0.000 A 
ENDBRANCH   6   7
ENDBRANCH   1   6
TORSDOF 4
ENDMDL
MODEL 5
REMARK VINA RESULT:      -6.6      2.008      2.489
REMARK SMILES O=C(O)CCc1ccccc1
REMARK SMILES IDX 4 1 2 2 1 3 3 4 5 6 6 7 7 8 11 9 8 10 10 11 9 12
REMARK H PARENT 3 5
REMARK Flexibility Score: inf
ROOT
ATOM      1  C   UNL     1       7.974  -2.237   0.831  1.00  0.00     0.127 C 
ENDROOT
BRANCH   1   2
ATOM      2  C   UNL     1       8.763  -3.370   0.317  1.00  0.00     0.303 C 
ATOM      3  O   UNL     1       9.623  -3.897   1.063  1.00  0.00    -0.252 OA
BRANCH   2   4
ATOM      4  O   UNL     1       8.573  -3.859  -0.961  1.00  0.00    -0.481 OA
ATOM      5  H   UNL     1       8.414  -3.255  -1.788  1.00  0.00     0.296 HD
ENDBRANCH   2   4
ENDBRANCH   1   2
BRANCH   1   6
ATOM      6  C   UNL     1       7.443  -1.476  -0.379  1.00  0.00     0.047 C 
BRANCH   6   7
ATOM      7  C   UNL     1       6.594  -0.336   0.011  1.00  0.00    -0.047 A 
ATOM      8  C   UNL     1       6.066  -0.323   1.296  1.00  0.00     0.004 A 
ATOM      9  C   UNL     1       6.275   0.720  -0.804  1.00  0.00     0.004 A 
ATOM     10  C   UNL     1       5.254   0.735   1.700  1.00  0.00     0.000 A 
ATOM     11  C   UNL     1       5.474   1.781  -0.434  1.00  0.00     0.000 A 
ATOM     12  C   UNL     1       4.963   1.766   0.850  1.00  0.00     0.000 A 
ENDBRANCH   6   7
ENDBRANCH   1   6
TORSDOF 4
ENDMDL
