@<TRIPOS>MOLECULE
/home/cewinharhar/GITHUB/reincatalyze/data/processed/docking_pred/2023-Apr-25-1829_maxeplen10_maxtrainstep200_exh32_gamma099_lrac3e-4_lrcr1e-3/db02e8dbba2ca978bde564db4603195d7659b46f_ligand_2.pdbqt
 12 12 0 0 0
SMALL
GASTEIGER

@<TRIPOS>ATOM
      1  C          8.4700   -0.5960   -2.2110 C.3     1  UNL1        0.1270
      2  C          8.4690   -1.8890   -2.9170 C.2     1  UNL1        0.3030
      3  O          9.5520   -2.5040   -3.0560 O.2     1  UNL1       -0.2520
      4  O          7.3030   -2.4310   -3.4240 O.3     1  UNL1       -0.4810
      5  H          6.4940   -2.7010   -2.8350 H       1  UNL1        0.2960
      6  C          7.0310   -0.0950   -2.1890 C.3     1  UNL1        0.0470
      7  C          6.5050    0.0280   -0.8180 C.2     1  UNL1       -0.0470
      8  C          5.8870    1.2200   -0.4590 C.2     1  UNL1        0.0040
      9  C          6.5840   -0.9470    0.1430 C.2     1  UNL1        0.0040
     10  C          5.3830    1.3760    0.8310 C.2     1  UNL1        0.0000
     11  C          6.0950   -0.8220    1.4280 C.2     1  UNL1        0.0000
     12  C          5.4860    0.3740    1.7560 C.2     1  UNL1        0.0000
@<TRIPOS>BOND
     1     4     2    1
     2     4     5    1
     3     3     2    2
     4     2     1    1
     5     1     6    1
     6     6     7    1
     7     7     8    2
     8     7     9    1
     9     8    10    1
    10     9    11    2
    11    10    12    2
    12    11    12    1
