@<TRIPOS>MOLECULE
/home/cewinharhar/GITHUB/reincatalyze/data/processed/docking_pred/2023-Apr-25-1829_maxeplen10_maxtrainstep200_exh32_gamma099_lrac3e-4_lrcr1e-3/db02e8dbba2ca978bde564db4603195d7659b46f_ligand_2.pdbqt
 12 12 0 0 0
SMALL
GASTEIGER

@<TRIPOS>ATOM
      1  C          8.2740   -0.8940   -1.9170 C.3     1  UNL1        0.1270
      2  C          8.3910   -2.0220   -2.8580 C.2     1  UNL1        0.3030
      3  O          9.5220   -2.5180   -3.0720 O.2     1  UNL1       -0.2520
      4  O          7.2830   -2.5400   -3.5020 O.3     1  UNL1       -0.4810
      5  H          6.3620   -2.0650   -3.5300 H       1  UNL1        0.2960
      6  C          7.4490   -1.3820   -0.7320 C.3     1  UNL1        0.0470
      7  C          6.6030   -0.3160   -0.1670 C.2     1  UNL1       -0.0470
      8  C          6.1550   -0.4610    1.1400 C.2     1  UNL1        0.0040
      9  C          6.2160    0.8160   -0.8360 C.2     1  UNL1        0.0040
     10  C          5.3480    0.5230    1.7080 C.2     1  UNL1        0.0000
     11  C          5.4180    1.8090   -0.3010 C.2     1  UNL1        0.0000
     12  C          4.9870    1.6360    1.0000 C.2     1  UNL1        0.0000
@<TRIPOS>BOND
     1     5     4    1
     2     4     2    1
     3     3     2    2
     4     2     1    1
     5     1     6    1
     6     9    11    1
     7     9     7    2
     8     6     7    1
     9    11    12    2
    10     7     8    1
    11    12    10    1
    12     8    10    2
