@<TRIPOS>MOLECULE
/home/cewinharhar/GITHUB/reincatalyze/data/processed/docking_pred/2023-Apr-25-1829_maxeplen10_maxtrainstep200_exh32_gamma099_lrac3e-4_lrcr1e-3/db57195a81496af8cffcd6b4d9524a1fe0637e4f_ligand_2.pdbqt
 12 12 0 0 0
SMALL
GASTEIGER

@<TRIPOS>ATOM
      1  C          8.4620   -0.6820   -2.0610 C.3     1  UNL1        0.1270
      2  C          8.4180   -1.9150   -2.8660 C.2     1  UNL1        0.3030
      3  O          7.3030   -2.3830   -3.1950 O.2     1  UNL1       -0.2520
      4  O          9.5750   -2.5570   -3.2630 O.3     1  UNL1       -0.4810
      5  H          9.8400   -2.7010   -4.2550 H       1  UNL1        0.2960
      6  C          7.0610   -0.0790   -2.0870 C.3     1  UNL1        0.0470
      7  C          6.4860    0.0490   -0.7360 C.2     1  UNL1       -0.0470
      8  C          5.8250    1.2290   -0.4170 C.2     1  UNL1        0.0040
      9  C          6.5570   -0.9090    0.2420 C.2     1  UNL1        0.0040
     10  C          5.2740    1.3910    0.8530 C.2     1  UNL1        0.0000
     11  C          6.0210   -0.7790    1.5070 C.2     1  UNL1        0.0000
     12  C          5.3710    0.4050    1.7960 C.2     1  UNL1        0.0000
@<TRIPOS>BOND
     1     5     4    1
     2     4     2    1
     3     3     2    2
     4     2     1    1
     5     6     1    1
     6     6     7    1
     7     7     8    2
     8     7     9    1
     9     8    10    1
    10     9    11    2
    11    10    12    2
    12    11    12    1
