@<TRIPOS>MOLECULE
/home/cewinharhar/GITHUB/reincatalyze/data/processed/docking_pred/2023-Apr-25-1829_maxeplen10_maxtrainstep200_exh32_gamma099_lrac3e-4_lrcr1e-3/db57195a81496af8cffcd6b4d9524a1fe0637e4f_ligand_2.pdbqt
 12 12 0 0 0
SMALL
GASTEIGER

@<TRIPOS>ATOM
      1  C          4.9870    1.7780    0.7340 C.3     1  UNL1        0.1270
      2  C          4.4550    1.1080    1.9340 C.2     1  UNL1        0.3030
      3  O          5.1340    0.2020    2.4720 O.2     1  UNL1       -0.2520
      4  O          3.2330    1.4610    2.4730 O.3     1  UNL1       -0.4810
      5  H          3.0700    1.5880    3.4890 H       1  UNL1        0.2960
      6  C          6.5070    1.7100    0.8200 C.3     1  UNL1        0.0470
      7  C          7.0940    0.9510   -0.2980 C.2     1  UNL1       -0.0470
      8  C          8.4070    1.2280   -0.6590 C.2     1  UNL1        0.0040
      9  C          6.4400   -0.0130   -1.0210 C.2     1  UNL1        0.0040
     10  C          8.9950    0.5350   -1.7150 C.2     1  UNL1        0.0000
     11  C          6.9950   -0.7170   -2.0720 C.2     1  UNL1        0.0000
     12  C          8.3010   -0.4190   -2.4080 C.2     1  UNL1        0.0000
@<TRIPOS>BOND
     1    12    11    2
     2    12    10    1
     3    11     9    1
     4    10     8    2
     5     9     7    2
     6     8     7    1
     7     7     6    1
     8     1     6    1
     9     1     2    1
    10     2     3    2
    11     2     4    1
    12     4     5    1
