@<TRIPOS>MOLECULE
/home/cewinharhar/GITHUB/reincatalyze/data/processed/docking_pred/2023-Apr-25-1829_maxeplen10_maxtrainstep200_exh32_gamma099_lrac3e-4_lrcr1e-3/db57195a81496af8cffcd6b4d9524a1fe0637e4f_ligand_2.pdbqt
 12 12 0 0 0
SMALL
GASTEIGER

@<TRIPOS>ATOM
      1  C          8.1560   -1.5810    1.1770 C.3     1  UNL1        0.1270
      2  C          8.4620   -2.7570    0.3430 C.2     1  UNL1        0.3030
      3  O          9.1210   -3.6990    0.8430 O.2     1  UNL1       -0.2520
      4  O          8.0370   -2.8400   -0.9690 O.3     1  UNL1       -0.4810
      5  H          8.5660   -3.3310   -1.7130 H       1  UNL1        0.2960
      6  C          6.6370   -1.4760    1.2630 C.3     1  UNL1        0.0470
      7  C          6.1370   -0.1990    0.7250 C.2     1  UNL1       -0.0470
      8  C          5.3850    0.6140    1.5650 C.2     1  UNL1        0.0040
      9  C          6.3510    0.2540   -0.5510 C.2     1  UNL1        0.0040
     10  C          4.8890    1.8270    1.0910 C.2     1  UNL1        0.0000
     11  C          5.8740    1.4490   -1.0500 C.2     1  UNL1        0.0000
     12  C          5.1290    2.2360   -0.1930 C.2     1  UNL1        0.0000
@<TRIPOS>BOND
     1     5     4    1
     2    11     9    1
     3    11    12    2
     4     4     2    1
     5     9     7    2
     6    12    10    1
     7     2     3    2
     8     2     1    1
     9     7     6    1
    10     7     8    1
    11    10     8    2
    12     1     6    1
