@<TRIPOS>MOLECULE
/home/cewinharhar/GITHUB/reincatalyze/data/processed/docking_pred/2023-Apr-25-1829_maxeplen10_maxtrainstep200_exh32_gamma099_lrac3e-4_lrcr1e-3/db57195a81496af8cffcd6b4d9524a1fe0637e4f_ligand_2.pdbqt
 12 12 0 0 0
SMALL
GASTEIGER

@<TRIPOS>ATOM
      1  C          8.2260    0.2820   -2.1210 C.3     1  UNL1        0.1270
      2  C          9.3900    0.3660   -1.2220 C.2     1  UNL1        0.3030
      3  O          9.4490   -0.4040   -0.2340 O.2     1  UNL1       -0.2520
      4  O         10.4100    1.2710   -1.4470 O.3     1  UNL1       -0.4810
      5  H         10.3950    1.9710   -2.2120 H       1  UNL1        0.2960
      6  C          7.1830   -0.5850   -1.4240 C.3     1  UNL1        0.0470
      7  C          6.3720    0.1850   -0.4650 C.2     1  UNL1       -0.0470
      8  C          6.1680   -0.3540    0.8000 C.2     1  UNL1        0.0040
      9  C          5.7910    1.4000   -0.7250 C.2     1  UNL1        0.0040
     10  C          5.4010    0.3420    1.7330 C.2     1  UNL1        0.0000
     11  C          5.0270    2.1130    0.1770 C.2     1  UNL1        0.0000
     12  C          4.8410    1.5520    1.4260 C.2     1  UNL1        0.0000
@<TRIPOS>BOND
     1     5     4    1
     2     1     6    1
     3     1     2    1
     4     4     2    1
     5     6     7    1
     6     2     3    2
     7     9     7    2
     8     9    11    1
     9     7     8    1
    10    11    12    2
    11     8    10    2
    12    12    10    1
