@<TRIPOS>MOLECULE
/home/cewinharhar/GITHUB/reincatalyze/data/processed/docking_pred/2023-Apr-25-1829_maxeplen10_maxtrainstep200_exh32_gamma099_lrac3e-4_lrcr1e-3/db57195a81496af8cffcd6b4d9524a1fe0637e4f_ligand_2.pdbqt
 12 12 0 0 0
SMALL
GASTEIGER

@<TRIPOS>ATOM
      1  C          8.4690   -0.6790   -2.1040 C.3     1  UNL1        0.1270
      2  C          8.4720   -1.9130   -2.9100 C.2     1  UNL1        0.3030
      3  O          9.5590   -2.5050   -3.1060 O.2     1  UNL1       -0.2520
      4  O          7.3060   -2.4250   -3.4470 O.3     1  UNL1       -0.4810
      5  H          6.8460   -3.2870   -3.1000 H       1  UNL1        0.2960
      6  C          7.0560   -0.1090   -2.1630 C.3     1  UNL1        0.0470
      7  C          6.4850    0.1020   -0.8210 C.2     1  UNL1       -0.0470
      8  C          6.6230   -0.9150    0.1150 C.2     1  UNL1        0.0040
      9  C          5.8180    1.2310   -0.4210 C.2     1  UNL1        0.0040
     10  C          6.0910   -0.7550    1.3940 C.2     1  UNL1        0.0000
     11  C          5.2800    1.4200    0.8370 C.2     1  UNL1        0.0000
     12  C          5.4320    0.3910    1.7460 C.2     1  UNL1        0.0000
@<TRIPOS>BOND
     1     4     5    1
     2     4     2    1
     3     3     2    2
     4     2     1    1
     5     6     1    1
     6     6     7    1
     7     7     9    2
     8     7     8    1
     9     9    11    1
    10     8    10    2
    11    11    12    2
    12    10    12    1
