MODEL 1
REMARK VINA RESULT:      -7.3      0.000      0.000
REMARK SMILES O=C(O)CCc1ccccc1
REMARK SMILES IDX 4 1 2 2 1 3 3 4 5 6 6 7 7 8 11 9 8 10 10 11 9 12
REMARK H PARENT 3 5
REMARK Flexibility Score: inf
ROOT
ATOM      1  C   UNL     1       8.469  -0.679  -2.104  1.00  0.00     0.127 C 
ENDROOT
BRANCH   1   2
ATOM      2  C   UNL     1       8.472  -1.913  -2.910  1.00  0.00     0.303 C 
ATOM      3  O   UNL     1       9.559  -2.505  -3.106  1.00  0.00    -0.252 OA
BRANCH   2   4
ATOM      4  O   UNL     1       7.306  -2.425  -3.447  1.00  0.00    -0.481 OA
ATOM      5  H   UNL     1       6.846  -3.287  -3.100  1.00  0.00     0.296 HD
ENDBRANCH   2   4
ENDBRANCH   1   2
BRANCH   1   6
ATOM      6  C   UNL     1       7.056  -0.109  -2.163  1.00  0.00     0.047 C 
BRANCH   6   7
ATOM      7  C   UNL     1       6.485   0.102  -0.821  1.00  0.00    -0.047 A 
ATOM      8  C   UNL     1       6.623  -0.915   0.115  1.00  0.00     0.004 A 
ATOM      9  C   UNL     1       5.818   1.231  -0.421  1.00  0.00     0.004 A 
ATOM     10  C   UNL     1       6.091  -0.755   1.394  1.00  0.00     0.000 A 
ATOM     11  C   UNL     1       5.280   1.420   0.837  1.00  0.00     0.000 A 
ATOM     12  C   UNL     1       5.432   0.391   1.746  1.00  0.00     0.000 A 
ENDBRANCH   6   7
ENDBRANCH   1   6
TORSDOF 4
ENDMDL
MODEL 2
REMARK VINA RESULT:      -7.3      0.121      1.727
REMARK SMILES O=C(O)CCc1ccccc1
REMARK SMILES IDX 4 1 2 2 1 3 3 4 5 6 6 7 7 8 11 9 8 10 10 11 9 12
REMARK H PARENT 3 5
REMARK Flexibility Score: inf
ROOT
ATOM      1  C   UNL     1       8.462  -0.682  -2.061  1.00  0.00     0.127 C 
ENDROOT
BRANCH   1   2
ATOM      2  C   UNL     1       8.418  -1.915  -2.866  1.00  0.00     0.303 C 
ATOM      3  O   UNL     1       7.303  -2.383  -3.195  1.00  0.00    -0.252 OA
BRANCH   2   4
ATOM      4  O   UNL     1       9.575  -2.557  -3.263  1.00  0.00    -0.481 OA
ATOM      5  H   UNL     1       9.840  -2.701  -4.255  1.00  0.00     0.296 HD
ENDBRANCH   2   4
ENDBRANCH   1   2
BRANCH   1   6
ATOM      6  C   UNL     1       7.061  -0.079  -2.087  1.00  0.00     0.047 C 
BRANCH   6   7
ATOM      7  C   UNL     1       6.486   0.049  -0.736  1.00  0.00    -0.047 A 
ATOM      8  C   UNL     1       5.825   1.229  -0.417  1.00  0.00     0.004 A 
ATOM      9  C   UNL     1       6.557  -0.909   0.242  1.00  0.00     0.004 A 
ATOM     10  C   UNL     1       5.274   1.391   0.853  1.00  0.00     0.000 A 
ATOM     11  C   UNL     1       6.021  -0.779   1.507  1.00  0.00     0.000 A 
ATOM     12  C   UNL     1       5.371   0.405   1.796  1.00  0.00     0.000 A 
ENDBRANCH   6   7
ENDBRANCH   1   6
TORSDOF 4
ENDMDL
MODEL 3
REMARK VINA RESULT:      -6.8      3.379      5.100
REMARK SMILES O=C(O)CCc1ccccc1
REMARK SMILES IDX 4 1 2 2 1 3 3 4 5 6 6 7 7 8 11 9 8 10 10 11 9 12
REMARK H PARENT 3 5
REMARK Flexibility Score: inf
ROOT
ATOM      1  C   UNL     1       4.987   1.778   0.734  1.00  0.00     0.127 C 
ENDROOT
BRANCH   1   2
ATOM      2  C   UNL     1       4.455   1.108   1.934  1.00  0.00     0.303 C 
ATOM      3  O   UNL     1       5.134   0.202   2.472  1.00  0.00    -0.252 OA
BRANCH   2   4
ATOM      4  O   UNL     1       3.233   1.461   2.473  1.00  0.00    -0.481 OA
ATOM      5  H   UNL     1       3.070   1.588   3.489  1.00  0.00     0.296 HD
ENDBRANCH   2   4
ENDBRANCH   1   2
BRANCH   1   6
ATOM      6  C   UNL     1       6.507   1.710   0.820  1.00  0.00     0.047 C 
BRANCH   6   7
ATOM      7  C   UNL     1       7.094   0.951  -0.298  1.00  0.00    -0.047 A 
ATOM      8  C   UNL     1       8.407   1.228  -0.659  1.00  0.00     0.004 A 
ATOM      9  C   UNL     1       6.440  -0.013  -1.021  1.00  0.00     0.004 A 
ATOM     10  C   UNL     1       8.995   0.535  -1.715  1.00  0.00     0.000 A 
ATOM     11  C   UNL     1       6.995  -0.717  -2.072  1.00  0.00     0.000 A 
ATOM     12  C   UNL     1       8.301  -0.419  -2.408  1.00  0.00     0.000 A 
ENDBRANCH   6   7
ENDBRANCH   1   6
TORSDOF 4
ENDMDL
MODEL 4
REMARK VINA RESULT:      -6.6      1.937      2.265
REMARK SMILES O=C(O)CCc1ccccc1
REMARK SMILES IDX 4 1 2 2 1 3 3 4 5 6 6 7 7 8 11 9 8 10 10 11 9 12
REMARK H PARENT 3 5
REMARK Flexibility Score: inf
ROOT
ATOM      1  C   UNL     1       8.226   0.282  -2.121  1.00  0.00     0.127 C 
ENDROOT
BRANCH   1   2
ATOM      2  C   UNL     1       9.390   0.366  -1.222  1.00  0.00     0.303 C 
ATOM      3  O   UNL     1       9.449  -0.404  -0.234  1.00  0.00    -0.252 OA
BRANCH   2   4
ATOM      4  O   UNL     1      10.410   1.271  -1.447  1.00  0.00    -0.481 OA
ATOM      5  H   UNL     1      10.395   1.971  -2.212  1.00  0.00     0.296 HD
ENDBRANCH   2   4
ENDBRANCH   1   2
BRANCH   1   6
ATOM      6  C   UNL     1       7.183  -0.585  -1.424  1.00  0.00     0.047 C 
BRANCH   6   7
ATOM      7  C   UNL     1       6.372   0.185  -0.465  1.00  0.00    -0.047 A 
ATOM      8  C   UNL     1       6.168  -0.354   0.800  1.00  0.00     0.004 A 
ATOM      9  C   UNL     1       5.791   1.400  -0.725  1.00  0.00     0.004 A 
ATOM     10  C   UNL     1       5.401   0.342   1.733  1.00  0.00     0.000 A 
ATOM     11  C   UNL     1       5.027   2.113   0.177  1.00  0.00     0.000 A 
ATOM     12  C   UNL     1       4.841   1.552   1.426  1.00  0.00     0.000 A 
ENDBRANCH   6   7
ENDBRANCH   1   6
TORSDOF 4
ENDMDL
MODEL 5
REMARK VINA RESULT:      -6.5      1.884      2.861
REMARK SMILES O=C(O)CCc1ccccc1
REMARK SMILES IDX 4 1 2 2 1 3 3 4 5 6 6 7 7 8 11 9 8 10 10 11 9 12
REMARK H PARENT 3 5
REMARK Flexibility Score: inf
ROOT
ATOM      1  C   UNL     1       8.156  -1.581   1.177  1.00  0.00     0.127 C 
ENDROOT
BRANCH   1   2
ATOM      2  C   UNL     1       8.462  -2.757   0.343  1.00  0.00     0.303 C 
ATOM      3  O   UNL     1       9.121  -3.699   0.843  1.00  0.00    -0.252 OA
BRANCH   2   4
ATOM      4  O   UNL     1       8.037  -2.840  -0.969  1.00  0.00    -0.481 OA
ATOM      5  H   UNL     1       8.566  -3.331  -1.713  1.00  0.00     0.296 HD
ENDBRANCH   2   4
ENDBRANCH   1   2
BRANCH   1   6
ATOM      6  C   UNL     1       6.637  -1.476   1.263  1.00  0.00     0.047 C 
BRANCH   6   7
ATOM      7  C   UNL     1       6.137  -0.199   0.725  1.00  0.00    -0.047 A 
ATOM      8  C   UNL     1       5.385   0.614   1.565  1.00  0.00     0.004 A 
ATOM      9  C   UNL     1       6.351   0.254  -0.551  1.00  0.00     0.004 A 
ATOM     10  C   UNL     1       4.889   1.827   1.091  1.00  0.00     0.000 A 
ATOM     11  C   UNL     1       5.874   1.449  -1.050  1.00  0.00     0.000 A 
ATOM     12  C   UNL     1       5.129   2.236  -0.193  1.00  0.00     0.000 A 
ENDBRANCH   6   7
ENDBRANCH   1   6
TORSDOF 4
ENDMDL
