@<TRIPOS>MOLECULE
/home/cewinharhar/GITHUB/reincatalyze/data/processed/docking_pred/2023-Apr-25-1829_maxeplen10_maxtrainstep200_exh32_gamma099_lrac3e-4_lrcr1e-3/dba3942d2f0306a5a819952336ad453bb769fd78_ligand_2.pdbqt
 12 12 0 0 0
SMALL
GASTEIGER

@<TRIPOS>ATOM
      1  C          8.2600   -0.9920   -1.7830 C.3     1  UNL1        0.1270
      2  C          8.3800   -2.0260   -2.8260 C.2     1  UNL1        0.3030
      3  O          9.5190   -2.4630   -3.1170 O.2     1  UNL1       -0.2520
      4  O          7.2690   -2.5190   -3.4830 O.3     1  UNL1       -0.4810
      5  H          6.7210   -1.9710   -4.1720 H       1  UNL1        0.2960
      6  C          7.2110   -1.4790   -0.7890 C.3     1  UNL1        0.0470
      7  C          6.4390   -0.3670   -0.2070 C.2     1  UNL1       -0.0470
      8  C          5.9550   -0.5140    1.0870 C.2     1  UNL1        0.0040
      9  C          6.1520    0.8100   -0.8490 C.2     1  UNL1        0.0040
     10  C          5.2150    0.5130    1.6700 C.2     1  UNL1        0.0000
     11  C          5.4220    1.8450   -0.3000 C.2     1  UNL1        0.0000
     12  C          4.9530    1.6700    0.9880 C.2     1  UNL1        0.0000
@<TRIPOS>BOND
     1     5     4    1
     2     4     2    1
     3     3     2    2
     4     2     1    1
     5     1     6    1
     6     9    11    1
     7     9     7    2
     8     6     7    1
     9    11    12    2
    10     7     8    1
    11    12    10    1
    12     8    10    2
