@<TRIPOS>MOLECULE
/home/cewinharhar/GITHUB/reincatalyze/data/processed/docking_pred/2023-Apr-25-1829_maxeplen10_maxtrainstep200_exh32_gamma099_lrac3e-4_lrcr1e-3/dba3942d2f0306a5a819952336ad453bb769fd78_ligand_2.pdbqt
 12 12 0 0 0
SMALL
GASTEIGER

@<TRIPOS>ATOM
      1  C          8.4110   -0.7090   -2.0260 C.3     1  UNL1        0.1270
      2  C          8.3840   -1.9290   -2.8520 C.2     1  UNL1        0.3030
      3  O          7.2770   -2.3860   -3.2210 O.2     1  UNL1       -0.2520
      4  O          9.5490   -2.5720   -3.2250 O.3     1  UNL1       -0.4810
      5  H          9.9200   -2.5690   -4.1930 H       1  UNL1        0.2960
      6  C          7.0160   -0.0970   -2.0870 C.3     1  UNL1        0.0470
      7  C          6.4220    0.0660   -0.7480 C.2     1  UNL1       -0.0470
      8  C          6.5240   -0.9930    0.1460 C.2     1  UNL1        0.0040
      9  C          5.7660    1.1880   -0.3120 C.2     1  UNL1        0.0040
     10  C          5.9690   -0.8790    1.4190 C.2     1  UNL1        0.0000
     11  C          5.2060    1.3310    0.9420 C.2     1  UNL1        0.0000
     12  C          5.3220    0.2610    1.8080 C.2     1  UNL1        0.0000
@<TRIPOS>BOND
     1     5     4    1
     2     4     2    1
     3     3     2    2
     4     2     1    1
     5     6     1    1
     6     6     7    1
     7     7     9    2
     8     7     8    1
     9     9    11    1
    10     8    10    2
    11    11    12    2
    12    10    12    1
