MODEL 1
REMARK VINA RESULT:      -7.2      0.000      0.000
REMARK SMILES O=C(O)CCc1ccccc1
REMARK SMILES IDX 4 1 2 2 1 3 3 4 5 6 6 7 7 8 11 9 8 10 10 11 9 12
REMARK H PARENT 3 5
REMARK Flexibility Score: inf
ROOT
ATOM      1  C   UNL     1       8.421  -0.657  -2.090  1.00  0.00     0.127 C 
ENDROOT
BRANCH   1   2
ATOM      2  C   UNL     1       8.384  -1.906  -2.871  1.00  0.00     0.303 C 
ATOM      3  O   UNL     1       7.272  -2.369  -3.220  1.00  0.00    -0.252 OA
BRANCH   2   4
ATOM      4  O   UNL     1       9.544  -2.569  -3.224  1.00  0.00    -0.481 OA
ATOM      5  H   UNL     1       9.797  -3.509  -2.867  1.00  0.00     0.296 HD
ENDBRANCH   2   4
ENDBRANCH   1   2
BRANCH   1   6
ATOM      6  C   UNL     1       7.008  -0.085  -2.093  1.00  0.00     0.047 C 
BRANCH   6   7
ATOM      7  C   UNL     1       6.438  -0.004  -0.736  1.00  0.00    -0.047 A 
ATOM      8  C   UNL     1       5.800   1.173  -0.364  1.00  0.00     0.004 A 
ATOM      9  C   UNL     1       6.493  -1.005   0.199  1.00  0.00     0.004 A 
ATOM     10  C   UNL     1       5.254   1.290   0.913  1.00  0.00     0.000 A 
ATOM     11  C   UNL     1       5.962  -0.920   1.471  1.00  0.00     0.000 A 
ATOM     12  C   UNL     1       5.335   0.262   1.812  1.00  0.00     0.000 A 
ENDBRANCH   6   7
ENDBRANCH   1   6
TORSDOF 4
ENDMDL
MODEL 2
REMARK VINA RESULT:      -7.2      0.053      1.430
REMARK SMILES O=C(O)CCc1ccccc1
REMARK SMILES IDX 4 1 2 2 1 3 3 4 5 6 6 7 7 8 11 9 8 10 10 11 9 12
REMARK H PARENT 3 5
REMARK Flexibility Score: inf
ROOT
ATOM      1  C   UNL     1       8.411  -0.709  -2.026  1.00  0.00     0.127 C 
ENDROOT
BRANCH   1   2
ATOM      2  C   UNL     1       8.384  -1.929  -2.852  1.00  0.00     0.303 C 
ATOM      3  O   UNL     1       7.277  -2.386  -3.221  1.00  0.00    -0.252 OA
BRANCH   2   4
ATOM      4  O   UNL     1       9.549  -2.572  -3.225  1.00  0.00    -0.481 OA
ATOM      5  H   UNL     1       9.920  -2.569  -4.193  1.00  0.00     0.296 HD
ENDBRANCH   2   4
ENDBRANCH   1   2
BRANCH   1   6
ATOM      6  C   UNL     1       7.016  -0.097  -2.087  1.00  0.00     0.047 C 
BRANCH   6   7
ATOM      7  C   UNL     1       6.422   0.066  -0.748  1.00  0.00    -0.047 A 
ATOM      8  C   UNL     1       6.524  -0.993   0.146  1.00  0.00     0.004 A 
ATOM      9  C   UNL     1       5.766   1.188  -0.312  1.00  0.00     0.004 A 
ATOM     10  C   UNL     1       5.969  -0.879   1.419  1.00  0.00     0.000 A 
ATOM     11  C   UNL     1       5.206   1.331   0.942  1.00  0.00     0.000 A 
ATOM     12  C   UNL     1       5.322   0.261   1.808  1.00  0.00     0.000 A 
ENDBRANCH   6   7
ENDBRANCH   1   6
TORSDOF 4
ENDMDL
MODEL 3
REMARK VINA RESULT:      -7.2      0.673      1.888
REMARK SMILES O=C(O)CCc1ccccc1
REMARK SMILES IDX 4 1 2 2 1 3 3 4 5 6 6 7 7 8 11 9 8 10 10 11 9 12
REMARK H PARENT 3 5
REMARK Flexibility Score: inf
ROOT
ATOM      1  C   UNL     1       8.260  -0.992  -1.783  1.00  0.00     0.127 C 
ENDROOT
BRANCH   1   2
ATOM      2  C   UNL     1       8.380  -2.026  -2.826  1.00  0.00     0.303 C 
ATOM      3  O   UNL     1       9.519  -2.463  -3.117  1.00  0.00    -0.252 OA
BRANCH   2   4
ATOM      4  O   UNL     1       7.269  -2.519  -3.483  1.00  0.00    -0.481 OA
ATOM      5  H   UNL     1       6.721  -1.971  -4.172  1.00  0.00     0.296 HD
ENDBRANCH   2   4
ENDBRANCH   1   2
BRANCH   1   6
ATOM      6  C   UNL     1       7.211  -1.479  -0.789  1.00  0.00     0.047 C 
BRANCH   6   7
ATOM      7  C   UNL     1       6.439  -0.367  -0.207  1.00  0.00    -0.047 A 
ATOM      8  C   UNL     1       5.955  -0.514   1.087  1.00  0.00     0.004 A 
ATOM      9  C   UNL     1       6.152   0.810  -0.849  1.00  0.00     0.004 A 
ATOM     10  C   UNL     1       5.215   0.513   1.670  1.00  0.00     0.000 A 
ATOM     11  C   UNL     1       5.422   1.845  -0.300  1.00  0.00     0.000 A 
ATOM     12  C   UNL     1       4.953   1.670   0.988  1.00  0.00     0.000 A 
ENDBRANCH   6   7
ENDBRANCH   1   6
TORSDOF 4
ENDMDL
MODEL 4
REMARK VINA RESULT:      -7.0      0.599      1.083
REMARK SMILES O=C(O)CCc1ccccc1
REMARK SMILES IDX 4 1 2 2 1 3 3 4 5 6 6 7 7 8 11 9 8 10 10 11 9 12
REMARK H PARENT 3 5
REMARK Flexibility Score: inf
ROOT
ATOM      1  C   UNL     1       8.246  -0.899  -1.892  1.00  0.00     0.127 C 
ENDROOT
BRANCH   1   2
ATOM      2  C   UNL     1       8.320  -1.997  -2.871  1.00  0.00     0.303 C 
ATOM      3  O   UNL     1       7.256  -2.446  -3.360  1.00  0.00    -0.252 OA
BRANCH   2   4
ATOM      4  O   UNL     1       9.532  -2.536  -3.258  1.00  0.00    -0.481 OA
ATOM      5  H   UNL     1      10.058  -3.229  -2.694  1.00  0.00     0.296 HD
ENDBRANCH   2   4
ENDBRANCH   1   2
BRANCH   1   6
ATOM      6  C   UNL     1       7.565  -1.454  -0.646  1.00  0.00     0.047 C 
BRANCH   6   7
ATOM      7  C   UNL     1       6.651  -0.477  -0.030  1.00  0.00    -0.047 A 
ATOM      8  C   UNL     1       6.400   0.706  -0.715  1.00  0.00     0.004 A 
ATOM      9  C   UNL     1       6.025  -0.640   1.179  1.00  0.00     0.004 A 
ATOM     10  C   UNL     1       5.546   1.658  -0.162  1.00  0.00     0.000 A 
ATOM     11  C   UNL     1       5.173   0.283   1.752  1.00  0.00     0.000 A 
ATOM     12  C   UNL     1       4.945   1.449   1.049  1.00  0.00     0.000 A 
ENDBRANCH   6   7
ENDBRANCH   1   6
TORSDOF 4
ENDMDL
MODEL 5
REMARK VINA RESULT:      -6.9      3.294      5.120
REMARK SMILES O=C(O)CCc1ccccc1
REMARK SMILES IDX 4 1 2 2 1 3 3 4 5 6 6 7 7 8 11 9 8 10 10 11 9 12
REMARK H PARENT 3 5
REMARK Flexibility Score: inf
ROOT
ATOM      1  C   UNL     1       4.993   1.711   0.672  1.00  0.00     0.127 C 
ENDROOT
BRANCH   1   2
ATOM      2  C   UNL     1       4.462   1.088   1.898  1.00  0.00     0.303 C 
ATOM      3  O   UNL     1       5.135   0.194   2.463  1.00  0.00    -0.252 OA
BRANCH   2   4
ATOM      4  O   UNL     1       3.247   1.472   2.432  1.00  0.00    -0.481 OA
ATOM      5  H   UNL     1       2.393   1.624   1.863  1.00  0.00     0.296 HD
ENDBRANCH   2   4
ENDBRANCH   1   2
BRANCH   1   6
ATOM      6  C   UNL     1       6.513   1.671   0.772  1.00  0.00     0.047 C 
BRANCH   6   7
ATOM      7  C   UNL     1       7.122   0.893  -0.321  1.00  0.00    -0.047 A 
ATOM      8  C   UNL     1       8.414   1.221  -0.716  1.00  0.00     0.004 A 
ATOM      9  C   UNL     1       6.508  -0.134  -0.990  1.00  0.00     0.004 A 
ATOM     10  C   UNL     1       9.021   0.512  -1.751  1.00  0.00     0.000 A 
ATOM     11  C   UNL     1       7.083  -0.855  -2.018  1.00  0.00     0.000 A 
ATOM     12  C   UNL     1       8.367  -0.506  -2.390  1.00  0.00     0.000 A 
ENDBRANCH   6   7
ENDBRANCH   1   6
TORSDOF 4
ENDMDL
