@<TRIPOS>MOLECULE
/home/cewinharhar/GITHUB/reincatalyze/data/processed/docking_pred/2023-Apr-25-1829_maxeplen10_maxtrainstep200_exh32_gamma099_lrac3e-4_lrcr1e-3/dba3942d2f0306a5a819952336ad453bb769fd78_ligand_2.pdbqt
 12 12 0 0 0
SMALL
GASTEIGER

@<TRIPOS>ATOM
      1  C          8.2460   -0.8990   -1.8920 C.3     1  UNL1        0.1270
      2  C          8.3200   -1.9970   -2.8710 C.2     1  UNL1        0.3030
      3  O          7.2560   -2.4460   -3.3600 O.2     1  UNL1       -0.2520
      4  O          9.5320   -2.5360   -3.2580 O.3     1  UNL1       -0.4810
      5  H         10.0580   -3.2290   -2.6940 H       1  UNL1        0.2960
      6  C          7.5650   -1.4540   -0.6460 C.3     1  UNL1        0.0470
      7  C          6.6510   -0.4770   -0.0300 C.2     1  UNL1       -0.0470
      8  C          6.4000    0.7060   -0.7150 C.2     1  UNL1        0.0040
      9  C          6.0250   -0.6400    1.1790 C.2     1  UNL1        0.0040
     10  C          5.5460    1.6580   -0.1620 C.2     1  UNL1        0.0000
     11  C          5.1730    0.2830    1.7520 C.2     1  UNL1        0.0000
     12  C          4.9450    1.4490    1.0490 C.2     1  UNL1        0.0000
@<TRIPOS>BOND
     1     3     2    2
     2     4     2    1
     3     4     5    1
     4     2     1    1
     5     1     6    1
     6     8    10    1
     7     8     7    2
     8     6     7    1
     9    10    12    2
    10     7     9    1
    11    12    11    1
    12     9    11    2
