@<TRIPOS>MOLECULE
/home/cewinharhar/GITHUB/reincatalyze/data/processed/docking_pred/2023-Apr-25-1829_maxeplen10_maxtrainstep200_exh32_gamma099_lrac3e-4_lrcr1e-3/ddb46e737fe602632681221f3e2121514b9159c3_ligand_2.pdbqt
 12 12 0 0 0
SMALL
GASTEIGER

@<TRIPOS>ATOM
      1  C          4.9820    1.7670    0.7000 C.3     1  UNL1        0.1270
      2  C          4.4720    1.1150    1.9180 C.2     1  UNL1        0.3030
      3  O          5.1700    0.2310    2.4690 O.2     1  UNL1       -0.2520
      4  O          3.2490    1.4590    2.4620 O.3     1  UNL1       -0.4810
      5  H          2.3900    1.5970    1.8980 H       1  UNL1        0.2960
      6  C          6.5040    1.7410    0.7810 C.3     1  UNL1        0.0470
      7  C          7.1060    0.9710   -0.3220 C.2     1  UNL1       -0.0470
      8  C          8.4340    1.2210   -0.6450 C.2     1  UNL1        0.0040
      9  C          6.4520    0.0230   -1.0660 C.2     1  UNL1        0.0040
     10  C          9.0370    0.5180   -1.6860 C.2     1  UNL1        0.0000
     11  C          7.0210   -0.6900   -2.1020 C.2     1  UNL1        0.0000
     12  C          8.3430   -0.4190   -2.4010 C.2     1  UNL1        0.0000
@<TRIPOS>BOND
     1    12    11    2
     2    12    10    1
     3    11     9    1
     4    10     8    2
     5     9     7    2
     6     8     7    1
     7     7     6    1
     8     1     6    1
     9     1     2    1
    10     5     4    1
    11     2     4    1
    12     2     3    2
