MODEL 1
REMARK VINA RESULT:      -7.3      0.000      0.000
REMARK SMILES O=C(O)CCc1ccccc1
REMARK SMILES IDX 4 1 2 2 1 3 3 4 5 6 6 7 7 8 11 9 8 10 10 11 9 12
REMARK H PARENT 3 5
REMARK Flexibility Score: inf
ROOT
ATOM      1  C   UNL     1       8.469  -0.619  -2.178  1.00  0.00     0.127 C 
ENDROOT
BRANCH   1   2
ATOM      2  C   UNL     1       8.474  -1.897  -2.911  1.00  0.00     0.303 C 
ATOM      3  O   UNL     1       9.563  -2.497  -3.073  1.00  0.00    -0.252 OA
BRANCH   2   4
ATOM      4  O   UNL     1       7.309  -2.441  -3.417  1.00  0.00    -0.481 OA
ATOM      5  H   UNL     1       7.264  -3.367  -3.883  1.00  0.00     0.296 HD
ENDBRANCH   2   4
ENDBRANCH   1   2
BRANCH   1   6
ATOM      6  C   UNL     1       7.030  -0.116  -2.165  1.00  0.00     0.047 C 
BRANCH   6   7
ATOM      7  C   UNL     1       6.497   0.008  -0.797  1.00  0.00    -0.047 A 
ATOM      8  C   UNL     1       5.866   1.195  -0.446  1.00  0.00     0.004 A 
ATOM      9  C   UNL     1       6.580  -0.962   0.169  1.00  0.00     0.004 A 
ATOM     10  C   UNL     1       5.354   1.353   0.841  1.00  0.00     0.000 A 
ATOM     11  C   UNL     1       6.083  -0.836   1.451  1.00  0.00     0.000 A 
ATOM     12  C   UNL     1       5.462   0.355   1.771  1.00  0.00     0.000 A 
ENDBRANCH   6   7
ENDBRANCH   1   6
TORSDOF 4
ENDMDL
MODEL 2
REMARK VINA RESULT:      -7.2      0.141      1.730
REMARK SMILES O=C(O)CCc1ccccc1
REMARK SMILES IDX 4 1 2 2 1 3 3 4 5 6 6 7 7 8 11 9 8 10 10 11 9 12
REMARK H PARENT 3 5
REMARK Flexibility Score: inf
ROOT
ATOM      1  C   UNL     1       8.449  -0.688  -2.062  1.00  0.00     0.127 C 
ENDROOT
BRANCH   1   2
ATOM      2  C   UNL     1       8.408  -1.918  -2.872  1.00  0.00     0.303 C 
ATOM      3  O   UNL     1       7.295  -2.379  -3.217  1.00  0.00    -0.252 OA
BRANCH   2   4
ATOM      4  O   UNL     1       9.567  -2.566  -3.256  1.00  0.00    -0.481 OA
ATOM      5  H   UNL     1       9.586  -3.356  -3.927  1.00  0.00     0.296 HD
ENDBRANCH   2   4
ENDBRANCH   1   2
BRANCH   1   6
ATOM      6  C   UNL     1       7.063  -0.056  -2.137  1.00  0.00     0.047 C 
BRANCH   6   7
ATOM      7  C   UNL     1       6.476   0.156  -0.803  1.00  0.00    -0.047 A 
ATOM      8  C   UNL     1       6.594  -0.864   0.133  1.00  0.00     0.004 A 
ATOM      9  C   UNL     1       5.811   1.289  -0.409  1.00  0.00     0.004 A 
ATOM     10  C   UNL     1       6.046  -0.703   1.404  1.00  0.00     0.000 A 
ATOM     11  C   UNL     1       5.258   1.478   0.842  1.00  0.00     0.000 A 
ATOM     12  C   UNL     1       5.390   0.446   1.751  1.00  0.00     0.000 A 
ENDBRANCH   6   7
ENDBRANCH   1   6
TORSDOF 4
ENDMDL
MODEL 3
REMARK VINA RESULT:      -7.2      0.662      1.146
REMARK SMILES O=C(O)CCc1ccccc1
REMARK SMILES IDX 4 1 2 2 1 3 3 4 5 6 6 7 7 8 11 9 8 10 10 11 9 12
REMARK H PARENT 3 5
REMARK Flexibility Score: inf
ROOT
ATOM      1  C   UNL     1       8.310  -0.913  -1.848  1.00  0.00     0.127 C 
ENDROOT
BRANCH   1   2
ATOM      2  C   UNL     1       8.418  -1.996  -2.841  1.00  0.00     0.303 C 
ATOM      3  O   UNL     1       9.552  -2.453  -3.118  1.00  0.00    -0.252 OA
BRANCH   2   4
ATOM      4  O   UNL     1       7.299  -2.513  -3.466  1.00  0.00    -0.481 OA
ATOM      5  H   UNL     1       6.363  -2.555  -3.023  1.00  0.00     0.296 HD
ENDBRANCH   2   4
ENDBRANCH   1   2
BRANCH   1   6
ATOM      6  C   UNL     1       7.423  -1.426  -0.719  1.00  0.00     0.047 C 
BRANCH   6   7
ATOM      7  C   UNL     1       6.593  -0.358  -0.135  1.00  0.00    -0.047 A 
ATOM      8  C   UNL     1       6.262   0.726  -0.938  1.00  0.00     0.004 A 
ATOM      9  C   UNL     1       6.122  -0.345   1.153  1.00  0.00     0.004 A 
ATOM     10  C   UNL     1       5.484   1.760  -0.419  1.00  0.00     0.000 A 
ATOM     11  C   UNL     1       5.350   0.662   1.696  1.00  0.00     0.000 A 
ATOM     12  C   UNL     1       5.037   1.727   0.873  1.00  0.00     0.000 A 
ENDBRANCH   6   7
ENDBRANCH   1   6
TORSDOF 4
ENDMDL
MODEL 4
REMARK VINA RESULT:      -6.8      3.373      5.062
REMARK SMILES O=C(O)CCc1ccccc1
REMARK SMILES IDX 4 1 2 2 1 3 3 4 5 6 6 7 7 8 11 9 8 10 10 11 9 12
REMARK H PARENT 3 5
REMARK Flexibility Score: inf
ROOT
ATOM      1  C   UNL     1       4.982   1.767   0.700  1.00  0.00     0.127 C 
ENDROOT
BRANCH   1   2
ATOM      2  C   UNL     1       4.472   1.115   1.918  1.00  0.00     0.303 C 
ATOM      3  O   UNL     1       5.170   0.231   2.469  1.00  0.00    -0.252 OA
BRANCH   2   4
ATOM      4  O   UNL     1       3.249   1.459   2.462  1.00  0.00    -0.481 OA
ATOM      5  H   UNL     1       2.390   1.597   1.898  1.00  0.00     0.296 HD
ENDBRANCH   2   4
ENDBRANCH   1   2
BRANCH   1   6
ATOM      6  C   UNL     1       6.504   1.741   0.781  1.00  0.00     0.047 C 
BRANCH   6   7
ATOM      7  C   UNL     1       7.106   0.971  -0.322  1.00  0.00    -0.047 A 
ATOM      8  C   UNL     1       8.434   1.221  -0.645  1.00  0.00     0.004 A 
ATOM      9  C   UNL     1       6.452   0.023  -1.066  1.00  0.00     0.004 A 
ATOM     10  C   UNL     1       9.037   0.518  -1.686  1.00  0.00     0.000 A 
ATOM     11  C   UNL     1       7.021  -0.690  -2.102  1.00  0.00     0.000 A 
ATOM     12  C   UNL     1       8.343  -0.419  -2.401  1.00  0.00     0.000 A 
ENDBRANCH   6   7
ENDBRANCH   1   6
TORSDOF 4
ENDMDL
MODEL 5
REMARK VINA RESULT:      -6.7      3.816      4.923
REMARK SMILES O=C(O)CCc1ccccc1
REMARK SMILES IDX 4 1 2 2 1 3 3 4 5 6 6 7 7 8 11 9 8 10 10 11 9 12
REMARK H PARENT 3 5
REMARK Flexibility Score: inf
ROOT
ATOM      1  C   UNL     1       5.459   2.926  -0.030  1.00  0.00     0.127 C 
ENDROOT
BRANCH   1   2
ATOM      2  C   UNL     1       6.230   3.880   0.786  1.00  0.00     0.303 C 
ATOM      3  O   UNL     1       6.892   4.774   0.208  1.00  0.00    -0.252 OA
BRANCH   2   4
ATOM      4  O   UNL     1       6.235   3.808   2.166  1.00  0.00    -0.481 OA
ATOM      5  H   UNL     1       6.975   4.227   2.759  1.00  0.00     0.296 HD
ENDBRANCH   2   4
ENDBRANCH   1   2
BRANCH   1   6
ATOM      6  C   UNL     1       4.872   1.893   0.925  1.00  0.00     0.047 C 
BRANCH   6   7
ATOM      7  C   UNL     1       5.657   0.646   0.947  1.00  0.00    -0.047 A 
ATOM      8  C   UNL     1       6.320   0.270  -0.215  1.00  0.00     0.004 A 
ATOM      9  C   UNL     1       5.784  -0.183   2.032  1.00  0.00     0.004 A 
ATOM     10  C   UNL     1       7.068  -0.906  -0.235  1.00  0.00     0.000 A 
ATOM     11  C   UNL     1       6.517  -1.353   2.043  1.00  0.00     0.000 A 
ATOM     12  C   UNL     1       7.163  -1.702   0.873  1.00  0.00     0.000 A 
ENDBRANCH   6   7
ENDBRANCH   1   6
TORSDOF 4
ENDMDL
