@<TRIPOS>MOLECULE
/home/cewinharhar/GITHUB/reincatalyze/data/processed/docking_pred/2023-Apr-25-1829_maxeplen10_maxtrainstep200_exh32_gamma099_lrac3e-4_lrcr1e-3/ddb46e737fe602632681221f3e2121514b9159c3_ligand_2.pdbqt
 12 12 0 0 0
SMALL
GASTEIGER

@<TRIPOS>ATOM
      1  C          8.4690   -0.6190   -2.1780 C.3     1  UNL1        0.1270
      2  C          8.4740   -1.8970   -2.9110 C.2     1  UNL1        0.3030
      3  O          9.5630   -2.4970   -3.0730 O.2     1  UNL1       -0.2520
      4  O          7.3090   -2.4410   -3.4170 O.3     1  UNL1       -0.4810
      5  H          7.2640   -3.3670   -3.8830 H       1  UNL1        0.2960
      6  C          7.0300   -0.1160   -2.1650 C.3     1  UNL1        0.0470
      7  C          6.4970    0.0080   -0.7970 C.2     1  UNL1       -0.0470
      8  C          5.8660    1.1950   -0.4460 C.2     1  UNL1        0.0040
      9  C          6.5800   -0.9620    0.1690 C.2     1  UNL1        0.0040
     10  C          5.3540    1.3530    0.8410 C.2     1  UNL1        0.0000
     11  C          6.0830   -0.8360    1.4510 C.2     1  UNL1        0.0000
     12  C          5.4620    0.3550    1.7710 C.2     1  UNL1        0.0000
@<TRIPOS>BOND
     1     5     4    1
     2     4     2    1
     3     3     2    2
     4     2     1    1
     5     1     6    1
     6     6     7    1
     7     7     8    2
     8     7     9    1
     9     8    10    1
    10     9    11    2
    11    10    12    2
    12    11    12    1
