@<TRIPOS>MOLECULE
/home/cewinharhar/GITHUB/reincatalyze/data/processed/docking_pred/2023-Apr-25-1829_maxeplen10_maxtrainstep200_exh32_gamma099_lrac3e-4_lrcr1e-3/ddb46e737fe602632681221f3e2121514b9159c3_ligand_2.pdbqt
 12 12 0 0 0
SMALL
GASTEIGER

@<TRIPOS>ATOM
      1  C          8.4490   -0.6880   -2.0620 C.3     1  UNL1        0.1270
      2  C          8.4080   -1.9180   -2.8720 C.2     1  UNL1        0.3030
      3  O          7.2950   -2.3790   -3.2170 O.2     1  UNL1       -0.2520
      4  O          9.5670   -2.5660   -3.2560 O.3     1  UNL1       -0.4810
      5  H          9.5860   -3.3560   -3.9270 H       1  UNL1        0.2960
      6  C          7.0630   -0.0560   -2.1370 C.3     1  UNL1        0.0470
      7  C          6.4760    0.1560   -0.8030 C.2     1  UNL1       -0.0470
      8  C          6.5940   -0.8640    0.1330 C.2     1  UNL1        0.0040
      9  C          5.8110    1.2890   -0.4090 C.2     1  UNL1        0.0040
     10  C          6.0460   -0.7030    1.4040 C.2     1  UNL1        0.0000
     11  C          5.2580    1.4780    0.8420 C.2     1  UNL1        0.0000
     12  C          5.3900    0.4460    1.7510 C.2     1  UNL1        0.0000
@<TRIPOS>BOND
     1     5     4    1
     2     4     2    1
     3     3     2    2
     4     2     1    1
     5     6     1    1
     6     6     7    1
     7     7     9    2
     8     7     8    1
     9     9    11    1
    10     8    10    2
    11    11    12    2
    12    10    12    1
