@<TRIPOS>MOLECULE
/home/cewinharhar/GITHUB/reincatalyze/data/processed/docking_pred/2023-Apr-25-1829_maxeplen10_maxtrainstep200_exh32_gamma099_lrac3e-4_lrcr1e-3/ddb46e737fe602632681221f3e2121514b9159c3_ligand_2.pdbqt
 12 12 0 0 0
SMALL
GASTEIGER

@<TRIPOS>ATOM
      1  C          5.4590    2.9260   -0.0300 C.3     1  UNL1        0.1270
      2  C          6.2300    3.8800    0.7860 C.2     1  UNL1        0.3030
      3  O          6.8920    4.7740    0.2080 O.2     1  UNL1       -0.2520
      4  O          6.2350    3.8080    2.1660 O.3     1  UNL1       -0.4810
      5  H          6.9750    4.2270    2.7590 H       1  UNL1        0.2960
      6  C          4.8720    1.8930    0.9250 C.3     1  UNL1        0.0470
      7  C          5.6570    0.6460    0.9470 C.2     1  UNL1       -0.0470
      8  C          6.3200    0.2700   -0.2150 C.2     1  UNL1        0.0040
      9  C          5.7840   -0.1830    2.0320 C.2     1  UNL1        0.0040
     10  C          7.0680   -0.9060   -0.2350 C.2     1  UNL1        0.0000
     11  C          6.5170   -1.3530    2.0430 C.2     1  UNL1        0.0000
     12  C          7.1630   -1.7020    0.8730 C.2     1  UNL1        0.0000
@<TRIPOS>BOND
     1    10     8    1
     2    10    12    2
     3     8     7    2
     4     1     2    1
     5     1     6    1
     6     3     2    2
     7     2     4    1
     8    12    11    1
     9     6     7    1
    10     7     9    1
    11     9    11    2
    12     4     5    1
