@<TRIPOS>MOLECULE
/home/cewinharhar/GITHUB/reincatalyze/data/processed/docking_pred/2023-Apr-25-1829_maxeplen10_maxtrainstep200_exh32_gamma099_lrac3e-4_lrcr1e-3/dea2b8be3c05a7e32d8e1c0cb085cc688668c765_ligand_2.pdbqt
 12 12 0 0 0
SMALL
GASTEIGER

@<TRIPOS>ATOM
      1  C          8.4530   -0.6200   -2.1760 C.3     1  UNL1        0.1270
      2  C          8.4830   -1.8940   -2.9160 C.2     1  UNL1        0.3030
      3  O          9.5830   -2.4720   -3.0800 O.2     1  UNL1       -0.2520
      4  O          7.3290   -2.4570   -3.4270 O.3     1  UNL1       -0.4810
      5  H          6.5440   -2.7900   -2.8370 H       1  UNL1        0.2960
      6  C          7.0100   -0.1260   -2.1920 C.3     1  UNL1        0.0470
      7  C          6.4750    0.0700   -0.8330 C.2     1  UNL1       -0.0470
      8  C          6.6040   -0.9720    0.0770 C.2     1  UNL1        0.0040
      9  C          5.8490    1.2080   -0.3930 C.2     1  UNL1        0.0040
     10  C          6.1050   -0.8260    1.3700 C.2     1  UNL1        0.0000
     11  C          5.3440    1.3820    0.8800 C.2     1  UNL1        0.0000
     12  C          5.4860    0.3290    1.7630 C.2     1  UNL1        0.0000
@<TRIPOS>BOND
     1     4     2    1
     2     4     5    1
     3     3     2    2
     4     2     1    1
     5     6     1    1
     6     6     7    1
     7     7     9    2
     8     7     8    1
     9     9    11    1
    10     8    10    2
    11    11    12    2
    12    10    12    1
