MODEL 1
REMARK VINA RESULT:      -7.3      0.000      0.000
REMARK SMILES O=C(O)CCc1ccccc1
REMARK SMILES IDX 4 1 2 2 1 3 3 4 5 6 6 7 7 8 11 9 8 10 10 11 9 12
REMARK H PARENT 3 5
REMARK Flexibility Score: inf
ROOT
ATOM      1  C   UNL     1       8.453  -0.620  -2.176  1.00  0.00     0.127 C 
ENDROOT
BRANCH   1   2
ATOM      2  C   UNL     1       8.483  -1.894  -2.916  1.00  0.00     0.303 C 
ATOM      3  O   UNL     1       9.583  -2.472  -3.080  1.00  0.00    -0.252 OA
BRANCH   2   4
ATOM      4  O   UNL     1       7.329  -2.457  -3.427  1.00  0.00    -0.481 OA
ATOM      5  H   UNL     1       6.544  -2.790  -2.837  1.00  0.00     0.296 HD
ENDBRANCH   2   4
ENDBRANCH   1   2
BRANCH   1   6
ATOM      6  C   UNL     1       7.010  -0.126  -2.192  1.00  0.00     0.047 C 
BRANCH   6   7
ATOM      7  C   UNL     1       6.475   0.070  -0.833  1.00  0.00    -0.047 A 
ATOM      8  C   UNL     1       6.604  -0.972   0.077  1.00  0.00     0.004 A 
ATOM      9  C   UNL     1       5.849   1.208  -0.393  1.00  0.00     0.004 A 
ATOM     10  C   UNL     1       6.105  -0.826   1.370  1.00  0.00     0.000 A 
ATOM     11  C   UNL     1       5.344   1.382   0.880  1.00  0.00     0.000 A 
ATOM     12  C   UNL     1       5.486   0.329   1.763  1.00  0.00     0.000 A 
ENDBRANCH   6   7
ENDBRANCH   1   6
TORSDOF 4
ENDMDL
MODEL 2
REMARK VINA RESULT:      -7.2      0.140      1.727
REMARK SMILES O=C(O)CCc1ccccc1
REMARK SMILES IDX 4 1 2 2 1 3 3 4 5 6 6 7 7 8 11 9 8 10 10 11 9 12
REMARK H PARENT 3 5
REMARK Flexibility Score: inf
ROOT
ATOM      1  C   UNL     1       8.483  -0.663  -2.088  1.00  0.00     0.127 C 
ENDROOT
BRANCH   1   2
ATOM      2  C   UNL     1       8.425  -1.909  -2.872  1.00  0.00     0.303 C 
ATOM      3  O   UNL     1       7.305  -2.369  -3.195  1.00  0.00    -0.252 OA
BRANCH   2   4
ATOM      4  O   UNL     1       9.575  -2.573  -3.254  1.00  0.00    -0.481 OA
ATOM      5  H   UNL     1      10.456  -2.554  -2.708  1.00  0.00     0.296 HD
ENDBRANCH   2   4
ENDBRANCH   1   2
BRANCH   1   6
ATOM      6  C   UNL     1       7.086  -0.052  -2.114  1.00  0.00     0.047 C 
BRANCH   6   7
ATOM      7  C   UNL     1       6.509   0.071  -0.764  1.00  0.00    -0.047 A 
ATOM      8  C   UNL     1       5.835   1.244  -0.445  1.00  0.00     0.004 A 
ATOM      9  C   UNL     1       6.588  -0.887   0.214  1.00  0.00     0.004 A 
ATOM     10  C   UNL     1       5.281   1.400   0.824  1.00  0.00     0.000 A 
ATOM     11  C   UNL     1       6.050  -0.762   1.480  1.00  0.00     0.000 A 
ATOM     12  C   UNL     1       5.387   0.415   1.768  1.00  0.00     0.000 A 
ENDBRANCH   6   7
ENDBRANCH   1   6
TORSDOF 4
ENDMDL
MODEL 3
REMARK VINA RESULT:      -7.1      0.644      1.875
REMARK SMILES O=C(O)CCc1ccccc1
REMARK SMILES IDX 4 1 2 2 1 3 3 4 5 6 6 7 7 8 11 9 8 10 10 11 9 12
REMARK H PARENT 3 5
REMARK Flexibility Score: inf
ROOT
ATOM      1  C   UNL     1       8.307  -0.917  -1.854  1.00  0.00     0.127 C 
ENDROOT
BRANCH   1   2
ATOM      2  C   UNL     1       8.361  -2.002  -2.849  1.00  0.00     0.303 C 
ATOM      3  O   UNL     1       7.287  -2.450  -3.316  1.00  0.00    -0.252 OA
BRANCH   2   4
ATOM      4  O   UNL     1       9.565  -2.530  -3.274  1.00  0.00    -0.481 OA
ATOM      5  H   UNL     1      10.161  -2.089  -3.998  1.00  0.00     0.296 HD
ENDBRANCH   2   4
ENDBRANCH   1   2
BRANCH   1   6
ATOM      6  C   UNL     1       7.473  -1.423  -0.683  1.00  0.00     0.047 C 
BRANCH   6   7
ATOM      7  C   UNL     1       6.617  -0.368  -0.113  1.00  0.00    -0.047 A 
ATOM      8  C   UNL     1       6.301   0.722  -0.914  1.00  0.00     0.004 A 
ATOM      9  C   UNL     1       6.108  -0.373   1.160  1.00  0.00     0.004 A 
ATOM     10  C   UNL     1       5.500   1.744  -0.408  1.00  0.00     0.000 A 
ATOM     11  C   UNL     1       5.311   0.623   1.690  1.00  0.00     0.000 A 
ATOM     12  C   UNL     1       5.015   1.694   0.870  1.00  0.00     0.000 A 
ENDBRANCH   6   7
ENDBRANCH   1   6
TORSDOF 4
ENDMDL
MODEL 4
REMARK VINA RESULT:      -7.0      0.979      1.520
REMARK SMILES O=C(O)CCc1ccccc1
REMARK SMILES IDX 4 1 2 2 1 3 3 4 5 6 6 7 7 8 11 9 8 10 10 11 9 12
REMARK H PARENT 3 5
REMARK Flexibility Score: inf
ROOT
ATOM      1  C   UNL     1       7.333  -1.378  -2.252  1.00  0.00     0.127 C 
ENDROOT
BRANCH   1   2
ATOM      2  C   UNL     1       8.773  -1.411  -2.562  1.00  0.00     0.303 C 
ATOM      3  O   UNL     1       9.504  -0.483  -2.141  1.00  0.00    -0.252 OA
BRANCH   2   4
ATOM      4  O   UNL     1       9.328  -2.438  -3.300  1.00  0.00    -0.481 OA
ATOM      5  H   UNL     1      10.035  -2.292  -4.045  1.00  0.00     0.296 HD
ENDBRANCH   2   4
ENDBRANCH   1   2
BRANCH   1   6
ATOM      6  C   UNL     1       7.199  -1.470  -0.736  1.00  0.00     0.047 C 
BRANCH   6   7
ATOM      7  C   UNL     1       6.453  -0.330  -0.174  1.00  0.00    -0.047 A 
ATOM      8  C   UNL     1       6.022  -0.416   1.144  1.00  0.00     0.004 A 
ATOM      9  C   UNL     1       6.143   0.818  -0.857  1.00  0.00     0.004 A 
ATOM     10  C   UNL     1       5.309   0.639   1.709  1.00  0.00     0.000 A 
ATOM     11  C   UNL     1       5.439   1.881  -0.325  1.00  0.00     0.000 A 
ATOM     12  C   UNL     1       5.023   1.765   0.987  1.00  0.00     0.000 A 
ENDBRANCH   6   7
ENDBRANCH   1   6
TORSDOF 4
ENDMDL
MODEL 5
REMARK VINA RESULT:      -6.7      3.389      5.080
REMARK SMILES O=C(O)CCc1ccccc1
REMARK SMILES IDX 4 1 2 2 1 3 3 4 5 6 6 7 7 8 11 9 8 10 10 11 9 12
REMARK H PARENT 3 5
REMARK Flexibility Score: inf
ROOT
ATOM      1  C   UNL     1       4.993   1.734   0.707  1.00  0.00     0.127 C 
ENDROOT
BRANCH   1   2
ATOM      2  C   UNL     1       4.466   1.097   1.927  1.00  0.00     0.303 C 
ATOM      3  O   UNL     1       5.148   0.206   2.487  1.00  0.00    -0.252 OA
BRANCH   2   4
ATOM      4  O   UNL     1       3.245   1.462   2.460  1.00  0.00    -0.481 OA
ATOM      5  H   UNL     1       3.092   2.337   2.994  1.00  0.00     0.296 HD
ENDBRANCH   2   4
ENDBRANCH   1   2
BRANCH   1   6
ATOM      6  C   UNL     1       6.513   1.743   0.827  1.00  0.00     0.047 C 
BRANCH   6   7
ATOM      7  C   UNL     1       7.163   1.050  -0.299  1.00  0.00    -0.047 A 
ATOM      8  C   UNL     1       6.391   0.194  -1.074  1.00  0.00     0.004 A 
ATOM      9  C   UNL     1       8.484   1.180  -0.643  1.00  0.00     0.004 A 
ATOM     10  C   UNL     1       6.972  -0.485  -2.144  1.00  0.00     0.000 A 
ATOM     11  C   UNL     1       9.088   0.523  -1.696  1.00  0.00     0.000 A 
ATOM     12  C   UNL     1       8.296  -0.323  -2.448  1.00  0.00     0.000 A 
ENDBRANCH   6   7
ENDBRANCH   1   6
TORSDOF 4
ENDMDL
