@<TRIPOS>MOLECULE
/home/cewinharhar/GITHUB/reincatalyze/data/processed/docking_pred/2023-Apr-25-1829_maxeplen10_maxtrainstep200_exh32_gamma099_lrac3e-4_lrcr1e-3/dea2b8be3c05a7e32d8e1c0cb085cc688668c765_ligand_2.pdbqt
 12 12 0 0 0
SMALL
GASTEIGER

@<TRIPOS>ATOM
      1  C          8.3070   -0.9170   -1.8540 C.3     1  UNL1        0.1270
      2  C          8.3610   -2.0020   -2.8490 C.2     1  UNL1        0.3030
      3  O          7.2870   -2.4500   -3.3160 O.2     1  UNL1       -0.2520
      4  O          9.5650   -2.5300   -3.2740 O.3     1  UNL1       -0.4810
      5  H         10.1610   -2.0890   -3.9980 H       1  UNL1        0.2960
      6  C          7.4730   -1.4230   -0.6830 C.3     1  UNL1        0.0470
      7  C          6.6170   -0.3680   -0.1130 C.2     1  UNL1       -0.0470
      8  C          6.3010    0.7220   -0.9140 C.2     1  UNL1        0.0040
      9  C          6.1080   -0.3730    1.1600 C.2     1  UNL1        0.0040
     10  C          5.5000    1.7440   -0.4080 C.2     1  UNL1        0.0000
     11  C          5.3110    0.6230    1.6900 C.2     1  UNL1        0.0000
     12  C          5.0150    1.6940    0.8700 C.2     1  UNL1        0.0000
@<TRIPOS>BOND
     1     5     4    1
     2     3     2    2
     3     4     2    1
     4     2     1    1
     5     1     6    1
     6     8    10    1
     7     8     7    2
     8     6     7    1
     9    10    12    2
    10     7     9    1
    11    12    11    1
    12     9    11    2
