@<TRIPOS>MOLECULE
/home/cewinharhar/GITHUB/reincatalyze/data/processed/docking_pred/2023-Apr-25-1829_maxeplen10_maxtrainstep200_exh32_gamma099_lrac3e-4_lrcr1e-3/dea2b8be3c05a7e32d8e1c0cb085cc688668c765_ligand_2.pdbqt
 12 12 0 0 0
SMALL
GASTEIGER

@<TRIPOS>ATOM
      1  C          7.3330   -1.3780   -2.2520 C.3     1  UNL1        0.1270
      2  C          8.7730   -1.4110   -2.5620 C.2     1  UNL1        0.3030
      3  O          9.5040   -0.4830   -2.1410 O.2     1  UNL1       -0.2520
      4  O          9.3280   -2.4380   -3.3000 O.3     1  UNL1       -0.4810
      5  H         10.0350   -2.2920   -4.0450 H       1  UNL1        0.2960
      6  C          7.1990   -1.4700   -0.7360 C.3     1  UNL1        0.0470
      7  C          6.4530   -0.3300   -0.1740 C.2     1  UNL1       -0.0470
      8  C          6.0220   -0.4160    1.1440 C.2     1  UNL1        0.0040
      9  C          6.1430    0.8180   -0.8570 C.2     1  UNL1        0.0040
     10  C          5.3090    0.6390    1.7090 C.2     1  UNL1        0.0000
     11  C          5.4390    1.8810   -0.3250 C.2     1  UNL1        0.0000
     12  C          5.0230    1.7650    0.9870 C.2     1  UNL1        0.0000
@<TRIPOS>BOND
     1     5     4    1
     2     4     2    1
     3     2     1    1
     4     2     3    2
     5     1     6    1
     6     9    11    1
     7     9     7    2
     8     6     7    1
     9    11    12    2
    10     7     8    1
    11    12    10    1
    12     8    10    2
