@<TRIPOS>MOLECULE
/home/cewinharhar/GITHUB/reincatalyze/data/processed/docking_pred/2023-Apr-25-1829_maxeplen10_maxtrainstep200_exh32_gamma099_lrac3e-4_lrcr1e-3/dea2b8be3c05a7e32d8e1c0cb085cc688668c765_ligand_2.pdbqt
 12 12 0 0 0
SMALL
GASTEIGER

@<TRIPOS>ATOM
      1  C          8.4830   -0.6630   -2.0880 C.3     1  UNL1        0.1270
      2  C          8.4250   -1.9090   -2.8720 C.2     1  UNL1        0.3030
      3  O          7.3050   -2.3690   -3.1950 O.2     1  UNL1       -0.2520
      4  O          9.5750   -2.5730   -3.2540 O.3     1  UNL1       -0.4810
      5  H         10.4560   -2.5540   -2.7080 H       1  UNL1        0.2960
      6  C          7.0860   -0.0520   -2.1140 C.3     1  UNL1        0.0470
      7  C          6.5090    0.0710   -0.7640 C.2     1  UNL1       -0.0470
      8  C          5.8350    1.2440   -0.4450 C.2     1  UNL1        0.0040
      9  C          6.5880   -0.8870    0.2140 C.2     1  UNL1        0.0040
     10  C          5.2810    1.4000    0.8240 C.2     1  UNL1        0.0000
     11  C          6.0500   -0.7620    1.4800 C.2     1  UNL1        0.0000
     12  C          5.3870    0.4150    1.7680 C.2     1  UNL1        0.0000
@<TRIPOS>BOND
     1     4     2    1
     2     4     5    1
     3     3     2    2
     4     2     1    1
     5     6     1    1
     6     6     7    1
     7     7     8    2
     8     7     9    1
     9     8    10    1
    10     9    11    2
    11    10    12    2
    12    11    12    1
