@<TRIPOS>MOLECULE
/home/cewinharhar/GITHUB/reincatalyze/data/processed/docking_pred/2023-Apr-25-1829_maxeplen10_maxtrainstep200_exh32_gamma099_lrac3e-4_lrcr1e-3/e1ac879641feb84a16575019a922afe40680d27c_ligand_2.pdbqt
 12 12 0 0 0
SMALL
GASTEIGER

@<TRIPOS>ATOM
      1  C          8.4590   -0.6820   -2.0850 C.3     1  UNL1        0.1270
      2  C          8.4590   -1.9150   -2.8910 C.2     1  UNL1        0.3030
      3  O          9.5450   -2.5090   -3.0880 O.2     1  UNL1       -0.2520
      4  O          7.2920   -2.4250   -3.4270 O.3     1  UNL1       -0.4810
      5  H          7.1820   -3.4120   -3.7260 H       1  UNL1        0.2960
      6  C          7.0400   -0.1240   -2.1200 C.3     1  UNL1        0.0470
      7  C          6.4780    0.0510   -0.7690 C.2     1  UNL1       -0.0470
      8  C          6.6180   -0.9930    0.1370 C.2     1  UNL1        0.0040
      9  C          5.8170    1.1700   -0.3330 C.2     1  UNL1        0.0040
     10  C          6.0950   -0.8670    1.4230 C.2     1  UNL1        0.0000
     11  C          5.2880    1.3240    0.9330 C.2     1  UNL1        0.0000
     12  C          5.4410    0.2700    1.8120 C.2     1  UNL1        0.0000
@<TRIPOS>BOND
     1     5     4    1
     2     4     2    1
     3     3     2    2
     4     2     1    1
     5     6     1    1
     6     6     7    1
     7     7     9    2
     8     7     8    1
     9     9    11    1
    10     8    10    2
    11    11    12    2
    12    10    12    1
