@<TRIPOS>MOLECULE
/home/cewinharhar/GITHUB/reincatalyze/data/processed/docking_pred/2023-Apr-25-1829_maxeplen10_maxtrainstep200_exh32_gamma099_lrac3e-4_lrcr1e-3/e1ac879641feb84a16575019a922afe40680d27c_ligand_2.pdbqt
 12 12 0 0 0
SMALL
GASTEIGER

@<TRIPOS>ATOM
      1  C          4.9880    1.7830    0.7230 C.3     1  UNL1        0.1270
      2  C          4.4650    1.1160    1.9280 C.2     1  UNL1        0.3030
      3  O          5.1530    0.2200    2.4700 O.2     1  UNL1       -0.2520
      4  O          3.2400    1.4600    2.4670 O.3     1  UNL1       -0.4810
      5  H          3.0770    1.5920    3.4830 H       1  UNL1        0.2960
      6  C          6.5090    1.7320    0.8070 C.3     1  UNL1        0.0470
      7  C          7.1020    0.9650   -0.3030 C.2     1  UNL1       -0.0470
      8  C          8.4180    1.2370   -0.6560 C.2     1  UNL1        0.0040
      9  C          6.4500   -0.0010   -1.0260 C.2     1  UNL1        0.0040
     10  C          9.0110    0.5360   -1.7050 C.2     1  UNL1        0.0000
     11  C          7.0100   -0.7110   -2.0690 C.2     1  UNL1        0.0000
     12  C          8.3190   -0.4190   -2.3970 C.2     1  UNL1        0.0000
@<TRIPOS>BOND
     1    12    11    2
     2    12    10    1
     3    11     9    1
     4    10     8    2
     5     9     7    2
     6     8     7    1
     7     7     6    1
     8     1     6    1
     9     1     2    1
    10     2     4    1
    11     2     3    2
    12     4     5    1
