MODEL 1
REMARK VINA RESULT:      -7.3      0.000      0.000
REMARK SMILES O=C(O)CCc1ccccc1
REMARK SMILES IDX 4 1 2 2 1 3 3 4 5 6 6 7 7 8 11 9 8 10 10 11 9 12
REMARK H PARENT 3 5
REMARK Flexibility Score: inf
ROOT
ATOM      1  C   UNL     1       8.459  -0.682  -2.085  1.00  0.00     0.127 C 
ENDROOT
BRANCH   1   2
ATOM      2  C   UNL     1       8.459  -1.915  -2.891  1.00  0.00     0.303 C 
ATOM      3  O   UNL     1       9.545  -2.509  -3.088  1.00  0.00    -0.252 OA
BRANCH   2   4
ATOM      4  O   UNL     1       7.292  -2.425  -3.427  1.00  0.00    -0.481 OA
ATOM      5  H   UNL     1       7.182  -3.412  -3.726  1.00  0.00     0.296 HD
ENDBRANCH   2   4
ENDBRANCH   1   2
BRANCH   1   6
ATOM      6  C   UNL     1       7.040  -0.124  -2.120  1.00  0.00     0.047 C 
BRANCH   6   7
ATOM      7  C   UNL     1       6.478   0.051  -0.769  1.00  0.00    -0.047 A 
ATOM      8  C   UNL     1       6.618  -0.993   0.137  1.00  0.00     0.004 A 
ATOM      9  C   UNL     1       5.817   1.170  -0.333  1.00  0.00     0.004 A 
ATOM     10  C   UNL     1       6.095  -0.867   1.423  1.00  0.00     0.000 A 
ATOM     11  C   UNL     1       5.288   1.324   0.933  1.00  0.00     0.000 A 
ATOM     12  C   UNL     1       5.441   0.270   1.812  1.00  0.00     0.000 A 
ENDBRANCH   6   7
ENDBRANCH   1   6
TORSDOF 4
ENDMDL
MODEL 2
REMARK VINA RESULT:      -7.3      0.134      1.433
REMARK SMILES O=C(O)CCc1ccccc1
REMARK SMILES IDX 4 1 2 2 1 3 3 4 5 6 6 7 7 8 11 9 8 10 10 11 9 12
REMARK H PARENT 3 5
REMARK Flexibility Score: inf
ROOT
ATOM      1  C   UNL     1       8.465  -0.582  -2.226  1.00  0.00     0.127 C 
ENDROOT
BRANCH   1   2
ATOM      2  C   UNL     1       8.474  -1.892  -2.898  1.00  0.00     0.303 C 
ATOM      3  O   UNL     1       9.564  -2.499  -3.026  1.00  0.00    -0.252 OA
BRANCH   2   4
ATOM      4  O   UNL     1       7.313  -2.460  -3.386  1.00  0.00    -0.481 OA
ATOM      5  H   UNL     1       6.455  -1.918  -3.598  1.00  0.00     0.296 HD
ENDBRANCH   2   4
ENDBRANCH   1   2
BRANCH   1   6
ATOM      6  C   UNL     1       7.019  -0.097  -2.209  1.00  0.00     0.047 C 
BRANCH   6   7
ATOM      7  C   UNL     1       6.499   0.053  -0.839  1.00  0.00    -0.047 A 
ATOM      8  C   UNL     1       5.881   1.251  -0.502  1.00  0.00     0.004 A 
ATOM      9  C   UNL     1       6.582  -0.902   0.141  1.00  0.00     0.004 A 
ATOM     10  C   UNL     1       5.382   1.433   0.786  1.00  0.00     0.000 A 
ATOM     11  C   UNL     1       6.097  -0.752   1.425  1.00  0.00     0.000 A 
ATOM     12  C   UNL     1       5.489   0.450   1.731  1.00  0.00     0.000 A 
ENDBRANCH   6   7
ENDBRANCH   1   6
TORSDOF 4
ENDMDL
MODEL 3
REMARK VINA RESULT:      -6.9      1.031      1.614
REMARK SMILES O=C(O)CCc1ccccc1
REMARK SMILES IDX 4 1 2 2 1 3 3 4 5 6 6 7 7 8 11 9 8 10 10 11 9 12
REMARK H PARENT 3 5
REMARK Flexibility Score: inf
ROOT
ATOM      1  C   UNL     1       7.340  -1.328  -2.255  1.00  0.00     0.127 C 
ENDROOT
BRANCH   1   2
ATOM      2  C   UNL     1       8.790  -1.365  -2.509  1.00  0.00     0.303 C 
ATOM      3  O   UNL     1       9.267  -2.326  -3.157  1.00  0.00    -0.252 OA
BRANCH   2   4
ATOM      4  O   UNL     1       9.627  -0.366  -2.049  1.00  0.00    -0.481 OA
ATOM      5  H   UNL     1       9.457   0.168  -1.177  1.00  0.00     0.296 HD
ENDBRANCH   2   4
ENDBRANCH   1   2
BRANCH   1   6
ATOM      6  C   UNL     1       7.145  -1.455  -0.748  1.00  0.00     0.047 C 
BRANCH   6   7
ATOM      7  C   UNL     1       6.416  -0.306  -0.183  1.00  0.00    -0.047 A 
ATOM      8  C   UNL     1       6.001  -0.382   1.141  1.00  0.00     0.004 A 
ATOM      9  C   UNL     1       6.106   0.841  -0.868  1.00  0.00     0.004 A 
ATOM     10  C   UNL     1       5.303   0.683   1.709  1.00  0.00     0.000 A 
ATOM     11  C   UNL     1       5.417   1.912  -0.334  1.00  0.00     0.000 A 
ATOM     12  C   UNL     1       5.017   1.807   0.984  1.00  0.00     0.000 A 
ENDBRANCH   6   7
ENDBRANCH   1   6
TORSDOF 4
ENDMDL
MODEL 4
REMARK VINA RESULT:      -6.8      3.377      5.098
REMARK SMILES O=C(O)CCc1ccccc1
REMARK SMILES IDX 4 1 2 2 1 3 3 4 5 6 6 7 7 8 11 9 8 10 10 11 9 12
REMARK H PARENT 3 5
REMARK Flexibility Score: inf
ROOT
ATOM      1  C   UNL     1       4.988   1.783   0.723  1.00  0.00     0.127 C 
ENDROOT
BRANCH   1   2
ATOM      2  C   UNL     1       4.465   1.116   1.928  1.00  0.00     0.303 C 
ATOM      3  O   UNL     1       5.153   0.220   2.470  1.00  0.00    -0.252 OA
BRANCH   2   4
ATOM      4  O   UNL     1       3.240   1.460   2.467  1.00  0.00    -0.481 OA
ATOM      5  H   UNL     1       3.077   1.592   3.483  1.00  0.00     0.296 HD
ENDBRANCH   2   4
ENDBRANCH   1   2
BRANCH   1   6
ATOM      6  C   UNL     1       6.509   1.732   0.807  1.00  0.00     0.047 C 
BRANCH   6   7
ATOM      7  C   UNL     1       7.102   0.965  -0.303  1.00  0.00    -0.047 A 
ATOM      8  C   UNL     1       8.418   1.237  -0.656  1.00  0.00     0.004 A 
ATOM      9  C   UNL     1       6.450  -0.001  -1.026  1.00  0.00     0.004 A 
ATOM     10  C   UNL     1       9.011   0.536  -1.705  1.00  0.00     0.000 A 
ATOM     11  C   UNL     1       7.010  -0.711  -2.069  1.00  0.00     0.000 A 
ATOM     12  C   UNL     1       8.319  -0.419  -2.397  1.00  0.00     0.000 A 
ENDBRANCH   6   7
ENDBRANCH   1   6
TORSDOF 4
ENDMDL
MODEL 5
REMARK VINA RESULT:      -6.6      3.709      4.971
REMARK SMILES O=C(O)CCc1ccccc1
REMARK SMILES IDX 4 1 2 2 1 3 3 4 5 6 6 7 7 8 11 9 8 10 10 11 9 12
REMARK H PARENT 3 5
REMARK Flexibility Score: inf
ROOT
ATOM      1  C   UNL     1       5.339   2.991   0.076  1.00  0.00     0.127 C 
ENDROOT
BRANCH   1   2
ATOM      2  C   UNL     1       6.234   3.856   0.864  1.00  0.00     0.303 C 
ATOM      3  O   UNL     1       6.873   4.760   0.277  1.00  0.00    -0.252 OA
BRANCH   2   4
ATOM      4  O   UNL     1       6.378   3.691   2.229  1.00  0.00    -0.481 OA
ATOM      5  H   UNL     1       5.613   3.854   2.909  1.00  0.00     0.296 HD
ENDBRANCH   2   4
ENDBRANCH   1   2
BRANCH   1   6
ATOM      6  C   UNL     1       5.228   1.665   0.820  1.00  0.00     0.047 C 
BRANCH   6   7
ATOM      7  C   UNL     1       6.008   0.597   0.171  1.00  0.00    -0.047 A 
ATOM      8  C   UNL     1       6.451  -0.460   0.958  1.00  0.00     0.004 A 
ATOM      9  C   UNL     1       6.340   0.564  -1.159  1.00  0.00     0.004 A 
ATOM     10  C   UNL     1       7.197  -1.486   0.382  1.00  0.00     0.000 A 
ATOM     11  C   UNL     1       7.077  -0.438  -1.759  1.00  0.00     0.000 A 
ATOM     12  C   UNL     1       7.504  -1.474  -0.952  1.00  0.00     0.000 A 
ENDBRANCH   6   7
ENDBRANCH   1   6
TORSDOF 4
ENDMDL
