@<TRIPOS>MOLECULE
/home/cewinharhar/GITHUB/reincatalyze/data/processed/docking_pred/2023-Apr-25-1829_maxeplen10_maxtrainstep200_exh32_gamma099_lrac3e-4_lrcr1e-3/e1ac879641feb84a16575019a922afe40680d27c_ligand_2.pdbqt
 12 12 0 0 0
SMALL
GASTEIGER

@<TRIPOS>ATOM
      1  C          7.3400   -1.3280   -2.2550 C.3     1  UNL1        0.1270
      2  C          8.7900   -1.3650   -2.5090 C.2     1  UNL1        0.3030
      3  O          9.2670   -2.3260   -3.1570 O.2     1  UNL1       -0.2520
      4  O          9.6270   -0.3660   -2.0490 O.3     1  UNL1       -0.4810
      5  H          9.4570    0.1680   -1.1770 H       1  UNL1        0.2960
      6  C          7.1450   -1.4550   -0.7480 C.3     1  UNL1        0.0470
      7  C          6.4160   -0.3060   -0.1830 C.2     1  UNL1       -0.0470
      8  C          6.0010   -0.3820    1.1410 C.2     1  UNL1        0.0040
      9  C          6.1060    0.8410   -0.8680 C.2     1  UNL1        0.0040
     10  C          5.3030    0.6830    1.7090 C.2     1  UNL1        0.0000
     11  C          5.4170    1.9120   -0.3340 C.2     1  UNL1        0.0000
     12  C          5.0170    1.8070    0.9840 C.2     1  UNL1        0.0000
@<TRIPOS>BOND
     1     3     2    2
     2     2     1    1
     3     2     4    1
     4     1     6    1
     5     4     5    1
     6     9    11    1
     7     9     7    2
     8     6     7    1
     9    11    12    2
    10     7     8    1
    11    12    10    1
    12     8    10    2
