@<TRIPOS>MOLECULE
/home/cewinharhar/GITHUB/reincatalyze/data/processed/docking_pred/2023-Apr-25-1829_maxeplen10_maxtrainstep200_exh32_gamma099_lrac3e-4_lrcr1e-3/e1ac879641feb84a16575019a922afe40680d27c_ligand_2.pdbqt
 12 12 0 0 0
SMALL
GASTEIGER

@<TRIPOS>ATOM
      1  C          5.3390    2.9910    0.0760 C.3     1  UNL1        0.1270
      2  C          6.2340    3.8560    0.8640 C.2     1  UNL1        0.3030
      3  O          6.8730    4.7600    0.2770 O.2     1  UNL1       -0.2520
      4  O          6.3780    3.6910    2.2290 O.3     1  UNL1       -0.4810
      5  H          5.6130    3.8540    2.9090 H       1  UNL1        0.2960
      6  C          5.2280    1.6650    0.8200 C.3     1  UNL1        0.0470
      7  C          6.0080    0.5970    0.1710 C.2     1  UNL1       -0.0470
      8  C          6.4510   -0.4600    0.9580 C.2     1  UNL1        0.0040
      9  C          6.3400    0.5640   -1.1590 C.2     1  UNL1        0.0040
     10  C          7.1970   -1.4860    0.3820 C.2     1  UNL1        0.0000
     11  C          7.0770   -0.4380   -1.7590 C.2     1  UNL1        0.0000
     12  C          7.5040   -1.4740   -0.9520 C.2     1  UNL1        0.0000
@<TRIPOS>BOND
     1    11     9    1
     2    11    12    2
     3     9     7    2
     4    12    10    1
     5     1     6    1
     6     1     2    1
     7     7     6    1
     8     7     8    1
     9     3     2    2
    10    10     8    2
    11     2     4    1
    12     4     5    1
