@<TRIPOS>MOLECULE
/home/cewinharhar/GITHUB/reincatalyze/data/processed/docking_pred/2023-Apr-25-1829_maxeplen10_maxtrainstep200_exh32_gamma099_lrac3e-4_lrcr1e-3/e3fbdfe9b196bdc40f83d7817e536621cd4b8c1b_ligand_2.pdbqt
 12 12 0 0 0
SMALL
GASTEIGER

@<TRIPOS>ATOM
      1  C          8.3310    0.3340   -2.0580 C.3     1  UNL1        0.1270
      2  C          9.4670    0.4100   -1.1220 C.2     1  UNL1        0.3030
      3  O          9.5050   -0.3810   -0.1510 O.2     1  UNL1       -0.2520
      4  O         10.4830    1.3310   -1.2970 O.3     1  UNL1       -0.4810
      5  H         11.1800    1.5600   -0.5650 H       1  UNL1        0.2960
      6  C          7.2670   -0.5380   -1.4010 C.3     1  UNL1        0.0470
      7  C          6.4180    0.2270   -0.4710 C.2     1  UNL1       -0.0470
      8  C          6.1840   -0.3070    0.7900 C.2     1  UNL1        0.0040
      9  C          5.8290    1.4320   -0.7560 C.2     1  UNL1        0.0040
     10  C          5.3800    0.3840    1.6950 C.2     1  UNL1        0.0000
     11  C          5.0290    2.1400    0.1180 C.2     1  UNL1        0.0000
     12  C          4.8140    1.5840    1.3640 C.2     1  UNL1        0.0000
@<TRIPOS>BOND
     1     1     6    1
     2     1     2    1
     3     6     7    1
     4     4     2    1
     5     4     5    1
     6     2     3    2
     7     9     7    2
     8     9    11    1
     9     7     8    1
    10    11    12    2
    11     8    10    2
    12    12    10    1
