@<TRIPOS>MOLECULE
/home/cewinharhar/GITHUB/reincatalyze/data/processed/docking_pred/2023-Apr-25-1829_maxeplen10_maxtrainstep200_exh32_gamma099_lrac3e-4_lrcr1e-3/e3fbdfe9b196bdc40f83d7817e536621cd4b8c1b_ligand_2.pdbqt
 12 12 0 0 0
SMALL
GASTEIGER

@<TRIPOS>ATOM
      1  C          4.9760    1.7770    0.7080 C.3     1  UNL1        0.1270
      2  C          4.4660    1.1170    1.9230 C.2     1  UNL1        0.3030
      3  O          5.1640    0.2300    2.4680 O.2     1  UNL1       -0.2520
      4  O          3.2420    1.4560    2.4670 O.3     1  UNL1       -0.4810
      5  H          2.3500    1.0000    2.2000 H       1  UNL1        0.2960
      6  C          6.4950    1.8130    0.8220 C.3     1  UNL1        0.0470
      7  C          7.1530    1.1060   -0.2910 C.2     1  UNL1       -0.0470
      8  C          6.3780    0.2650   -1.0800 C.2     1  UNL1        0.0040
      9  C          8.4830    1.2080   -0.6090 C.2     1  UNL1        0.0040
     10  C          6.9650   -0.4260   -2.1380 C.2     1  UNL1        0.0000
     11  C          9.0930    0.5370   -1.6500 C.2     1  UNL1        0.0000
     12  C          8.2980   -0.2920   -2.4170 C.2     1  UNL1        0.0000
@<TRIPOS>BOND
     1    12    10    2
     2    12    11    1
     3    10     8    1
     4    11     9    2
     5     8     7    2
     6     9     7    1
     7     7     6    1
     8     1     6    1
     9     1     2    1
    10     2     4    1
    11     2     3    2
    12     5     4    1
