@<TRIPOS>MOLECULE
/home/cewinharhar/GITHUB/reincatalyze/data/processed/docking_pred/2023-Apr-25-1829_maxeplen10_maxtrainstep200_exh32_gamma099_lrac3e-4_lrcr1e-3/e3fbdfe9b196bdc40f83d7817e536621cd4b8c1b_ligand_2.pdbqt
 12 12 0 0 0
SMALL
GASTEIGER

@<TRIPOS>ATOM
      1  C          8.4540   -0.6190   -2.1960 C.3     1  UNL1        0.1270
      2  C          8.4640   -1.8980   -2.9270 C.2     1  UNL1        0.3030
      3  O          9.5550   -2.4920   -3.0930 O.2     1  UNL1       -0.2520
      4  O          7.3000   -2.4500   -3.4270 O.3     1  UNL1       -0.4810
      5  H          7.2360   -3.4170   -3.7940 H       1  UNL1        0.2960
      6  C          7.0110   -0.1270   -2.1720 C.3     1  UNL1        0.0470
      7  C          6.4890   -0.0020   -0.8000 C.2     1  UNL1       -0.0470
      8  C          5.8570    1.1830   -0.4460 C.2     1  UNL1        0.0040
      9  C          6.5840   -0.9700    0.1670 C.2     1  UNL1        0.0040
     10  C          5.3560    1.3410    0.8450 C.2     1  UNL1        0.0000
     11  C          6.0970   -0.8440    1.4530 C.2     1  UNL1        0.0000
     12  C          5.4740    0.3460    1.7760 C.2     1  UNL1        0.0000
@<TRIPOS>BOND
     1     5     4    1
     2     4     2    1
     3     3     2    2
     4     2     1    1
     5     1     6    1
     6     6     7    1
     7     7     8    2
     8     7     9    1
     9     8    10    1
    10     9    11    2
    11    10    12    2
    12    11    12    1
