MODEL 1
REMARK VINA RESULT:      -7.3      0.000      0.000
REMARK SMILES O=C(O)CCc1ccccc1
REMARK SMILES IDX 4 1 2 2 1 3 3 4 5 6 6 7 7 8 11 9 8 10 10 11 9 12
REMARK H PARENT 3 5
REMARK Flexibility Score: inf
ROOT
ATOM      1  C   UNL     1       8.454  -0.619  -2.196  1.00  0.00     0.127 C 
ENDROOT
BRANCH   1   2
ATOM      2  C   UNL     1       8.464  -1.898  -2.927  1.00  0.00     0.303 C 
ATOM      3  O   UNL     1       9.555  -2.492  -3.093  1.00  0.00    -0.252 OA
BRANCH   2   4
ATOM      4  O   UNL     1       7.300  -2.450  -3.427  1.00  0.00    -0.481 OA
ATOM      5  H   UNL     1       7.236  -3.417  -3.794  1.00  0.00     0.296 HD
ENDBRANCH   2   4
ENDBRANCH   1   2
BRANCH   1   6
ATOM      6  C   UNL     1       7.011  -0.127  -2.172  1.00  0.00     0.047 C 
BRANCH   6   7
ATOM      7  C   UNL     1       6.489  -0.002  -0.800  1.00  0.00    -0.047 A 
ATOM      8  C   UNL     1       5.857   1.183  -0.446  1.00  0.00     0.004 A 
ATOM      9  C   UNL     1       6.584  -0.970   0.167  1.00  0.00     0.004 A 
ATOM     10  C   UNL     1       5.356   1.341   0.845  1.00  0.00     0.000 A 
ATOM     11  C   UNL     1       6.097  -0.844   1.453  1.00  0.00     0.000 A 
ATOM     12  C   UNL     1       5.474   0.346   1.776  1.00  0.00     0.000 A 
ENDBRANCH   6   7
ENDBRANCH   1   6
TORSDOF 4
ENDMDL
MODEL 2
REMARK VINA RESULT:      -7.2      0.112      1.727
REMARK SMILES O=C(O)CCc1ccccc1
REMARK SMILES IDX 4 1 2 2 1 3 3 4 5 6 6 7 7 8 11 9 8 10 10 11 9 12
REMARK H PARENT 3 5
REMARK Flexibility Score: inf
ROOT
ATOM      1  C   UNL     1       8.426  -0.626  -2.141  1.00  0.00     0.127 C 
ENDROOT
BRANCH   1   2
ATOM      2  C   UNL     1       8.406  -1.894  -2.891  1.00  0.00     0.303 C 
ATOM      3  O   UNL     1       7.300  -2.393  -3.207  1.00  0.00    -0.252 OA
BRANCH   2   4
ATOM      4  O   UNL     1       9.575  -2.537  -3.250  1.00  0.00    -0.481 OA
ATOM      5  H   UNL     1      10.315  -2.802  -2.574  1.00  0.00     0.296 HD
ENDBRANCH   2   4
ENDBRANCH   1   2
BRANCH   1   6
ATOM      6  C   UNL     1       7.005  -0.075  -2.154  1.00  0.00     0.047 C 
BRANCH   6   7
ATOM      7  C   UNL     1       6.466   0.105  -0.794  1.00  0.00    -0.047 A 
ATOM      8  C   UNL     1       6.589  -0.949   0.103  1.00  0.00     0.004 A 
ATOM      9  C   UNL     1       5.842   1.239  -0.341  1.00  0.00     0.004 A 
ATOM     10  C   UNL     1       6.086  -0.819   1.396  1.00  0.00     0.000 A 
ATOM     11  C   UNL     1       5.334   1.398   0.933  1.00  0.00     0.000 A 
ATOM     12  C   UNL     1       5.470   0.333   1.802  1.00  0.00     0.000 A 
ENDBRANCH   6   7
ENDBRANCH   1   6
TORSDOF 4
ENDMDL
MODEL 3
REMARK VINA RESULT:      -7.0      0.632      1.881
REMARK SMILES O=C(O)CCc1ccccc1
REMARK SMILES IDX 4 1 2 2 1 3 3 4 5 6 6 7 7 8 11 9 8 10 10 11 9 12
REMARK H PARENT 3 5
REMARK Flexibility Score: inf
ROOT
ATOM      1  C   UNL     1       8.282  -0.775  -2.046  1.00  0.00     0.127 C 
ENDROOT
BRANCH   1   2
ATOM      2  C   UNL     1       8.348  -1.972  -2.902  1.00  0.00     0.303 C 
ATOM      3  O   UNL     1       7.281  -2.457  -3.347  1.00  0.00    -0.252 OA
BRANCH   2   4
ATOM      4  O   UNL     1       9.556  -2.562  -3.223  1.00  0.00    -0.481 OA
ATOM      5  H   UNL     1       9.776  -2.944  -4.161  1.00  0.00     0.296 HD
ENDBRANCH   2   4
ENDBRANCH   1   2
BRANCH   1   6
ATOM      6  C   UNL     1       7.718  -1.217  -0.700  1.00  0.00     0.047 C 
BRANCH   6   7
ATOM      7  C   UNL     1       6.773  -0.233  -0.143  1.00  0.00    -0.047 A 
ATOM      8  C   UNL     1       6.298  -0.440   1.146  1.00  0.00     0.004 A 
ATOM      9  C   UNL     1       6.317   0.879  -0.804  1.00  0.00     0.004 A 
ATOM     10  C   UNL     1       5.398   0.466   1.705  1.00  0.00     0.000 A 
ATOM     11  C   UNL     1       5.427   1.794  -0.277  1.00  0.00     0.000 A 
ATOM     12  C   UNL     1       4.971   1.561   1.006  1.00  0.00     0.000 A 
ENDBRANCH   6   7
ENDBRANCH   1   6
TORSDOF 4
ENDMDL
MODEL 4
REMARK VINA RESULT:      -6.8      3.386      5.094
REMARK SMILES O=C(O)CCc1ccccc1
REMARK SMILES IDX 4 1 2 2 1 3 3 4 5 6 6 7 7 8 11 9 8 10 10 11 9 12
REMARK H PARENT 3 5
REMARK Flexibility Score: inf
ROOT
ATOM      1  C   UNL     1       4.976   1.777   0.708  1.00  0.00     0.127 C 
ENDROOT
BRANCH   1   2
ATOM      2  C   UNL     1       4.466   1.117   1.923  1.00  0.00     0.303 C 
ATOM      3  O   UNL     1       5.164   0.230   2.468  1.00  0.00    -0.252 OA
BRANCH   2   4
ATOM      4  O   UNL     1       3.242   1.456   2.467  1.00  0.00    -0.481 OA
ATOM      5  H   UNL     1       2.350   1.000   2.200  1.00  0.00     0.296 HD
ENDBRANCH   2   4
ENDBRANCH   1   2
BRANCH   1   6
ATOM      6  C   UNL     1       6.495   1.813   0.822  1.00  0.00     0.047 C 
BRANCH   6   7
ATOM      7  C   UNL     1       7.153   1.106  -0.291  1.00  0.00    -0.047 A 
ATOM      8  C   UNL     1       6.378   0.265  -1.080  1.00  0.00     0.004 A 
ATOM      9  C   UNL     1       8.483   1.208  -0.609  1.00  0.00     0.004 A 
ATOM     10  C   UNL     1       6.965  -0.426  -2.138  1.00  0.00     0.000 A 
ATOM     11  C   UNL     1       9.093   0.537  -1.650  1.00  0.00     0.000 A 
ATOM     12  C   UNL     1       8.298  -0.292  -2.417  1.00  0.00     0.000 A 
ENDBRANCH   6   7
ENDBRANCH   1   6
TORSDOF 4
ENDMDL
MODEL 5
REMARK VINA RESULT:      -6.6      1.978      2.701
REMARK SMILES O=C(O)CCc1ccccc1
REMARK SMILES IDX 4 1 2 2 1 3 3 4 5 6 6 7 7 8 11 9 8 10 10 11 9 12
REMARK H PARENT 3 5
REMARK Flexibility Score: inf
ROOT
ATOM      1  C   UNL     1       8.331   0.334  -2.058  1.00  0.00     0.127 C 
ENDROOT
BRANCH   1   2
ATOM      2  C   UNL     1       9.467   0.410  -1.122  1.00  0.00     0.303 C 
ATOM      3  O   UNL     1       9.505  -0.381  -0.151  1.00  0.00    -0.252 OA
BRANCH   2   4
ATOM      4  O   UNL     1      10.483   1.331  -1.297  1.00  0.00    -0.481 OA
ATOM      5  H   UNL     1      11.180   1.560  -0.565  1.00  0.00     0.296 HD
ENDBRANCH   2   4
ENDBRANCH   1   2
BRANCH   1   6
ATOM      6  C   UNL     1       7.267  -0.538  -1.401  1.00  0.00     0.047 C 
BRANCH   6   7
ATOM      7  C   UNL     1       6.418   0.227  -0.471  1.00  0.00    -0.047 A 
ATOM      8  C   UNL     1       6.184  -0.307   0.790  1.00  0.00     0.004 A 
ATOM      9  C   UNL     1       5.829   1.432  -0.756  1.00  0.00     0.004 A 
ATOM     10  C   UNL     1       5.380   0.384   1.695  1.00  0.00     0.000 A 
ATOM     11  C   UNL     1       5.029   2.140   0.118  1.00  0.00     0.000 A 
ATOM     12  C   UNL     1       4.814   1.584   1.364  1.00  0.00     0.000 A 
ENDBRANCH   6   7
ENDBRANCH   1   6
TORSDOF 4
ENDMDL
