@<TRIPOS>MOLECULE
/home/cewinharhar/GITHUB/reincatalyze/data/processed/docking_pred/2023-Apr-25-1829_maxeplen10_maxtrainstep200_exh32_gamma099_lrac3e-4_lrcr1e-3/e3fbdfe9b196bdc40f83d7817e536621cd4b8c1b_ligand_2.pdbqt
 12 12 0 0 0
SMALL
GASTEIGER

@<TRIPOS>ATOM
      1  C          8.4260   -0.6260   -2.1410 C.3     1  UNL1        0.1270
      2  C          8.4060   -1.8940   -2.8910 C.2     1  UNL1        0.3030
      3  O          7.3000   -2.3930   -3.2070 O.2     1  UNL1       -0.2520
      4  O          9.5750   -2.5370   -3.2500 O.3     1  UNL1       -0.4810
      5  H         10.3150   -2.8020   -2.5740 H       1  UNL1        0.2960
      6  C          7.0050   -0.0750   -2.1540 C.3     1  UNL1        0.0470
      7  C          6.4660    0.1050   -0.7940 C.2     1  UNL1       -0.0470
      8  C          6.5890   -0.9490    0.1030 C.2     1  UNL1        0.0040
      9  C          5.8420    1.2390   -0.3410 C.2     1  UNL1        0.0040
     10  C          6.0860   -0.8190    1.3960 C.2     1  UNL1        0.0000
     11  C          5.3340    1.3980    0.9330 C.2     1  UNL1        0.0000
     12  C          5.4700    0.3330    1.8020 C.2     1  UNL1        0.0000
@<TRIPOS>BOND
     1     4     2    1
     2     4     5    1
     3     3     2    2
     4     2     1    1
     5     6     1    1
     6     6     7    1
     7     7     9    2
     8     7     8    1
     9     9    11    1
    10     8    10    2
    11    11    12    2
    12    10    12    1
