@<TRIPOS>MOLECULE
/home/cewinharhar/GITHUB/reincatalyze/data/processed/docking_pred/2023-Apr-25-1829_maxeplen10_maxtrainstep200_exh32_gamma099_lrac3e-4_lrcr1e-3/e3fbdfe9b196bdc40f83d7817e536621cd4b8c1b_ligand_2.pdbqt
 12 12 0 0 0
SMALL
GASTEIGER

@<TRIPOS>ATOM
      1  C          8.2820   -0.7750   -2.0460 C.3     1  UNL1        0.1270
      2  C          8.3480   -1.9720   -2.9020 C.2     1  UNL1        0.3030
      3  O          7.2810   -2.4570   -3.3470 O.2     1  UNL1       -0.2520
      4  O          9.5560   -2.5620   -3.2230 O.3     1  UNL1       -0.4810
      5  H          9.7760   -2.9440   -4.1610 H       1  UNL1        0.2960
      6  C          7.7180   -1.2170   -0.7000 C.3     1  UNL1        0.0470
      7  C          6.7730   -0.2330   -0.1430 C.2     1  UNL1       -0.0470
      8  C          6.2980   -0.4400    1.1460 C.2     1  UNL1        0.0040
      9  C          6.3170    0.8790   -0.8040 C.2     1  UNL1        0.0040
     10  C          5.3980    0.4660    1.7050 C.2     1  UNL1        0.0000
     11  C          5.4270    1.7940   -0.2770 C.2     1  UNL1        0.0000
     12  C          4.9710    1.5610    1.0060 C.2     1  UNL1        0.0000
@<TRIPOS>BOND
     1     5     4    1
     2     3     2    2
     3     4     2    1
     4     2     1    1
     5     1     6    1
     6     9    11    1
     7     9     7    2
     8     6     7    1
     9    11    12    2
    10     7     8    1
    11    12    10    1
    12     8    10    2
