@<TRIPOS>MOLECULE
/home/cewinharhar/GITHUB/reincatalyze/data/processed/docking_pred/2023-Apr-25-1829_maxeplen10_maxtrainstep200_exh32_gamma099_lrac3e-4_lrcr1e-3/e72dfb9ce69b60d9dd63e32278a4acfac8a78322_ligand_2.pdbqt
 12 12 0 0 0
SMALL
GASTEIGER

@<TRIPOS>ATOM
      1  C          8.2250   -0.8390   -1.9710 C.3     1  UNL1        0.1270
      2  C          8.3800   -1.9720   -2.9010 C.2     1  UNL1        0.3030
      3  O          9.5290   -2.4230   -3.1190 O.2     1  UNL1       -0.2520
      4  O          7.2900   -2.5420   -3.5300 O.3     1  UNL1       -0.4810
      5  H          7.1060   -3.5620   -3.5450 H       1  UNL1        0.2960
      6  C          7.3740   -1.3300   -0.8050 C.3     1  UNL1        0.0470
      7  C          6.5590   -0.2510   -0.2200 C.2     1  UNL1       -0.0470
      8  C          6.1560   -0.3810    1.1040 C.2     1  UNL1        0.0040
      9  C          6.1570    0.8780   -0.8850 C.2     1  UNL1        0.0040
     10  C          5.3780    0.6150    1.6910 C.2     1  UNL1        0.0000
     11  C          5.3870    1.8820   -0.3310 C.2     1  UNL1        0.0000
     12  C          5.0010    1.7250    0.9860 C.2     1  UNL1        0.0000
@<TRIPOS>BOND
     1     5     4    1
     2     4     2    1
     3     3     2    2
     4     2     1    1
     5     1     6    1
     6     9    11    1
     7     9     7    2
     8     6     7    1
     9    11    12    2
    10     7     8    1
    11    12    10    1
    12     8    10    2
