@<TRIPOS>MOLECULE
/home/cewinharhar/GITHUB/reincatalyze/data/processed/docking_pred/2023-Apr-25-1829_maxeplen10_maxtrainstep200_exh32_gamma099_lrac3e-4_lrcr1e-3/e72dfb9ce69b60d9dd63e32278a4acfac8a78322_ligand_2.pdbqt
 12 12 0 0 0
SMALL
GASTEIGER

@<TRIPOS>ATOM
      1  C          8.4190   -0.6760   -2.1120 C.3     1  UNL1        0.1270
      2  C          8.3950   -1.9290   -2.8870 C.2     1  UNL1        0.3030
      3  O          7.2890   -2.3950   -3.2500 O.2     1  UNL1       -0.2520
      4  O          9.5610   -2.5920   -3.2180 O.3     1  UNL1       -0.4810
      5  H         10.4800   -2.3880   -2.7850 H       1  UNL1        0.2960
      6  C          7.0060   -0.1030   -2.1420 C.3     1  UNL1        0.0470
      7  C          6.4590    0.0990   -0.7890 C.2     1  UNL1       -0.0470
      8  C          6.6180   -0.9230    0.1390 C.2     1  UNL1        0.0040
      9  C          5.7950    1.2230   -0.3700 C.2     1  UNL1        0.0040
     10  C          6.1090   -0.7710    1.4280 C.2     1  UNL1        0.0000
     11  C          5.2800    1.4030    0.8980 C.2     1  UNL1        0.0000
     12  C          5.4520    0.3700    1.7990 C.2     1  UNL1        0.0000
@<TRIPOS>BOND
     1     3     2    2
     2     4     2    1
     3     4     5    1
     4     2     1    1
     5     6     1    1
     6     6     7    1
     7     7     9    2
     8     7     8    1
     9     9    11    1
    10     8    10    2
    11    11    12    2
    12    10    12    1
