@<TRIPOS>MOLECULE
/home/cewinharhar/GITHUB/reincatalyze/data/processed/docking_pred/2023-Apr-25-1829_maxeplen10_maxtrainstep200_exh32_gamma099_lrac3e-4_lrcr1e-3/e72dfb9ce69b60d9dd63e32278a4acfac8a78322_ligand_2.pdbqt
 12 12 0 0 0
SMALL
GASTEIGER

@<TRIPOS>ATOM
      1  C          5.0140    1.7640    0.7510 C.3     1  UNL1        0.1270
      2  C          4.4620    1.1020    1.9460 C.2     1  UNL1        0.3030
      3  O          5.1270    0.1930    2.4970 O.2     1  UNL1       -0.2520
      4  O          3.2340    1.4640    2.4680 O.3     1  UNL1       -0.4810
      5  H          2.7400    2.3390    2.2150 H       1  UNL1        0.2960
      6  C          6.5320    1.6650    0.8450 C.3     1  UNL1        0.0470
      7  C          7.1100    0.9060   -0.2770 C.2     1  UNL1       -0.0470
      8  C          8.4050    1.2140   -0.6770 C.2     1  UNL1        0.0040
      9  C          6.4650   -0.0860   -0.9700 C.2     1  UNL1        0.0040
     10  C          8.9840    0.5230   -1.7400 C.2     1  UNL1        0.0000
     11  C          7.0110   -0.7890   -2.0250 C.2     1  UNL1        0.0000
     12  C          8.2990   -0.4600   -2.4000 C.2     1  UNL1        0.0000
@<TRIPOS>BOND
     1    12    11    2
     2    12    10    1
     3    11     9    1
     4    10     8    2
     5     9     7    2
     6     8     7    1
     7     7     6    1
     8     1     6    1
     9     1     2    1
    10     2     4    1
    11     2     3    2
    12     5     4    1
