@<TRIPOS>MOLECULE
/home/cewinharhar/GITHUB/reincatalyze/data/processed/docking_pred/2023-Apr-25-1829_maxeplen10_maxtrainstep200_exh32_gamma099_lrac3e-4_lrcr1e-3/e72dfb9ce69b60d9dd63e32278a4acfac8a78322_ligand_2.pdbqt
 12 12 0 0 0
SMALL
GASTEIGER

@<TRIPOS>ATOM
      1  C          8.4480   -0.5750   -2.2510 C.3     1  UNL1        0.1270
      2  C          8.4750   -1.8910   -2.9130 C.2     1  UNL1        0.3030
      3  O          9.5730   -2.4850   -3.0330 O.2     1  UNL1       -0.2520
      4  O          7.3220   -2.4780   -3.3970 O.3     1  UNL1       -0.4810
      5  H          6.5290   -2.7660   -2.7950 H       1  UNL1        0.2960
      6  C          6.9900   -0.1320   -2.1950 C.3     1  UNL1        0.0470
      7  C          6.4930   -0.0320   -0.8120 C.2     1  UNL1       -0.0470
      8  C          5.8730    1.1500   -0.4240 C.2     1  UNL1        0.0040
      9  C          6.5980   -1.0190    0.1340 C.2     1  UNL1        0.0040
     10  C          5.3950    1.2850    0.8790 C.2     1  UNL1        0.0000
     11  C          6.1350   -0.9160    1.4310 C.2     1  UNL1        0.0000
     12  C          5.5250    0.2710    1.7880 C.2     1  UNL1        0.0000
@<TRIPOS>BOND
     1     4     2    1
     2     4     5    1
     3     3     2    2
     4     2     1    1
     5     1     6    1
     6     6     7    1
     7     7     8    2
     8     7     9    1
     9     8    10    1
    10     9    11    2
    11    10    12    2
    12    11    12    1
