@<TRIPOS>MOLECULE
/home/cewinharhar/GITHUB/reincatalyze/data/processed/docking_pred/2023-Apr-25-1829_maxeplen10_maxtrainstep200_exh32_gamma099_lrac3e-4_lrcr1e-3/f15420a79f585431148ea344134f913ab78e73cd_ligand_2.pdbqt
 12 12 0 0 0
SMALL
GASTEIGER

@<TRIPOS>ATOM
      1  C          5.0090    1.7970    0.7340 C.3     1  UNL1        0.1270
      2  C          4.4760    1.1150    1.9270 C.2     1  UNL1        0.3030
      3  O          5.1590    0.2110    2.4620 O.2     1  UNL1       -0.2520
      4  O          3.2470    1.4540    2.4610 O.3     1  UNL1       -0.4810
      5  H          2.5030    0.7630    2.6690 H       1  UNL1        0.2960
      6  C          6.5290    1.7280    0.8210 C.3     1  UNL1        0.0470
      7  C          7.1150    0.9610   -0.2930 C.2     1  UNL1       -0.0470
      8  C          8.4310    1.2280   -0.6490 C.2     1  UNL1        0.0040
      9  C          6.4570    0.0010   -1.0160 C.2     1  UNL1        0.0040
     10  C          9.0180    0.5280   -1.7010 C.2     1  UNL1        0.0000
     11  C          7.0100   -0.7100   -2.0630 C.2     1  UNL1        0.0000
     12  C          8.3200   -0.4230   -2.3950 C.2     1  UNL1        0.0000
@<TRIPOS>BOND
     1    12    11    2
     2    12    10    1
     3    11     9    1
     4    10     8    2
     5     9     7    2
     6     8     7    1
     7     7     6    1
     8     1     6    1
     9     1     2    1
    10     2     4    1
    11     2     3    2
    12     4     5    1
