@<TRIPOS>MOLECULE
/home/cewinharhar/GITHUB/reincatalyze/data/processed/docking_pred/2023-Apr-25-1829_maxeplen10_maxtrainstep200_exh32_gamma099_lrac3e-4_lrcr1e-3/f15420a79f585431148ea344134f913ab78e73cd_ligand_2.pdbqt
 12 12 0 0 0
SMALL
GASTEIGER

@<TRIPOS>ATOM
      1  C          4.9680    1.8000    0.6970 C.3     1  UNL1        0.1270
      2  C          4.4640    1.1330    1.9100 C.2     1  UNL1        0.3030
      3  O          5.1650    0.2430    2.4480 O.2     1  UNL1       -0.2520
      4  O          3.2420    1.4690    2.4610 O.3     1  UNL1       -0.4810
      5  H          2.8140    2.4100    2.3760 H       1  UNL1        0.2960
      6  C          6.4880    1.8440    0.8100 C.3     1  UNL1        0.0470
      7  C          7.1490    1.1350   -0.3000 C.2     1  UNL1       -0.0470
      8  C          6.3710    0.3120   -1.1050 C.2     1  UNL1        0.0040
      9  C          8.4840    1.2190   -0.6010 C.2     1  UNL1        0.0040
     10  C          6.9610   -0.3800   -2.1610 C.2     1  UNL1        0.0000
     11  C          9.0970    0.5470   -1.6400 C.2     1  UNL1        0.0000
     12  C          8.2990   -0.2640   -2.4220 C.2     1  UNL1        0.0000
@<TRIPOS>BOND
     1    12    10    2
     2    12    11    1
     3    10     8    1
     4    11     9    2
     5     8     7    2
     6     9     7    1
     7     7     6    1
     8     1     6    1
     9     1     2    1
    10     2     3    2
    11     2     4    1
    12     5     4    1
