@<TRIPOS>MOLECULE
/home/cewinharhar/GITHUB/reincatalyze/data/processed/docking_pred/2023-Apr-25-1829_maxeplen10_maxtrainstep200_exh32_gamma099_lrac3e-4_lrcr1e-3/f15420a79f585431148ea344134f913ab78e73cd_ligand_2.pdbqt
 12 12 0 0 0
SMALL
GASTEIGER

@<TRIPOS>ATOM
      1  C          8.4480   -0.5530   -2.0370 C.3     1  UNL1        0.1270
      2  C          8.4810   -1.8060   -2.8110 C.2     1  UNL1        0.3030
      3  O          9.5840   -2.3670   -3.0080 O.2     1  UNL1       -0.2520
      4  O          7.3260   -2.3690   -3.3190 O.3     1  UNL1       -0.4810
      5  H          6.5910   -2.8010   -2.7280 H       1  UNL1        0.2960
      6  C          7.0240   -0.0150   -2.1160 C.3     1  UNL1        0.0470
      7  C          6.4360    0.2010   -0.7820 C.2     1  UNL1       -0.0470
      8  C          6.5660   -0.8110    0.1610 C.2     1  UNL1        0.0040
      9  C          5.7600    1.3300   -0.3950 C.2     1  UNL1        0.0040
     10  C          6.0180   -0.6460    1.4320 C.2     1  UNL1        0.0000
     11  C          5.2070    1.5230    0.8550 C.2     1  UNL1        0.0000
     12  C          5.3510    0.4990    1.7710 C.2     1  UNL1        0.0000
@<TRIPOS>BOND
     1     4     2    1
     2     4     5    1
     3     3     2    2
     4     2     1    1
     5     6     1    1
     6     6     7    1
     7     7     9    2
     8     7     8    1
     9     9    11    1
    10     8    10    2
    11    11    12    2
    12    10    12    1
