@<TRIPOS>MOLECULE
/home/cewinharhar/GITHUB/reincatalyze/data/processed/docking_pred/2023-Apr-25-1829_maxeplen10_maxtrainstep200_exh32_gamma099_lrac3e-4_lrcr1e-3/f15420a79f585431148ea344134f913ab78e73cd_ligand_2.pdbqt
 12 12 0 0 0
SMALL
GASTEIGER

@<TRIPOS>ATOM
      1  C          8.4470   -0.4500   -2.1300 C.3     1  UNL1        0.1270
      2  C          8.4790   -1.7440   -2.8350 C.2     1  UNL1        0.3030
      3  O          9.5810   -2.3200   -2.9920 O.2     1  UNL1       -0.2520
      4  O          7.3250   -2.3280   -3.3220 O.3     1  UNL1       -0.4810
      5  H          6.7080   -1.8790   -4.0230 H       1  UNL1        0.2960
      6  C          6.9950    0.0150   -2.1140 C.3     1  UNL1        0.0470
      7  C          6.4540    0.0990   -0.7460 C.2     1  UNL1       -0.0470
      8  C          5.7900    1.2630   -0.3770 C.2     1  UNL1        0.0040
      9  C          6.5590   -0.8850    0.2020 C.2     1  UNL1        0.0040
     10  C          5.2700    1.3830    0.9110 C.2     1  UNL1        0.0000
     11  C          6.0540   -0.7970    1.4840 C.2     1  UNL1        0.0000
     12  C          5.4000    0.3720    1.8230 C.2     1  UNL1        0.0000
@<TRIPOS>BOND
     1     5     4    1
     2     4     2    1
     3     3     2    2
     4     2     1    1
     5     1     6    1
     6     6     7    1
     7     7     8    2
     8     7     9    1
     9     8    10    1
    10     9    11    2
    11    10    12    2
    12    11    12    1
