@<TRIPOS>MOLECULE
/home/cewinharhar/GITHUB/reincatalyze/data/processed/docking_pred/2023-Apr-25-1829_maxeplen10_maxtrainstep200_exh32_gamma099_lrac3e-4_lrcr1e-3/f15420a79f585431148ea344134f913ab78e73cd_ligand_2.pdbqt
 12 12 0 0 0
SMALL
GASTEIGER

@<TRIPOS>ATOM
      1  C          8.0640   -1.0000   -2.2650 C.3     1  UNL1        0.1270
      2  C          8.4840   -2.1680   -3.0590 C.2     1  UNL1        0.3030
      3  O          7.6100   -2.8360   -3.6610 O.2     1  UNL1       -0.2520
      4  O          9.8120   -2.5350   -3.1510 O.3     1  UNL1       -0.4810
      5  H         10.4730   -2.5010   -2.3530 H       1  UNL1        0.2960
      6  C          7.4500   -1.5320   -0.9750 C.3     1  UNL1        0.0470
      7  C          6.6540   -0.5090   -0.2740 C.2     1  UNL1       -0.0470
      8  C          6.3190    0.6470   -0.9690 C.2     1  UNL1        0.0040
      9  C          6.2190   -0.6040    1.0220 C.2     1  UNL1        0.0040
     10  C          5.5720    1.6410   -0.3390 C.2     1  UNL1        0.0000
     11  C          5.4780    0.3620    1.6740 C.2     1  UNL1        0.0000
     12  C          5.1610    1.5000    0.9590 C.2     1  UNL1        0.0000
@<TRIPOS>BOND
     1     3     2    2
     2     4     2    1
     3     4     5    1
     4     2     1    1
     5     1     6    1
     6     6     7    1
     7     8    10    1
     8     8     7    2
     9    10    12    2
    10     7     9    1
    11    12    11    1
    12     9    11    2
