MODEL 1
REMARK VINA RESULT:      -6.7      0.000      0.000
REMARK SMILES O=C(O)CCc1ccccc1
REMARK SMILES IDX 4 1 2 2 1 3 3 4 5 6 6 7 7 8 11 9 8 10 10 11 9 12
REMARK H PARENT 3 5
REMARK Flexibility Score: inf
ROOT
ATOM      1  C   UNL     1       4.968   1.800   0.697  1.00  0.00     0.127 C 
ENDROOT
BRANCH   1   2
ATOM      2  C   UNL     1       4.464   1.133   1.910  1.00  0.00     0.303 C 
ATOM      3  O   UNL     1       5.165   0.243   2.448  1.00  0.00    -0.252 OA
BRANCH   2   4
ATOM      4  O   UNL     1       3.242   1.469   2.461  1.00  0.00    -0.481 OA
ATOM      5  H   UNL     1       2.814   2.410   2.376  1.00  0.00     0.296 HD
ENDBRANCH   2   4
ENDBRANCH   1   2
BRANCH   1   6
ATOM      6  C   UNL     1       6.488   1.844   0.810  1.00  0.00     0.047 C 
BRANCH   6   7
ATOM      7  C   UNL     1       7.149   1.135  -0.300  1.00  0.00    -0.047 A 
ATOM      8  C   UNL     1       6.371   0.312  -1.105  1.00  0.00     0.004 A 
ATOM      9  C   UNL     1       8.484   1.219  -0.601  1.00  0.00     0.004 A 
ATOM     10  C   UNL     1       6.961  -0.380  -2.161  1.00  0.00     0.000 A 
ATOM     11  C   UNL     1       9.097   0.547  -1.640  1.00  0.00     0.000 A 
ATOM     12  C   UNL     1       8.299  -0.264  -2.422  1.00  0.00     0.000 A 
ENDBRANCH   6   7
ENDBRANCH   1   6
TORSDOF 4
ENDMDL
MODEL 2
REMARK VINA RESULT:      -6.7      0.173      1.431
REMARK SMILES O=C(O)CCc1ccccc1
REMARK SMILES IDX 4 1 2 2 1 3 3 4 5 6 6 7 7 8 11 9 8 10 10 11 9 12
REMARK H PARENT 3 5
REMARK Flexibility Score: inf
ROOT
ATOM      1  C   UNL     1       5.009   1.797   0.734  1.00  0.00     0.127 C 
ENDROOT
BRANCH   1   2
ATOM      2  C   UNL     1       4.476   1.115   1.927  1.00  0.00     0.303 C 
ATOM      3  O   UNL     1       5.159   0.211   2.462  1.00  0.00    -0.252 OA
BRANCH   2   4
ATOM      4  O   UNL     1       3.247   1.454   2.461  1.00  0.00    -0.481 OA
ATOM      5  H   UNL     1       2.503   0.763   2.669  1.00  0.00     0.296 HD
ENDBRANCH   2   4
ENDBRANCH   1   2
BRANCH   1   6
ATOM      6  C   UNL     1       6.529   1.728   0.821  1.00  0.00     0.047 C 
BRANCH   6   7
ATOM      7  C   UNL     1       7.115   0.961  -0.293  1.00  0.00    -0.047 A 
ATOM      8  C   UNL     1       8.431   1.228  -0.649  1.00  0.00     0.004 A 
ATOM      9  C   UNL     1       6.457   0.001  -1.016  1.00  0.00     0.004 A 
ATOM     10  C   UNL     1       9.018   0.528  -1.701  1.00  0.00     0.000 A 
ATOM     11  C   UNL     1       7.010  -0.710  -2.063  1.00  0.00     0.000 A 
ATOM     12  C   UNL     1       8.320  -0.423  -2.395  1.00  0.00     0.000 A 
ENDBRANCH   6   7
ENDBRANCH   1   6
TORSDOF 4
ENDMDL
MODEL 3
REMARK VINA RESULT:      -6.7      3.325      5.043
REMARK SMILES O=C(O)CCc1ccccc1
REMARK SMILES IDX 4 1 2 2 1 3 3 4 5 6 6 7 7 8 11 9 8 10 10 11 9 12
REMARK H PARENT 3 5
REMARK Flexibility Score: inf
ROOT
ATOM      1  C   UNL     1       8.447  -0.450  -2.130  1.00  0.00     0.127 C 
ENDROOT
BRANCH   1   2
ATOM      2  C   UNL     1       8.479  -1.744  -2.835  1.00  0.00     0.303 C 
ATOM      3  O   UNL     1       9.581  -2.320  -2.992  1.00  0.00    -0.252 OA
BRANCH   2   4
ATOM      4  O   UNL     1       7.325  -2.328  -3.322  1.00  0.00    -0.481 OA
ATOM      5  H   UNL     1       6.708  -1.879  -4.023  1.00  0.00     0.296 HD
ENDBRANCH   2   4
ENDBRANCH   1   2
BRANCH   1   6
ATOM      6  C   UNL     1       6.995   0.015  -2.114  1.00  0.00     0.047 C 
BRANCH   6   7
ATOM      7  C   UNL     1       6.454   0.099  -0.746  1.00  0.00    -0.047 A 
ATOM      8  C   UNL     1       5.790   1.263  -0.377  1.00  0.00     0.004 A 
ATOM      9  C   UNL     1       6.559  -0.885   0.202  1.00  0.00     0.004 A 
ATOM     10  C   UNL     1       5.270   1.383   0.911  1.00  0.00     0.000 A 
ATOM     11  C   UNL     1       6.054  -0.797   1.484  1.00  0.00     0.000 A 
ATOM     12  C   UNL     1       5.400   0.372   1.823  1.00  0.00     0.000 A 
ENDBRANCH   6   7
ENDBRANCH   1   6
TORSDOF 4
ENDMDL
MODEL 4
REMARK VINA RESULT:      -6.7      3.328      5.049
REMARK SMILES O=C(O)CCc1ccccc1
REMARK SMILES IDX 4 1 2 2 1 3 3 4 5 6 6 7 7 8 11 9 8 10 10 11 9 12
REMARK H PARENT 3 5
REMARK Flexibility Score: inf
ROOT
ATOM      1  C   UNL     1       8.448  -0.553  -2.037  1.00  0.00     0.127 C 
ENDROOT
BRANCH   1   2
ATOM      2  C   UNL     1       8.481  -1.806  -2.811  1.00  0.00     0.303 C 
ATOM      3  O   UNL     1       9.584  -2.367  -3.008  1.00  0.00    -0.252 OA
BRANCH   2   4
ATOM      4  O   UNL     1       7.326  -2.369  -3.319  1.00  0.00    -0.481 OA
ATOM      5  H   UNL     1       6.591  -2.801  -2.728  1.00  0.00     0.296 HD
ENDBRANCH   2   4
ENDBRANCH   1   2
BRANCH   1   6
ATOM      6  C   UNL     1       7.024  -0.015  -2.116  1.00  0.00     0.047 C 
BRANCH   6   7
ATOM      7  C   UNL     1       6.436   0.201  -0.782  1.00  0.00    -0.047 A 
ATOM      8  C   UNL     1       6.566  -0.811   0.161  1.00  0.00     0.004 A 
ATOM      9  C   UNL     1       5.760   1.330  -0.395  1.00  0.00     0.004 A 
ATOM     10  C   UNL     1       6.018  -0.646   1.432  1.00  0.00     0.000 A 
ATOM     11  C   UNL     1       5.207   1.523   0.855  1.00  0.00     0.000 A 
ATOM     12  C   UNL     1       5.351   0.499   1.771  1.00  0.00     0.000 A 
ENDBRANCH   6   7
ENDBRANCH   1   6
TORSDOF 4
ENDMDL
MODEL 5
REMARK VINA RESULT:      -6.7      3.621      5.300
REMARK SMILES O=C(O)CCc1ccccc1
REMARK SMILES IDX 4 1 2 2 1 3 3 4 5 6 6 7 7 8 11 9 8 10 10 11 9 12
REMARK H PARENT 3 5
REMARK Flexibility Score: inf
ROOT
ATOM      1  C   UNL     1       8.064  -1.000  -2.265  1.00  0.00     0.127 C 
ENDROOT
BRANCH   1   2
ATOM      2  C   UNL     1       8.484  -2.168  -3.059  1.00  0.00     0.303 C 
ATOM      3  O   UNL     1       7.610  -2.836  -3.661  1.00  0.00    -0.252 OA
BRANCH   2   4
ATOM      4  O   UNL     1       9.812  -2.535  -3.151  1.00  0.00    -0.481 OA
ATOM      5  H   UNL     1      10.473  -2.501  -2.353  1.00  0.00     0.296 HD
ENDBRANCH   2   4
ENDBRANCH   1   2
BRANCH   1   6
ATOM      6  C   UNL     1       7.450  -1.532  -0.975  1.00  0.00     0.047 C 
BRANCH   6   7
ATOM      7  C   UNL     1       6.654  -0.509  -0.274  1.00  0.00    -0.047 A 
ATOM      8  C   UNL     1       6.319   0.647  -0.969  1.00  0.00     0.004 A 
ATOM      9  C   UNL     1       6.219  -0.604   1.022  1.00  0.00     0.004 A 
ATOM     10  C   UNL     1       5.572   1.641  -0.339  1.00  0.00     0.000 A 
ATOM     11  C   UNL     1       5.478   0.362   1.674  1.00  0.00     0.000 A 
ATOM     12  C   UNL     1       5.161   1.500   0.959  1.00  0.00     0.000 A 
ENDBRANCH   6   7
ENDBRANCH   1   6
TORSDOF 4
ENDMDL
