@<TRIPOS>MOLECULE
/home/cewinharhar/GITHUB/reincatalyze/data/processed/docking_pred/2023-Apr-25-1829_maxeplen10_maxtrainstep200_exh32_gamma099_lrac3e-4_lrcr1e-3/f1acaff2cf7a86b9bbc999bfeecc6491fc2a0881_ligand_2.pdbqt
 12 12 0 0 0
SMALL
GASTEIGER

@<TRIPOS>ATOM
      1  C          8.4660   -0.6370   -2.1560 C.3     1  UNL1        0.1270
      2  C          8.4760   -1.9050   -2.9060 C.2     1  UNL1        0.3030
      3  O          9.5680   -2.4940   -3.0860 O.2     1  UNL1       -0.2520
      4  O          7.3110   -2.4530   -3.4090 O.3     1  UNL1       -0.4810
      5  H          6.8480   -2.1190   -4.2740 H       1  UNL1        0.2960
      6  C          7.0300   -0.1270   -2.1560 C.3     1  UNL1        0.0470
      7  C          6.4880    0.0080   -0.7920 C.2     1  UNL1       -0.0470
      8  C          5.8500    1.1970   -0.4580 C.2     1  UNL1        0.0040
      9  C          6.5690   -0.9510    0.1840 C.2     1  UNL1        0.0040
     10  C          5.3300    1.3650    0.8250 C.2     1  UNL1        0.0000
     11  C          6.0650   -0.8140    1.4620 C.2     1  UNL1        0.0000
     12  C          5.4370    0.3780    1.7660 C.2     1  UNL1        0.0000
@<TRIPOS>BOND
     1     5     4    1
     2     4     2    1
     3     3     2    2
     4     2     1    1
     5     1     6    1
     6     6     7    1
     7     7     8    2
     8     7     9    1
     9     8    10    1
    10     9    11    2
    11    10    12    2
    12    11    12    1
