@<TRIPOS>MOLECULE
/home/cewinharhar/GITHUB/reincatalyze/data/processed/docking_pred/2023-Apr-25-1829_maxeplen10_maxtrainstep200_exh32_gamma099_lrac3e-4_lrcr1e-3/f1acaff2cf7a86b9bbc999bfeecc6491fc2a0881_ligand_2.pdbqt
 12 12 0 0 0
SMALL
GASTEIGER

@<TRIPOS>ATOM
      1  C          8.2520    0.2590   -2.2570 C.3     1  UNL1        0.1270
      2  C          9.3610    0.3540   -1.2920 C.2     1  UNL1        0.3030
      3  O          9.3930   -0.4450   -0.3260 O.2     1  UNL1       -0.2520
      4  O         10.3600    1.2980   -1.4330 O.3     1  UNL1       -0.4810
      5  H         11.3710    1.0690   -1.4280 H       1  UNL1        0.2960
      6  C          7.1290   -0.5120   -1.5750 C.3     1  UNL1        0.0470
      7  C          6.3390    0.3410   -0.6690 C.2     1  UNL1       -0.0470
      8  C          6.1220   -0.1080    0.6280 C.2     1  UNL1        0.0040
      9  C          5.7920    1.5510   -1.0080 C.2     1  UNL1        0.0040
     10  C          5.3750    0.6670    1.5130 C.2     1  UNL1        0.0000
     11  C          5.0480    2.3420   -0.1560 C.2     1  UNL1        0.0000
     12  C          4.8480    1.8690    1.1270 C.2     1  UNL1        0.0000
@<TRIPOS>BOND
     1     1     6    1
     2     1     2    1
     3     6     7    1
     4     4     5    1
     5     4     2    1
     6     2     3    2
     7     9     7    2
     8     9    11    1
     9     7     8    1
    10    11    12    2
    11     8    10    2
    12    12    10    1
