@<TRIPOS>MOLECULE
/home/cewinharhar/GITHUB/reincatalyze/data/processed/docking_pred/2023-Apr-25-1829_maxeplen10_maxtrainstep200_exh32_gamma099_lrac3e-4_lrcr1e-3/f1acaff2cf7a86b9bbc999bfeecc6491fc2a0881_ligand_2.pdbqt
 12 12 0 0 0
SMALL
GASTEIGER

@<TRIPOS>ATOM
      1  C          4.9650    1.7770    0.7170 C.3     1  UNL1        0.1270
      2  C          4.4550    1.1150    1.9310 C.2     1  UNL1        0.3030
      3  O          5.1520    0.2250    2.4730 O.2     1  UNL1       -0.2520
      4  O          3.2330    1.4570    2.4780 O.3     1  UNL1       -0.4810
      5  H          2.3270    1.0980    2.1250 H       1  UNL1        0.2960
      6  C          6.4840    1.8150    0.8320 C.3     1  UNL1        0.0470
      7  C          7.1440    1.1050   -0.2780 C.2     1  UNL1       -0.0470
      8  C          6.3820    0.2210   -1.0330 C.2     1  UNL1        0.0040
      9  C          8.4630    1.2450   -0.6260 C.2     1  UNL1        0.0040
     10  C          6.9720   -0.4740   -2.0870 C.2     1  UNL1        0.0000
     11  C          9.0750    0.5720   -1.6650 C.2     1  UNL1        0.0000
     12  C          8.2940   -0.3020   -2.3960 C.2     1  UNL1        0.0000
@<TRIPOS>BOND
     1    12    10    2
     2    12    11    1
     3    10     8    1
     4    11     9    2
     5     8     7    2
     6     9     7    1
     7     7     6    1
     8     1     6    1
     9     1     2    1
    10     2     3    2
    11     2     4    1
    12     5     4    1
