@<TRIPOS>MOLECULE
/home/cewinharhar/GITHUB/reincatalyze/data/processed/docking_pred/2023-Apr-25-1829_maxeplen10_maxtrainstep200_exh32_gamma099_lrac3e-4_lrcr1e-3/f32d20faebe3d2be17d1bcf3c85c7c889e58fe23_ligand_2.pdbqt
 12 12 0 0 0
SMALL
GASTEIGER

@<TRIPOS>ATOM
      1  C          8.4610   -0.7280   -2.0300 C.3     1  UNL1        0.1270
      2  C          8.4570   -1.9320   -2.8790 C.2     1  UNL1        0.3030
      3  O          9.5420   -2.5140   -3.1090 O.2     1  UNL1       -0.2520
      4  O          7.2860   -2.4260   -3.4210 O.3     1  UNL1       -0.4810
      5  H          6.4010   -2.5160   -2.8880 H       1  UNL1        0.2960
      6  C          7.0750   -0.1020   -2.1310 C.3     1  UNL1        0.0470
      7  C          6.4760    0.1400   -0.8070 C.2     1  UNL1       -0.0470
      8  C          6.6130   -0.8460    0.1620 C.2     1  UNL1        0.0040
      9  C          5.7840    1.2690   -0.4530 C.2     1  UNL1        0.0040
     10  C          6.0540   -0.6560    1.4250 C.2     1  UNL1        0.0000
     11  C          5.2200    1.4870    0.7880 C.2     1  UNL1        0.0000
     12  C          5.3710    0.4890    1.7310 C.2     1  UNL1        0.0000
@<TRIPOS>BOND
     1     4     5    1
     2     4     2    1
     3     3     2    2
     4     2     1    1
     5     6     1    1
     6     6     7    1
     7     7     9    2
     8     7     8    1
     9     9    11    1
    10     8    10    2
    11    11    12    2
    12    10    12    1
