@<TRIPOS>MOLECULE
/home/cewinharhar/GITHUB/reincatalyze/data/processed/docking_pred/2023-Apr-25-1829_maxeplen10_maxtrainstep200_exh32_gamma099_lrac3e-4_lrcr1e-3/f32d20faebe3d2be17d1bcf3c85c7c889e58fe23_ligand_2.pdbqt
 12 12 0 0 0
SMALL
GASTEIGER

@<TRIPOS>ATOM
      1  C          8.4240   -0.6310   -2.1480 C.3     1  UNL1        0.1270
      2  C          8.3910   -1.8990   -2.8980 C.2     1  UNL1        0.3030
      3  O          7.2800   -2.3790   -3.2250 O.2     1  UNL1       -0.2520
      4  O          9.5530   -2.5610   -3.2440 O.3     1  UNL1       -0.4810
      5  H         10.2770   -2.1590   -3.8690 H       1  UNL1        0.2960
      6  C          6.9990   -0.0900   -2.1180 C.3     1  UNL1        0.0470
      7  C          6.4720    0.0150   -0.7460 C.2     1  UNL1       -0.0470
      8  C          5.8410    1.1960   -0.3770 C.2     1  UNL1        0.0040
      9  C          6.5620   -0.9680    0.2060 C.2     1  UNL1        0.0040
     10  C          5.3350    1.3350    0.9140 C.2     1  UNL1        0.0000
     11  C          6.0710   -0.8600    1.4920 C.2     1  UNL1        0.0000
     12  C          5.4490    0.3260    1.8310 C.2     1  UNL1        0.0000
@<TRIPOS>BOND
     1     5     4    1
     2     4     2    1
     3     3     2    2
     4     2     1    1
     5     1     6    1
     6     6     7    1
     7     7     8    2
     8     7     9    1
     9     8    10    1
    10     9    11    2
    11    10    12    2
    12    11    12    1
