MODEL 1
REMARK VINA RESULT:      -7.3      0.000      0.000
REMARK SMILES O=C(O)CCc1ccccc1
REMARK SMILES IDX 4 1 2 2 1 3 3 4 5 6 6 7 7 8 11 9 8 10 10 11 9 12
REMARK H PARENT 3 5
REMARK Flexibility Score: inf
ROOT
ATOM      1  C   UNL     1       8.461  -0.728  -2.030  1.00  0.00     0.127 C 
ENDROOT
BRANCH   1   2
ATOM      2  C   UNL     1       8.457  -1.932  -2.879  1.00  0.00     0.303 C 
ATOM      3  O   UNL     1       9.542  -2.514  -3.109  1.00  0.00    -0.252 OA
BRANCH   2   4
ATOM      4  O   UNL     1       7.286  -2.426  -3.421  1.00  0.00    -0.481 OA
ATOM      5  H   UNL     1       6.401  -2.516  -2.888  1.00  0.00     0.296 HD
ENDBRANCH   2   4
ENDBRANCH   1   2
BRANCH   1   6
ATOM      6  C   UNL     1       7.075  -0.102  -2.131  1.00  0.00     0.047 C 
BRANCH   6   7
ATOM      7  C   UNL     1       6.476   0.140  -0.807  1.00  0.00    -0.047 A 
ATOM      8  C   UNL     1       6.613  -0.846   0.162  1.00  0.00     0.004 A 
ATOM      9  C   UNL     1       5.784   1.269  -0.453  1.00  0.00     0.004 A 
ATOM     10  C   UNL     1       6.054  -0.656   1.425  1.00  0.00     0.000 A 
ATOM     11  C   UNL     1       5.220   1.487   0.788  1.00  0.00     0.000 A 
ATOM     12  C   UNL     1       5.371   0.489   1.731  1.00  0.00     0.000 A 
ENDBRANCH   6   7
ENDBRANCH   1   6
TORSDOF 4
ENDMDL
MODEL 2
REMARK VINA RESULT:      -7.2      0.163      1.732
REMARK SMILES O=C(O)CCc1ccccc1
REMARK SMILES IDX 4 1 2 2 1 3 3 4 5 6 6 7 7 8 11 9 8 10 10 11 9 12
REMARK H PARENT 3 5
REMARK Flexibility Score: inf
ROOT
ATOM      1  C   UNL     1       8.424  -0.631  -2.148  1.00  0.00     0.127 C 
ENDROOT
BRANCH   1   2
ATOM      2  C   UNL     1       8.391  -1.899  -2.898  1.00  0.00     0.303 C 
ATOM      3  O   UNL     1       7.280  -2.379  -3.225  1.00  0.00    -0.252 OA
BRANCH   2   4
ATOM      4  O   UNL     1       9.553  -2.561  -3.244  1.00  0.00    -0.481 OA
ATOM      5  H   UNL     1      10.277  -2.159  -3.869  1.00  0.00     0.296 HD
ENDBRANCH   2   4
ENDBRANCH   1   2
BRANCH   1   6
ATOM      6  C   UNL     1       6.999  -0.090  -2.118  1.00  0.00     0.047 C 
BRANCH   6   7
ATOM      7  C   UNL     1       6.472   0.015  -0.746  1.00  0.00    -0.047 A 
ATOM      8  C   UNL     1       5.841   1.196  -0.377  1.00  0.00     0.004 A 
ATOM      9  C   UNL     1       6.562  -0.968   0.206  1.00  0.00     0.004 A 
ATOM     10  C   UNL     1       5.335   1.335   0.914  1.00  0.00     0.000 A 
ATOM     11  C   UNL     1       6.071  -0.860   1.492  1.00  0.00     0.000 A 
ATOM     12  C   UNL     1       5.449   0.326   1.831  1.00  0.00     0.000 A 
ENDBRANCH   6   7
ENDBRANCH   1   6
TORSDOF 4
ENDMDL
MODEL 3
REMARK VINA RESULT:      -7.0      0.985      1.888
REMARK SMILES O=C(O)CCc1ccccc1
REMARK SMILES IDX 4 1 2 2 1 3 3 4 5 6 6 7 7 8 11 9 8 10 10 11 9 12
REMARK H PARENT 3 5
REMARK Flexibility Score: inf
ROOT
ATOM      1  C   UNL     1       7.305  -1.293  -2.123  1.00  0.00     0.127 C 
ENDROOT
BRANCH   1   2
ATOM      2  C   UNL     1       8.727  -1.351  -2.504  1.00  0.00     0.303 C 
ATOM      3  O   UNL     1       9.507  -0.472  -2.065  1.00  0.00    -0.252 OA
BRANCH   2   4
ATOM      4  O   UNL     1       9.212  -2.348  -3.328  1.00  0.00    -0.481 OA
ATOM      5  H   UNL     1       9.876  -3.079  -3.013  1.00  0.00     0.296 HD
ENDBRANCH   2   4
ENDBRANCH   1   2
BRANCH   1   6
ATOM      6  C   UNL     1       7.246  -1.366  -0.601  1.00  0.00     0.047 C 
BRANCH   6   7
ATOM      7  C   UNL     1       6.433  -0.280  -0.025  1.00  0.00    -0.047 A 
ATOM      8  C   UNL     1       6.171   0.831  -0.816  1.00  0.00     0.004 A 
ATOM      9  C   UNL     1       5.914  -0.277   1.245  1.00  0.00     0.004 A 
ATOM     10  C   UNL     1       5.411   1.881  -0.304  1.00  0.00     0.000 A 
ATOM     11  C   UNL     1       5.158   0.747   1.780  1.00  0.00     0.000 A 
ATOM     12  C   UNL     1       4.915   1.839   0.971  1.00  0.00     0.000 A 
ENDBRANCH   6   7
ENDBRANCH   1   6
TORSDOF 4
ENDMDL
MODEL 4
REMARK VINA RESULT:      -6.8      3.360      5.086
REMARK SMILES O=C(O)CCc1ccccc1
REMARK SMILES IDX 4 1 2 2 1 3 3 4 5 6 6 7 7 8 11 9 8 10 10 11 9 12
REMARK H PARENT 3 5
REMARK Flexibility Score: inf
ROOT
ATOM      1  C   UNL     1       4.982   1.782   0.699  1.00  0.00     0.127 C 
ENDROOT
BRANCH   1   2
ATOM      2  C   UNL     1       4.476   1.120   1.914  1.00  0.00     0.303 C 
ATOM      3  O   UNL     1       5.179   0.236   2.459  1.00  0.00    -0.252 OA
BRANCH   2   4
ATOM      4  O   UNL     1       3.253   1.456   2.461  1.00  0.00    -0.481 OA
ATOM      5  H   UNL     1       3.129   1.766   3.442  1.00  0.00     0.296 HD
ENDBRANCH   2   4
ENDBRANCH   1   2
BRANCH   1   6
ATOM      6  C   UNL     1       6.504   1.758   0.776  1.00  0.00     0.047 C 
BRANCH   6   7
ATOM      7  C   UNL     1       7.105   0.983  -0.325  1.00  0.00    -0.047 A 
ATOM      8  C   UNL     1       8.437   1.222  -0.641  1.00  0.00     0.004 A 
ATOM      9  C   UNL     1       6.446   0.041  -1.072  1.00  0.00     0.004 A 
ATOM     10  C   UNL     1       9.038   0.514  -1.680  1.00  0.00     0.000 A 
ATOM     11  C   UNL     1       7.014  -0.677  -2.106  1.00  0.00     0.000 A 
ATOM     12  C   UNL     1       8.339  -0.417  -2.398  1.00  0.00     0.000 A 
ENDBRANCH   6   7
ENDBRANCH   1   6
TORSDOF 4
ENDMDL
MODEL 5
REMARK VINA RESULT:      -6.6      1.923      2.281
REMARK SMILES O=C(O)CCc1ccccc1
REMARK SMILES IDX 4 1 2 2 1 3 3 4 5 6 6 7 7 8 11 9 8 10 10 11 9 12
REMARK H PARENT 3 5
REMARK Flexibility Score: inf
ROOT
ATOM      1  C   UNL     1       8.291   0.057  -2.170  1.00  0.00     0.127 C 
ENDROOT
BRANCH   1   2
ATOM      2  C   UNL     1       9.391   0.298  -1.220  1.00  0.00     0.303 C 
ATOM      3  O   UNL     1       9.462  -0.406  -0.185  1.00  0.00    -0.252 OA
BRANCH   2   4
ATOM      4  O   UNL     1      10.338   1.278  -1.449  1.00  0.00    -0.481 OA
ATOM      5  H   UNL     1      11.336   1.184  -1.183  1.00  0.00     0.296 HD
ENDBRANCH   2   4
ENDBRANCH   1   2
BRANCH   1   6
ATOM      6  C   UNL     1       7.204  -0.699  -1.414  1.00  0.00     0.047 C 
BRANCH   6   7
ATOM      7  C   UNL     1       6.398   0.193  -0.560  1.00  0.00    -0.047 A 
ATOM      8  C   UNL     1       6.142  -0.208   0.745  1.00  0.00     0.004 A 
ATOM      9  C   UNL     1       5.872   1.395  -0.957  1.00  0.00     0.004 A 
ATOM     10  C   UNL     1       5.379   0.605   1.581  1.00  0.00     0.000 A 
ATOM     11  C   UNL     1       5.114   2.223  -0.154  1.00  0.00     0.000 A 
ATOM     12  C   UNL     1       4.874   1.798   1.139  1.00  0.00     0.000 A 
ENDBRANCH   6   7
ENDBRANCH   1   6
TORSDOF 4
ENDMDL
