@<TRIPOS>MOLECULE
/home/cewinharhar/GITHUB/reincatalyze/data/processed/docking_pred/2023-Apr-25-1829_maxeplen10_maxtrainstep200_exh32_gamma099_lrac3e-4_lrcr1e-3/f32d20faebe3d2be17d1bcf3c85c7c889e58fe23_ligand_2.pdbqt
 12 12 0 0 0
SMALL
GASTEIGER

@<TRIPOS>ATOM
      1  C          7.3050   -1.2930   -2.1230 C.3     1  UNL1        0.1270
      2  C          8.7270   -1.3510   -2.5040 C.2     1  UNL1        0.3030
      3  O          9.5070   -0.4720   -2.0650 O.2     1  UNL1       -0.2520
      4  O          9.2120   -2.3480   -3.3280 O.3     1  UNL1       -0.4810
      5  H          9.8760   -3.0790   -3.0130 H       1  UNL1        0.2960
      6  C          7.2460   -1.3660   -0.6010 C.3     1  UNL1        0.0470
      7  C          6.4330   -0.2800   -0.0250 C.2     1  UNL1       -0.0470
      8  C          6.1710    0.8310   -0.8160 C.2     1  UNL1        0.0040
      9  C          5.9140   -0.2770    1.2450 C.2     1  UNL1        0.0040
     10  C          5.4110    1.8810   -0.3040 C.2     1  UNL1        0.0000
     11  C          5.1580    0.7470    1.7800 C.2     1  UNL1        0.0000
     12  C          4.9150    1.8390    0.9710 C.2     1  UNL1        0.0000
@<TRIPOS>BOND
     1     4     5    1
     2     4     2    1
     3     2     1    1
     4     2     3    2
     5     1     6    1
     6     8    10    1
     7     8     7    2
     8     6     7    1
     9    10    12    2
    10     7     9    1
    11    12    11    1
    12     9    11    2
