@<TRIPOS>MOLECULE
/home/cewinharhar/GITHUB/reincatalyze/data/processed/docking_pred/2023-Apr-25-1829_maxeplen10_maxtrainstep200_exh32_gamma099_lrac3e-4_lrcr1e-3/f32d20faebe3d2be17d1bcf3c85c7c889e58fe23_ligand_2.pdbqt
 12 12 0 0 0
SMALL
GASTEIGER

@<TRIPOS>ATOM
      1  C          4.9820    1.7820    0.6990 C.3     1  UNL1        0.1270
      2  C          4.4760    1.1200    1.9140 C.2     1  UNL1        0.3030
      3  O          5.1790    0.2360    2.4590 O.2     1  UNL1       -0.2520
      4  O          3.2530    1.4560    2.4610 O.3     1  UNL1       -0.4810
      5  H          3.1290    1.7660    3.4420 H       1  UNL1        0.2960
      6  C          6.5040    1.7580    0.7760 C.3     1  UNL1        0.0470
      7  C          7.1050    0.9830   -0.3250 C.2     1  UNL1       -0.0470
      8  C          8.4370    1.2220   -0.6410 C.2     1  UNL1        0.0040
      9  C          6.4460    0.0410   -1.0720 C.2     1  UNL1        0.0040
     10  C          9.0380    0.5140   -1.6800 C.2     1  UNL1        0.0000
     11  C          7.0140   -0.6770   -2.1060 C.2     1  UNL1        0.0000
     12  C          8.3390   -0.4170   -2.3980 C.2     1  UNL1        0.0000
@<TRIPOS>BOND
     1    12    11    2
     2    12    10    1
     3    11     9    1
     4    10     8    2
     5     9     7    2
     6     8     7    1
     7     7     6    1
     8     1     6    1
     9     1     2    1
    10     2     3    2
    11     2     4    1
    12     4     5    1
