@<TRIPOS>MOLECULE
/home/cewinharhar/GITHUB/reincatalyze/data/processed/docking_pred/2023-Apr-25-1829_maxeplen10_maxtrainstep200_exh32_gamma099_lrac3e-4_lrcr1e-3/f338baa35ded8d3cb3d8a5b9e0cebf8a24c11f6d_ligand_2.pdbqt
 12 12 0 0 0
SMALL
GASTEIGER

@<TRIPOS>ATOM
      1  C          8.4470   -0.6110   -2.1620 C.3     1  UNL1        0.1270
      2  C          8.4690   -1.8810   -2.9090 C.2     1  UNL1        0.3030
      3  O          9.5660   -2.4640   -3.0790 O.2     1  UNL1       -0.2520
      4  O          7.3110   -2.4370   -3.4190 O.3     1  UNL1       -0.4810
      5  H          7.3000   -3.2580   -4.0510 H       1  UNL1        0.2960
      6  C          7.0030   -0.1240   -2.1480 C.3     1  UNL1        0.0470
      7  C          6.4720    0.0040   -0.7790 C.2     1  UNL1       -0.0470
      8  C          5.8400    1.1910   -0.4320 C.2     1  UNL1        0.0040
      9  C          6.5590   -0.9630    0.1900 C.2     1  UNL1        0.0040
     10  C          5.3310    1.3520    0.8560 C.2     1  UNL1        0.0000
     11  C          6.0640   -0.8330    1.4720 C.2     1  UNL1        0.0000
     12  C          5.4420    0.3580    1.7890 C.2     1  UNL1        0.0000
@<TRIPOS>BOND
     1     5     4    1
     2     4     2    1
     3     3     2    2
     4     2     1    1
     5     1     6    1
     6     6     7    1
     7     7     8    2
     8     7     9    1
     9     8    10    1
    10     9    11    2
    11    10    12    2
    12    11    12    1
