@<TRIPOS>MOLECULE
/home/cewinharhar/GITHUB/reincatalyze/data/processed/docking_pred/2023-Apr-25-1829_maxeplen10_maxtrainstep200_exh32_gamma099_lrac3e-4_lrcr1e-3/f338baa35ded8d3cb3d8a5b9e0cebf8a24c11f6d_ligand_2.pdbqt
 12 12 0 0 0
SMALL
GASTEIGER

@<TRIPOS>ATOM
      1  C          8.4760   -0.7280   -2.0290 C.3     1  UNL1        0.1270
      2  C          8.4240   -1.9420   -2.8630 C.2     1  UNL1        0.3030
      3  O          7.3060   -2.3930   -3.2060 O.2     1  UNL1       -0.2520
      4  O          9.5770   -2.5850   -3.2710 O.3     1  UNL1       -0.4810
      5  H          9.8360   -2.7210   -4.2660 H       1  UNL1        0.2960
      6  C          7.1140   -0.0510   -2.1390 C.3     1  UNL1        0.0470
      7  C          6.5000    0.1770   -0.8190 C.2     1  UNL1       -0.0470
      8  C          6.6660   -0.7980    0.1570 C.2     1  UNL1        0.0040
      9  C          5.7640    1.2820   -0.4760 C.2     1  UNL1        0.0040
     10  C          6.0940   -0.6210    1.4150 C.2     1  UNL1        0.0000
     11  C          5.1850    1.4860    0.7610 C.2     1  UNL1        0.0000
     12  C          5.3680    0.5000    1.7100 C.2     1  UNL1        0.0000
@<TRIPOS>BOND
     1     5     4    1
     2     4     2    1
     3     3     2    2
     4     2     1    1
     5     6     1    1
     6     6     7    1
     7     7     9    2
     8     7     8    1
     9     9    11    1
    10     8    10    2
    11    11    12    2
    12    10    12    1
