@<TRIPOS>MOLECULE
/home/cewinharhar/GITHUB/reincatalyze/data/processed/docking_pred/2023-Apr-25-1829_maxeplen10_maxtrainstep200_exh32_gamma099_lrac3e-4_lrcr1e-3/f338baa35ded8d3cb3d8a5b9e0cebf8a24c11f6d_ligand_2.pdbqt
 12 12 0 0 0
SMALL
GASTEIGER

@<TRIPOS>ATOM
      1  C          5.0010    1.7720    0.7400 C.3     1  UNL1        0.1270
      2  C          4.4570    1.1060    1.9360 C.2     1  UNL1        0.3030
      3  O          5.1260    0.1950    2.4780 O.2     1  UNL1       -0.2520
      4  O          3.2330    1.4660    2.4660 O.3     1  UNL1       -0.4810
      5  H          3.0540    2.3780    2.9260 H       1  UNL1        0.2960
      6  C          6.5210    1.6860    0.8310 C.3     1  UNL1        0.0470
      7  C          7.1020    0.9190   -0.2850 C.2     1  UNL1       -0.0470
      8  C          8.4000    1.2190   -0.6790 C.2     1  UNL1        0.0040
      9  C          6.4560   -0.0740   -0.9750 C.2     1  UNL1        0.0040
     10  C          8.9820    0.5200   -1.7350 C.2     1  UNL1        0.0000
     11  C          7.0050   -0.7850   -2.0240 C.2     1  UNL1        0.0000
     12  C          8.2960   -0.4630   -2.3940 C.2     1  UNL1        0.0000
@<TRIPOS>BOND
     1    12    11    2
     2    12    10    1
     3    11     9    1
     4    10     8    2
     5     9     7    2
     6     8     7    1
     7     7     6    1
     8     1     6    1
     9     1     2    1
    10     2     4    1
    11     2     3    2
    12     4     5    1
