MODEL 1
REMARK VINA RESULT:      -7.3      0.000      0.000
REMARK SMILES O=C(O)CCc1ccccc1
REMARK SMILES IDX 4 1 2 2 1 3 3 4 5 6 6 7 7 8 11 9 8 10 10 11 9 12
REMARK H PARENT 3 5
REMARK Flexibility Score: inf
ROOT
ATOM      1  C   UNL     1       8.447  -0.611  -2.162  1.00  0.00     0.127 C 
ENDROOT
BRANCH   1   2
ATOM      2  C   UNL     1       8.469  -1.881  -2.909  1.00  0.00     0.303 C 
ATOM      3  O   UNL     1       9.566  -2.464  -3.079  1.00  0.00    -0.252 OA
BRANCH   2   4
ATOM      4  O   UNL     1       7.311  -2.437  -3.419  1.00  0.00    -0.481 OA
ATOM      5  H   UNL     1       7.300  -3.258  -4.051  1.00  0.00     0.296 HD
ENDBRANCH   2   4
ENDBRANCH   1   2
BRANCH   1   6
ATOM      6  C   UNL     1       7.003  -0.124  -2.148  1.00  0.00     0.047 C 
BRANCH   6   7
ATOM      7  C   UNL     1       6.472   0.004  -0.779  1.00  0.00    -0.047 A 
ATOM      8  C   UNL     1       5.840   1.191  -0.432  1.00  0.00     0.004 A 
ATOM      9  C   UNL     1       6.559  -0.963   0.190  1.00  0.00     0.004 A 
ATOM     10  C   UNL     1       5.331   1.352   0.856  1.00  0.00     0.000 A 
ATOM     11  C   UNL     1       6.064  -0.833   1.472  1.00  0.00     0.000 A 
ATOM     12  C   UNL     1       5.442   0.358   1.789  1.00  0.00     0.000 A 
ENDBRANCH   6   7
ENDBRANCH   1   6
TORSDOF 4
ENDMDL
MODEL 2
REMARK VINA RESULT:      -7.2      0.184      1.731
REMARK SMILES O=C(O)CCc1ccccc1
REMARK SMILES IDX 4 1 2 2 1 3 3 4 5 6 6 7 7 8 11 9 8 10 10 11 9 12
REMARK H PARENT 3 5
REMARK Flexibility Score: inf
ROOT
ATOM      1  C   UNL     1       8.476  -0.728  -2.029  1.00  0.00     0.127 C 
ENDROOT
BRANCH   1   2
ATOM      2  C   UNL     1       8.424  -1.942  -2.863  1.00  0.00     0.303 C 
ATOM      3  O   UNL     1       7.306  -2.393  -3.206  1.00  0.00    -0.252 OA
BRANCH   2   4
ATOM      4  O   UNL     1       9.577  -2.585  -3.271  1.00  0.00    -0.481 OA
ATOM      5  H   UNL     1       9.836  -2.721  -4.266  1.00  0.00     0.296 HD
ENDBRANCH   2   4
ENDBRANCH   1   2
BRANCH   1   6
ATOM      6  C   UNL     1       7.114  -0.051  -2.139  1.00  0.00     0.047 C 
BRANCH   6   7
ATOM      7  C   UNL     1       6.500   0.177  -0.819  1.00  0.00    -0.047 A 
ATOM      8  C   UNL     1       6.666  -0.798   0.157  1.00  0.00     0.004 A 
ATOM      9  C   UNL     1       5.764   1.282  -0.476  1.00  0.00     0.004 A 
ATOM     10  C   UNL     1       6.094  -0.621   1.415  1.00  0.00     0.000 A 
ATOM     11  C   UNL     1       5.185   1.486   0.761  1.00  0.00     0.000 A 
ATOM     12  C   UNL     1       5.368   0.500   1.710  1.00  0.00     0.000 A 
ENDBRANCH   6   7
ENDBRANCH   1   6
TORSDOF 4
ENDMDL
MODEL 3
REMARK VINA RESULT:      -6.8      3.376      5.058
REMARK SMILES O=C(O)CCc1ccccc1
REMARK SMILES IDX 4 1 2 2 1 3 3 4 5 6 6 7 7 8 11 9 8 10 10 11 9 12
REMARK H PARENT 3 5
REMARK Flexibility Score: inf
ROOT
ATOM      1  C   UNL     1       5.001   1.772   0.740  1.00  0.00     0.127 C 
ENDROOT
BRANCH   1   2
ATOM      2  C   UNL     1       4.457   1.106   1.936  1.00  0.00     0.303 C 
ATOM      3  O   UNL     1       5.126   0.195   2.478  1.00  0.00    -0.252 OA
BRANCH   2   4
ATOM      4  O   UNL     1       3.233   1.466   2.466  1.00  0.00    -0.481 OA
ATOM      5  H   UNL     1       3.054   2.378   2.926  1.00  0.00     0.296 HD
ENDBRANCH   2   4
ENDBRANCH   1   2
BRANCH   1   6
ATOM      6  C   UNL     1       6.521   1.686   0.831  1.00  0.00     0.047 C 
BRANCH   6   7
ATOM      7  C   UNL     1       7.102   0.919  -0.285  1.00  0.00    -0.047 A 
ATOM      8  C   UNL     1       8.400   1.219  -0.679  1.00  0.00     0.004 A 
ATOM      9  C   UNL     1       6.456  -0.074  -0.975  1.00  0.00     0.004 A 
ATOM     10  C   UNL     1       8.982   0.520  -1.735  1.00  0.00     0.000 A 
ATOM     11  C   UNL     1       7.005  -0.785  -2.024  1.00  0.00     0.000 A 
ATOM     12  C   UNL     1       8.296  -0.463  -2.394  1.00  0.00     0.000 A 
ENDBRANCH   6   7
ENDBRANCH   1   6
TORSDOF 4
ENDMDL
MODEL 4
REMARK VINA RESULT:      -6.6      1.923      2.656
REMARK SMILES O=C(O)CCc1ccccc1
REMARK SMILES IDX 4 1 2 2 1 3 3 4 5 6 6 7 7 8 11 9 8 10 10 11 9 12
REMARK H PARENT 3 5
REMARK Flexibility Score: inf
ROOT
ATOM      1  C   UNL     1       8.304   0.047  -2.168  1.00  0.00     0.127 C 
ENDROOT
BRANCH   1   2
ATOM      2  C   UNL     1       9.388   0.303  -1.203  1.00  0.00     0.303 C 
ATOM      3  O   UNL     1       9.467  -0.413  -0.177  1.00  0.00    -0.252 OA
BRANCH   2   4
ATOM      4  O   UNL     1      10.313   1.308  -1.410  1.00  0.00    -0.481 OA
ATOM      5  H   UNL     1      10.248   1.997  -2.182  1.00  0.00     0.296 HD
ENDBRANCH   2   4
ENDBRANCH   1   2
BRANCH   1   6
ATOM      6  C   UNL     1       7.205  -0.698  -1.419  1.00  0.00     0.047 C 
BRANCH   6   7
ATOM      7  C   UNL     1       6.395   0.203  -0.580  1.00  0.00    -0.047 A 
ATOM      8  C   UNL     1       6.120  -0.189   0.724  1.00  0.00     0.004 A 
ATOM      9  C   UNL     1       5.881   1.406  -0.990  1.00  0.00     0.004 A 
ATOM     10  C   UNL     1       5.352   0.633   1.547  1.00  0.00     0.000 A 
ATOM     11  C   UNL     1       5.117   2.243  -0.200  1.00  0.00     0.000 A 
ATOM     12  C   UNL     1       4.860   1.826   1.092  1.00  0.00     0.000 A 
ENDBRANCH   6   7
ENDBRANCH   1   6
TORSDOF 4
ENDMDL
MODEL 5
REMARK VINA RESULT:      -6.5      3.682      5.065
REMARK SMILES O=C(O)CCc1ccccc1
REMARK SMILES IDX 4 1 2 2 1 3 3 4 5 6 6 7 7 8 11 9 8 10 10 11 9 12
REMARK H PARENT 3 5
REMARK Flexibility Score: inf
ROOT
ATOM      1  C   UNL     1       5.365   2.944   0.115  1.00  0.00     0.127 C 
ENDROOT
BRANCH   1   2
ATOM      2  C   UNL     1       6.317   3.779   0.868  1.00  0.00     0.303 C 
ATOM      3  O   UNL     1       6.831   4.773   0.302  1.00  0.00    -0.252 OA
BRANCH   2   4
ATOM      4  O   UNL     1       6.649   3.490   2.178  1.00  0.00    -0.481 OA
ATOM      5  H   UNL     1       7.349   4.026   2.723  1.00  0.00     0.296 HD
ENDBRANCH   2   4
ENDBRANCH   1   2
BRANCH   1   6
ATOM      6  C   UNL     1       5.278   1.604   0.835  1.00  0.00     0.047 C 
BRANCH   6   7
ATOM      7  C   UNL     1       6.043   0.551   0.145  1.00  0.00    -0.047 A 
ATOM      8  C   UNL     1       6.486  -0.533   0.893  1.00  0.00     0.004 A 
ATOM      9  C   UNL     1       6.361   0.558  -1.189  1.00  0.00     0.004 A 
ATOM     10  C   UNL     1       7.218  -1.546   0.277  1.00  0.00     0.000 A 
ATOM     11  C   UNL     1       7.084  -0.430  -1.828  1.00  0.00     0.000 A 
ATOM     12  C   UNL     1       7.512  -1.494  -1.058  1.00  0.00     0.000 A 
ENDBRANCH   6   7
ENDBRANCH   1   6
TORSDOF 4
ENDMDL
