@<TRIPOS>MOLECULE
/home/cewinharhar/GITHUB/reincatalyze/data/processed/docking_pred/2023-Apr-25-1829_maxeplen10_maxtrainstep200_exh32_gamma099_lrac3e-4_lrcr1e-3/f338baa35ded8d3cb3d8a5b9e0cebf8a24c11f6d_ligand_2.pdbqt
 12 12 0 0 0
SMALL
GASTEIGER

@<TRIPOS>ATOM
      1  C          5.3650    2.9440    0.1150 C.3     1  UNL1        0.1270
      2  C          6.3170    3.7790    0.8680 C.2     1  UNL1        0.3030
      3  O          6.8310    4.7730    0.3020 O.2     1  UNL1       -0.2520
      4  O          6.6490    3.4900    2.1780 O.3     1  UNL1       -0.4810
      5  H          7.3490    4.0260    2.7230 H       1  UNL1        0.2960
      6  C          5.2780    1.6040    0.8350 C.3     1  UNL1        0.0470
      7  C          6.0430    0.5510    0.1450 C.2     1  UNL1       -0.0470
      8  C          6.4860   -0.5330    0.8930 C.2     1  UNL1        0.0040
      9  C          6.3610    0.5580   -1.1890 C.2     1  UNL1        0.0040
     10  C          7.2180   -1.5460    0.2770 C.2     1  UNL1        0.0000
     11  C          7.0840   -0.4300   -1.8280 C.2     1  UNL1        0.0000
     12  C          7.5120   -1.4940   -1.0580 C.2     1  UNL1        0.0000
@<TRIPOS>BOND
     1    11     9    1
     2    11    12    2
     3     9     7    2
     4    12    10    1
     5     1     6    1
     6     1     2    1
     7     7     6    1
     8     7     8    1
     9    10     8    2
    10     3     2    2
    11     2     4    1
    12     4     5    1
