@<TRIPOS>MOLECULE
/home/cewinharhar/GITHUB/reincatalyze/data/processed/docking_pred/2023-Apr-25-1829_maxeplen10_maxtrainstep200_exh32_gamma099_lrac3e-4_lrcr1e-3/f338baa35ded8d3cb3d8a5b9e0cebf8a24c11f6d_ligand_2.pdbqt
 12 12 0 0 0
SMALL
GASTEIGER

@<TRIPOS>ATOM
      1  C          8.3040    0.0470   -2.1680 C.3     1  UNL1        0.1270
      2  C          9.3880    0.3030   -1.2030 C.2     1  UNL1        0.3030
      3  O          9.4670   -0.4130   -0.1770 O.2     1  UNL1       -0.2520
      4  O         10.3130    1.3080   -1.4100 O.3     1  UNL1       -0.4810
      5  H         10.2480    1.9970   -2.1820 H       1  UNL1        0.2960
      6  C          7.2050   -0.6980   -1.4190 C.3     1  UNL1        0.0470
      7  C          6.3950    0.2030   -0.5800 C.2     1  UNL1       -0.0470
      8  C          6.1200   -0.1890    0.7240 C.2     1  UNL1        0.0040
      9  C          5.8810    1.4060   -0.9900 C.2     1  UNL1        0.0040
     10  C          5.3520    0.6330    1.5470 C.2     1  UNL1        0.0000
     11  C          5.1170    2.2430   -0.2000 C.2     1  UNL1        0.0000
     12  C          4.8600    1.8260    1.0920 C.2     1  UNL1        0.0000
@<TRIPOS>BOND
     1     5     4    1
     2     1     6    1
     3     1     2    1
     4     6     7    1
     5     4     2    1
     6     2     3    2
     7     9     7    2
     8     9    11    1
     9     7     8    1
    10    11    12    2
    11     8    10    2
    12    12    10    1
