@<TRIPOS>MOLECULE
/home/cewinharhar/GITHUB/reincatalyze/data/processed/docking_pred/2023-Apr-25-1829_maxeplen10_maxtrainstep200_exh32_gamma099_lrac3e-4_lrcr1e-3/f3c5d297feb9947f67baa3310bcd1cfc63c32b25_ligand_2.pdbqt
 12 12 0 0 0
SMALL
GASTEIGER

@<TRIPOS>ATOM
      1  C          8.4640   -0.5840   -2.2320 C.3     1  UNL1        0.1270
      2  C          8.4730   -1.8880   -2.9180 C.2     1  UNL1        0.3030
      3  O          9.5630   -2.4930   -3.0540 O.2     1  UNL1       -0.2520
      4  O          7.3100   -2.4530   -3.4070 O.3     1  UNL1       -0.4810
      5  H          7.1490   -2.6530   -4.4120 H       1  UNL1        0.2960
      6  C          7.0140   -0.1150   -2.1800 C.3     1  UNL1        0.0470
      7  C          6.5110   -0.0180   -0.7980 C.2     1  UNL1       -0.0470
      8  C          5.8880    1.1630   -0.4110 C.2     1  UNL1        0.0040
      9  C          6.6140   -1.0060    0.1460 C.2     1  UNL1        0.0040
     10  C          5.4050    1.2950    0.8890 C.2     1  UNL1        0.0000
     11  C          6.1450   -0.9050    1.4410 C.2     1  UNL1        0.0000
     12  C          5.5320    0.2800    1.7970 C.2     1  UNL1        0.0000
@<TRIPOS>BOND
     1     5     4    1
     2     4     2    1
     3     3     2    2
     4     2     1    1
     5     1     6    1
     6     6     7    1
     7     7     8    2
     8     7     9    1
     9     8    10    1
    10     9    11    2
    11    10    12    2
    12    11    12    1
