@<TRIPOS>MOLECULE
/home/cewinharhar/GITHUB/reincatalyze/data/processed/docking_pred/2023-Apr-25-1829_maxeplen10_maxtrainstep200_exh32_gamma099_lrac3e-4_lrcr1e-3/f3c5d297feb9947f67baa3310bcd1cfc63c32b25_ligand_2.pdbqt
 12 12 0 0 0
SMALL
GASTEIGER

@<TRIPOS>ATOM
      1  C          5.5150    2.9000   -0.0130 C.3     1  UNL1        0.1270
      2  C          6.2760    3.8530    0.8140 C.2     1  UNL1        0.3030
      3  O          6.9150    4.7710    0.2480 O.2     1  UNL1       -0.2520
      4  O          6.2960    3.7530    2.1920 O.3     1  UNL1       -0.4810
      5  H          5.4460    3.8120    2.7840 H       1  UNL1        0.2960
      6  C          4.9540    1.8390    0.9260 C.3     1  UNL1        0.0470
      7  C          5.7630    0.6080    0.9210 C.2     1  UNL1       -0.0470
      8  C          5.7540   -0.1850    2.0630 C.2     1  UNL1        0.0040
      9  C          6.5370    0.1810   -0.1270 C.2     1  UNL1        0.0040
     10  C          6.5120   -1.3540    2.0990 C.2     1  UNL1        0.0000
     11  C          7.2970   -0.9710   -0.1220 C.2     1  UNL1        0.0000
     12  C          7.2690   -1.7380    1.0260 C.2     1  UNL1        0.0000
@<TRIPOS>BOND
     1     9    11    1
     2     9     7    2
     3    11    12    2
     4     1     2    1
     5     1     6    1
     6     3     2    2
     7     2     4    1
     8     7     6    1
     9     7     8    1
    10    12    10    1
    11     8    10    2
    12     4     5    1
