MODEL 1
REMARK VINA RESULT:      -7.3      0.000      0.000
REMARK SMILES O=C(O)CCc1ccccc1
REMARK SMILES IDX 4 1 2 2 1 3 3 4 5 6 6 7 7 8 11 9 8 10 10 11 9 12
REMARK H PARENT 3 5
REMARK Flexibility Score: inf
ROOT
ATOM      1  C   UNL     1       8.464  -0.584  -2.232  1.00  0.00     0.127 C 
ENDROOT
BRANCH   1   2
ATOM      2  C   UNL     1       8.473  -1.888  -2.918  1.00  0.00     0.303 C 
ATOM      3  O   UNL     1       9.563  -2.493  -3.054  1.00  0.00    -0.252 OA
BRANCH   2   4
ATOM      4  O   UNL     1       7.310  -2.453  -3.407  1.00  0.00    -0.481 OA
ATOM      5  H   UNL     1       7.149  -2.653  -4.412  1.00  0.00     0.296 HD
ENDBRANCH   2   4
ENDBRANCH   1   2
BRANCH   1   6
ATOM      6  C   UNL     1       7.014  -0.115  -2.180  1.00  0.00     0.047 C 
BRANCH   6   7
ATOM      7  C   UNL     1       6.511  -0.018  -0.798  1.00  0.00    -0.047 A 
ATOM      8  C   UNL     1       5.888   1.163  -0.411  1.00  0.00     0.004 A 
ATOM      9  C   UNL     1       6.614  -1.006   0.146  1.00  0.00     0.004 A 
ATOM     10  C   UNL     1       5.405   1.295   0.889  1.00  0.00     0.000 A 
ATOM     11  C   UNL     1       6.145  -0.905   1.441  1.00  0.00     0.000 A 
ATOM     12  C   UNL     1       5.532   0.280   1.797  1.00  0.00     0.000 A 
ENDBRANCH   6   7
ENDBRANCH   1   6
TORSDOF 4
ENDMDL
MODEL 2
REMARK VINA RESULT:      -7.2      0.122      1.728
REMARK SMILES O=C(O)CCc1ccccc1
REMARK SMILES IDX 4 1 2 2 1 3 3 4 5 6 6 7 7 8 11 9 8 10 10 11 9 12
REMARK H PARENT 3 5
REMARK Flexibility Score: inf
ROOT
ATOM      1  C   UNL     1       8.428  -0.632  -2.146  1.00  0.00     0.127 C 
ENDROOT
BRANCH   1   2
ATOM      2  C   UNL     1       8.409  -1.889  -2.913  1.00  0.00     0.303 C 
ATOM      3  O   UNL     1       7.304  -2.386  -3.235  1.00  0.00    -0.252 OA
BRANCH   2   4
ATOM      4  O   UNL     1       9.579  -2.525  -3.282  1.00  0.00    -0.481 OA
ATOM      5  H   UNL     1      10.245  -2.141  -3.977  1.00  0.00     0.296 HD
ENDBRANCH   2   4
ENDBRANCH   1   2
BRANCH   1   6
ATOM      6  C   UNL     1       7.007  -0.078  -2.158  1.00  0.00     0.047 C 
BRANCH   6   7
ATOM      7  C   UNL     1       6.465   0.093  -0.799  1.00  0.00    -0.047 A 
ATOM      8  C   UNL     1       6.603  -0.960   0.097  1.00  0.00     0.004 A 
ATOM      9  C   UNL     1       5.825   1.217  -0.344  1.00  0.00     0.004 A 
ATOM     10  C   UNL     1       6.097  -0.839   1.390  1.00  0.00     0.000 A 
ATOM     11  C   UNL     1       5.314   1.368   0.930  1.00  0.00     0.000 A 
ATOM     12  C   UNL     1       5.465   0.304   1.797  1.00  0.00     0.000 A 
ENDBRANCH   6   7
ENDBRANCH   1   6
TORSDOF 4
ENDMDL
MODEL 3
REMARK VINA RESULT:      -6.8      3.375      5.053
REMARK SMILES O=C(O)CCc1ccccc1
REMARK SMILES IDX 4 1 2 2 1 3 3 4 5 6 6 7 7 8 11 9 8 10 10 11 9 12
REMARK H PARENT 3 5
REMARK Flexibility Score: inf
ROOT
ATOM      1  C   UNL     1       4.978   1.782   0.703  1.00  0.00     0.127 C 
ENDROOT
BRANCH   1   2
ATOM      2  C   UNL     1       4.466   1.119   1.915  1.00  0.00     0.303 C 
ATOM      3  O   UNL     1       5.162   0.227   2.456  1.00  0.00    -0.252 OA
BRANCH   2   4
ATOM      4  O   UNL     1       3.245   1.462   2.463  1.00  0.00    -0.481 OA
ATOM      5  H   UNL     1       3.113   1.709   3.461  1.00  0.00     0.296 HD
ENDBRANCH   2   4
ENDBRANCH   1   2
BRANCH   1   6
ATOM      6  C   UNL     1       6.500   1.753   0.785  1.00  0.00     0.047 C 
BRANCH   6   7
ATOM      7  C   UNL     1       7.101   0.979  -0.316  1.00  0.00    -0.047 A 
ATOM      8  C   UNL     1       8.426   1.233  -0.646  1.00  0.00     0.004 A 
ATOM      9  C   UNL     1       6.448   0.023  -1.051  1.00  0.00     0.004 A 
ATOM     10  C   UNL     1       9.028   0.526  -1.686  1.00  0.00     0.000 A 
ATOM     11  C   UNL     1       7.016  -0.694  -2.086  1.00  0.00     0.000 A 
ATOM     12  C   UNL     1       8.335  -0.419  -2.392  1.00  0.00     0.000 A 
ENDBRANCH   6   7
ENDBRANCH   1   6
TORSDOF 4
ENDMDL
MODEL 4
REMARK VINA RESULT:      -6.7      3.826      4.966
REMARK SMILES O=C(O)CCc1ccccc1
REMARK SMILES IDX 4 1 2 2 1 3 3 4 5 6 6 7 7 8 11 9 8 10 10 11 9 12
REMARK H PARENT 3 5
REMARK Flexibility Score: inf
ROOT
ATOM      1  C   UNL     1       5.515   2.900  -0.013  1.00  0.00     0.127 C 
ENDROOT
BRANCH   1   2
ATOM      2  C   UNL     1       6.276   3.853   0.814  1.00  0.00     0.303 C 
ATOM      3  O   UNL     1       6.915   4.771   0.248  1.00  0.00    -0.252 OA
BRANCH   2   4
ATOM      4  O   UNL     1       6.296   3.753   2.192  1.00  0.00    -0.481 OA
ATOM      5  H   UNL     1       5.446   3.812   2.784  1.00  0.00     0.296 HD
ENDBRANCH   2   4
ENDBRANCH   1   2
BRANCH   1   6
ATOM      6  C   UNL     1       4.954   1.839   0.926  1.00  0.00     0.047 C 
BRANCH   6   7
ATOM      7  C   UNL     1       5.763   0.608   0.921  1.00  0.00    -0.047 A 
ATOM      8  C   UNL     1       5.754  -0.185   2.063  1.00  0.00     0.004 A 
ATOM      9  C   UNL     1       6.537   0.181  -0.127  1.00  0.00     0.004 A 
ATOM     10  C   UNL     1       6.512  -1.354   2.099  1.00  0.00     0.000 A 
ATOM     11  C   UNL     1       7.297  -0.971  -0.122  1.00  0.00     0.000 A 
ATOM     12  C   UNL     1       7.269  -1.738   1.026  1.00  0.00     0.000 A 
ENDBRANCH   6   7
ENDBRANCH   1   6
TORSDOF 4
ENDMDL
MODEL 5
REMARK VINA RESULT:      -6.6      1.913      2.674
REMARK SMILES O=C(O)CCc1ccccc1
REMARK SMILES IDX 4 1 2 2 1 3 3 4 5 6 6 7 7 8 11 9 8 10 10 11 9 12
REMARK H PARENT 3 5
REMARK Flexibility Score: inf
ROOT
ATOM      1  C   UNL     1       8.243   0.234  -2.251  1.00  0.00     0.127 C 
ENDROOT
BRANCH   1   2
ATOM      2  C   UNL     1       9.357   0.353  -1.294  1.00  0.00     0.303 C 
ATOM      3  O   UNL     1       9.405  -0.435  -0.320  1.00  0.00    -0.252 OA
BRANCH   2   4
ATOM      4  O   UNL     1      10.341   1.310  -1.450  1.00  0.00    -0.481 OA
ATOM      5  H   UNL     1      10.405   2.167  -0.870  1.00  0.00     0.296 HD
ENDBRANCH   2   4
ENDBRANCH   1   2
BRANCH   1   6
ATOM      6  C   UNL     1       7.129  -0.533  -1.548  1.00  0.00     0.047 C 
BRANCH   6   7
ATOM      7  C   UNL     1       6.338   0.330  -0.653  1.00  0.00    -0.047 A 
ATOM      8  C   UNL     1       6.119  -0.104   0.649  1.00  0.00     0.004 A 
ATOM      9  C   UNL     1       5.792   1.537  -1.007  1.00  0.00     0.004 A 
ATOM     10  C   UNL     1       5.371   0.682   1.523  1.00  0.00     0.000 A 
ATOM     11  C   UNL     1       5.047   2.338  -0.164  1.00  0.00     0.000 A 
ATOM     12  C   UNL     1       4.845   1.880   1.123  1.00  0.00     0.000 A 
ENDBRANCH   6   7
ENDBRANCH   1   6
TORSDOF 4
ENDMDL
