@<TRIPOS>MOLECULE
/home/cewinharhar/GITHUB/reincatalyze/data/processed/docking_pred/2023-Apr-25-1829_maxeplen10_maxtrainstep200_exh32_gamma099_lrac3e-4_lrcr1e-3/f3c5d297feb9947f67baa3310bcd1cfc63c32b25_ligand_2.pdbqt
 12 12 0 0 0
SMALL
GASTEIGER

@<TRIPOS>ATOM
      1  C          4.9780    1.7820    0.7030 C.3     1  UNL1        0.1270
      2  C          4.4660    1.1190    1.9150 C.2     1  UNL1        0.3030
      3  O          5.1620    0.2270    2.4560 O.2     1  UNL1       -0.2520
      4  O          3.2450    1.4620    2.4630 O.3     1  UNL1       -0.4810
      5  H          3.1130    1.7090    3.4610 H       1  UNL1        0.2960
      6  C          6.5000    1.7530    0.7850 C.3     1  UNL1        0.0470
      7  C          7.1010    0.9790   -0.3160 C.2     1  UNL1       -0.0470
      8  C          8.4260    1.2330   -0.6460 C.2     1  UNL1        0.0040
      9  C          6.4480    0.0230   -1.0510 C.2     1  UNL1        0.0040
     10  C          9.0280    0.5260   -1.6860 C.2     1  UNL1        0.0000
     11  C          7.0160   -0.6940   -2.0860 C.2     1  UNL1        0.0000
     12  C          8.3350   -0.4190   -2.3920 C.2     1  UNL1        0.0000
@<TRIPOS>BOND
     1    12    11    2
     2    12    10    1
     3    11     9    1
     4    10     8    2
     5     9     7    2
     6     8     7    1
     7     7     6    1
     8     1     6    1
     9     1     2    1
    10     2     3    2
    11     2     4    1
    12     4     5    1
