@<TRIPOS>MOLECULE
/home/cewinharhar/GITHUB/reincatalyze/data/processed/docking_pred/2023-Apr-25-1829_maxeplen10_maxtrainstep200_exh32_gamma099_lrac3e-4_lrcr1e-3/f3c5d297feb9947f67baa3310bcd1cfc63c32b25_ligand_2.pdbqt
 12 12 0 0 0
SMALL
GASTEIGER

@<TRIPOS>ATOM
      1  C          8.2430    0.2340   -2.2510 C.3     1  UNL1        0.1270
      2  C          9.3570    0.3530   -1.2940 C.2     1  UNL1        0.3030
      3  O          9.4050   -0.4350   -0.3200 O.2     1  UNL1       -0.2520
      4  O         10.3410    1.3100   -1.4500 O.3     1  UNL1       -0.4810
      5  H         10.4050    2.1670   -0.8700 H       1  UNL1        0.2960
      6  C          7.1290   -0.5330   -1.5480 C.3     1  UNL1        0.0470
      7  C          6.3380    0.3300   -0.6530 C.2     1  UNL1       -0.0470
      8  C          6.1190   -0.1040    0.6490 C.2     1  UNL1        0.0040
      9  C          5.7920    1.5370   -1.0070 C.2     1  UNL1        0.0040
     10  C          5.3710    0.6820    1.5230 C.2     1  UNL1        0.0000
     11  C          5.0470    2.3380   -0.1640 C.2     1  UNL1        0.0000
     12  C          4.8450    1.8800    1.1230 C.2     1  UNL1        0.0000
@<TRIPOS>BOND
     1     1     6    1
     2     1     2    1
     3     6     7    1
     4     4     2    1
     5     4     5    1
     6     2     3    2
     7     9     7    2
     8     9    11    1
     9     7     8    1
    10    11    12    2
    11     8    10    2
    12    12    10    1
