@<TRIPOS>MOLECULE
/home/cewinharhar/GITHUB/reincatalyze/data/processed/docking_pred/2023-Apr-25-1829_maxeplen10_maxtrainstep200_exh32_gamma099_lrac3e-4_lrcr1e-3/f3c5d297feb9947f67baa3310bcd1cfc63c32b25_ligand_2.pdbqt
 12 12 0 0 0
SMALL
GASTEIGER

@<TRIPOS>ATOM
      1  C          8.4280   -0.6320   -2.1460 C.3     1  UNL1        0.1270
      2  C          8.4090   -1.8890   -2.9130 C.2     1  UNL1        0.3030
      3  O          7.3040   -2.3860   -3.2350 O.2     1  UNL1       -0.2520
      4  O          9.5790   -2.5250   -3.2820 O.3     1  UNL1       -0.4810
      5  H         10.2450   -2.1410   -3.9770 H       1  UNL1        0.2960
      6  C          7.0070   -0.0780   -2.1580 C.3     1  UNL1        0.0470
      7  C          6.4650    0.0930   -0.7990 C.2     1  UNL1       -0.0470
      8  C          6.6030   -0.9600    0.0970 C.2     1  UNL1        0.0040
      9  C          5.8250    1.2170   -0.3440 C.2     1  UNL1        0.0040
     10  C          6.0970   -0.8390    1.3900 C.2     1  UNL1        0.0000
     11  C          5.3140    1.3680    0.9300 C.2     1  UNL1        0.0000
     12  C          5.4650    0.3040    1.7970 C.2     1  UNL1        0.0000
@<TRIPOS>BOND
     1     5     4    1
     2     4     2    1
     3     3     2    2
     4     2     1    1
     5     6     1    1
     6     6     7    1
     7     7     9    2
     8     7     8    1
     9     9    11    1
    10     8    10    2
    11    11    12    2
    12    10    12    1
