@<TRIPOS>MOLECULE
/home/cewinharhar/GITHUB/reincatalyze/data/processed/docking_pred/2023-Apr-25-1829_maxeplen10_maxtrainstep200_exh32_gamma099_lrac3e-4_lrcr1e-3/f43d8cd6194682d8f3e5600fbc578d0750565092_ligand_2.pdbqt
 12 12 0 0 0
SMALL
GASTEIGER

@<TRIPOS>ATOM
      1  C          8.2390    0.2740   -2.3350 C.3     1  UNL1        0.1270
      2  C          9.4580   -0.0170   -1.5600 C.2     1  UNL1        0.3030
      3  O          9.7260   -1.2080   -1.2780 O.2     1  UNL1       -0.2520
      4  O         10.3040    0.9930   -1.1430 O.3     1  UNL1       -0.4810
      5  H         11.0400    1.4080   -1.7440 H       1  UNL1        0.2960
      6  C          7.1450   -0.6520   -1.8140 C.3     1  UNL1        0.0470
      7  C          6.4700   -0.1000   -0.6260 C.2     1  UNL1       -0.0470
      8  C          6.4290   -0.8790    0.5240 C.2     1  UNL1        0.0040
      9  C          5.8680    1.1310   -0.5660 C.2     1  UNL1        0.0040
     10  C          5.7940   -0.3940    1.6660 C.2     1  UNL1        0.0000
     11  C          5.2320    1.6390    0.5490 C.2     1  UNL1        0.0000
     12  C          5.2060    0.8410    1.6770 C.2     1  UNL1        0.0000
@<TRIPOS>BOND
     1     1     6    1
     2     1     2    1
     3     6     7    1
     4     5     4    1
     5     2     3    2
     6     2     4    1
     7     7     9    2
     8     7     8    1
     9     9    11    1
    10     8    10    2
    11    11    12    2
    12    10    12    1
