@<TRIPOS>MOLECULE
/home/cewinharhar/GITHUB/reincatalyze/data/processed/docking_pred/2023-Apr-25-1829_maxeplen10_maxtrainstep200_exh32_gamma099_lrac3e-4_lrcr1e-3/f43d8cd6194682d8f3e5600fbc578d0750565092_ligand_2.pdbqt
 12 12 0 0 0
SMALL
GASTEIGER

@<TRIPOS>ATOM
      1  C          8.6270   -0.7300   -2.0550 C.3     1  UNL1        0.1270
      2  C          8.5740   -1.9740   -2.8430 C.2     1  UNL1        0.3030
      3  O          9.6340   -2.6140   -3.0360 O.2     1  UNL1       -0.2520
      4  O          7.3840   -2.4430   -3.3670 O.3     1  UNL1       -0.4810
      5  H          7.3080   -3.3140   -3.9240 H       1  UNL1        0.2960
      6  C          7.2480   -0.0860   -2.1390 C.3     1  UNL1        0.0470
      7  C          6.6140    0.0460   -0.8160 C.2     1  UNL1       -0.0470
      8  C          5.9560    1.2340   -0.5220 C.2     1  UNL1        0.0040
      9  C          6.6270   -0.9160    0.1610 C.2     1  UNL1        0.0040
     10  C          5.3500    1.3990    0.7220 C.2     1  UNL1        0.0000
     11  C          6.0350   -0.7830    1.4010 C.2     1  UNL1        0.0000
     12  C          5.3900    0.4090    1.6650 C.2     1  UNL1        0.0000
@<TRIPOS>BOND
     1     5     4    1
     2     4     2    1
     3     3     2    2
     4     2     1    1
     5     6     1    1
     6     6     7    1
     7     7     8    2
     8     7     9    1
     9     8    10    1
    10     9    11    2
    11    10    12    2
    12    11    12    1
