@<TRIPOS>MOLECULE
/home/cewinharhar/GITHUB/reincatalyze/data/processed/docking_pred/2023-Apr-25-1829_maxeplen10_maxtrainstep200_exh32_gamma099_lrac3e-4_lrcr1e-3/f43d8cd6194682d8f3e5600fbc578d0750565092_ligand_2.pdbqt
 12 12 0 0 0
SMALL
GASTEIGER

@<TRIPOS>ATOM
      1  C          8.5470   -0.5870   -1.9810 C.3     1  UNL1        0.1270
      2  C          8.6340   -1.8380   -2.7550 C.2     1  UNL1        0.3030
      3  O          9.7490   -2.3970   -2.8770 O.2     1  UNL1       -0.2520
      4  O          7.5170   -2.4020   -3.3400 O.3     1  UNL1       -0.4810
      5  H          6.5460   -2.1900   -3.0440 H       1  UNL1        0.2960
      6  C          7.1140   -0.0820   -2.1050 C.3     1  UNL1        0.0470
      7  C          6.4920    0.1550   -0.7900 C.2     1  UNL1       -0.0470
      8  C          6.5740   -0.8530    0.1630 C.2     1  UNL1        0.0040
      9  C          5.8290    1.2990   -0.4300 C.2     1  UNL1        0.0040
     10  C          5.9930   -0.6680    1.4160 C.2     1  UNL1        0.0000
     11  C          5.2440    1.5120    0.8020 C.2     1  UNL1        0.0000
     12  C          5.3400    0.4920    1.7290 C.2     1  UNL1        0.0000
@<TRIPOS>BOND
     1     4     5    1
     2     4     2    1
     3     3     2    2
     4     2     1    1
     5     6     1    1
     6     6     7    1
     7     7     9    2
     8     7     8    1
     9     9    11    1
    10     8    10    2
    11    11    12    2
    12    10    12    1
