MODEL 1
REMARK VINA RESULT:      -6.7      0.000      0.000
REMARK SMILES O=C(O)CCc1ccccc1
REMARK SMILES IDX 4 1 2 2 1 3 3 4 5 6 6 7 7 8 11 9 8 10 10 11 9 12
REMARK H PARENT 3 5
REMARK Flexibility Score: inf
ROOT
ATOM      1  C   UNL     1       8.627  -0.730  -2.055  1.00  0.00     0.127 C 
ENDROOT
BRANCH   1   2
ATOM      2  C   UNL     1       8.574  -1.974  -2.843  1.00  0.00     0.303 C 
ATOM      3  O   UNL     1       9.634  -2.614  -3.036  1.00  0.00    -0.252 OA
BRANCH   2   4
ATOM      4  O   UNL     1       7.384  -2.443  -3.367  1.00  0.00    -0.481 OA
ATOM      5  H   UNL     1       7.308  -3.314  -3.924  1.00  0.00     0.296 HD
ENDBRANCH   2   4
ENDBRANCH   1   2
BRANCH   1   6
ATOM      6  C   UNL     1       7.248  -0.086  -2.139  1.00  0.00     0.047 C 
BRANCH   6   7
ATOM      7  C   UNL     1       6.614   0.046  -0.816  1.00  0.00    -0.047 A 
ATOM      8  C   UNL     1       5.956   1.234  -0.522  1.00  0.00     0.004 A 
ATOM      9  C   UNL     1       6.627  -0.916   0.161  1.00  0.00     0.004 A 
ATOM     10  C   UNL     1       5.350   1.399   0.722  1.00  0.00     0.000 A 
ATOM     11  C   UNL     1       6.035  -0.783   1.401  1.00  0.00     0.000 A 
ATOM     12  C   UNL     1       5.390   0.409   1.665  1.00  0.00     0.000 A 
ENDBRANCH   6   7
ENDBRANCH   1   6
TORSDOF 4
ENDMDL
MODEL 2
REMARK VINA RESULT:      -6.6      0.167      1.438
REMARK SMILES O=C(O)CCc1ccccc1
REMARK SMILES IDX 4 1 2 2 1 3 3 4 5 6 6 7 7 8 11 9 8 10 10 11 9 12
REMARK H PARENT 3 5
REMARK Flexibility Score: inf
ROOT
ATOM      1  C   UNL     1       8.547  -0.587  -1.981  1.00  0.00     0.127 C 
ENDROOT
BRANCH   1   2
ATOM      2  C   UNL     1       8.634  -1.838  -2.755  1.00  0.00     0.303 C 
ATOM      3  O   UNL     1       9.749  -2.397  -2.877  1.00  0.00    -0.252 OA
BRANCH   2   4
ATOM      4  O   UNL     1       7.517  -2.402  -3.340  1.00  0.00    -0.481 OA
ATOM      5  H   UNL     1       6.546  -2.190  -3.044  1.00  0.00     0.296 HD
ENDBRANCH   2   4
ENDBRANCH   1   2
BRANCH   1   6
ATOM      6  C   UNL     1       7.114  -0.082  -2.105  1.00  0.00     0.047 C 
BRANCH   6   7
ATOM      7  C   UNL     1       6.492   0.155  -0.790  1.00  0.00    -0.047 A 
ATOM      8  C   UNL     1       6.574  -0.853   0.163  1.00  0.00     0.004 A 
ATOM      9  C   UNL     1       5.829   1.299  -0.430  1.00  0.00     0.004 A 
ATOM     10  C   UNL     1       5.993  -0.668   1.416  1.00  0.00     0.000 A 
ATOM     11  C   UNL     1       5.244   1.512   0.802  1.00  0.00     0.000 A 
ATOM     12  C   UNL     1       5.340   0.492   1.729  1.00  0.00     0.000 A 
ENDBRANCH   6   7
ENDBRANCH   1   6
TORSDOF 4
ENDMDL
MODEL 3
REMARK VINA RESULT:      -6.4      3.380      5.109
REMARK SMILES O=C(O)CCc1ccccc1
REMARK SMILES IDX 4 1 2 2 1 3 3 4 5 6 6 7 7 8 11 9 8 10 10 11 9 12
REMARK H PARENT 3 5
REMARK Flexibility Score: inf
ROOT
ATOM      1  C   UNL     1       4.953   1.800   0.750  1.00  0.00     0.127 C 
ENDROOT
BRANCH   1   2
ATOM      2  C   UNL     1       4.441   1.109   1.946  1.00  0.00     0.303 C 
ATOM      3  O   UNL     1       5.136   0.205   2.466  1.00  0.00    -0.252 OA
BRANCH   2   4
ATOM      4  O   UNL     1       3.219   1.439   2.500  1.00  0.00    -0.481 OA
ATOM      5  H   UNL     1       2.311   1.108   2.123  1.00  0.00     0.296 HD
ENDBRANCH   2   4
ENDBRANCH   1   2
BRANCH   1   6
ATOM      6  C   UNL     1       6.474   1.822   0.861  1.00  0.00     0.047 C 
BRANCH   6   7
ATOM      7  C   UNL     1       7.124   1.154  -0.280  1.00  0.00    -0.047 A 
ATOM      8  C   UNL     1       6.334   0.382  -1.123  1.00  0.00     0.004 A 
ATOM      9  C   UNL     1       8.461   1.231  -0.577  1.00  0.00     0.004 A 
ATOM     10  C   UNL     1       6.914  -0.270  -2.209  1.00  0.00     0.000 A 
ATOM     11  C   UNL     1       9.064   0.598  -1.645  1.00  0.00     0.000 A 
ATOM     12  C   UNL     1       8.254  -0.164  -2.464  1.00  0.00     0.000 A 
ENDBRANCH   6   7
ENDBRANCH   1   6
TORSDOF 4
ENDMDL
MODEL 4
REMARK VINA RESULT:      -6.4      3.368      5.073
REMARK SMILES O=C(O)CCc1ccccc1
REMARK SMILES IDX 4 1 2 2 1 3 3 4 5 6 6 7 7 8 11 9 8 10 10 11 9 12
REMARK H PARENT 3 5
REMARK Flexibility Score: inf
ROOT
ATOM      1  C   UNL     1       4.972   1.765   0.698  1.00  0.00     0.127 C 
ENDROOT
BRANCH   1   2
ATOM      2  C   UNL     1       4.459   1.122   1.920  1.00  0.00     0.303 C 
ATOM      3  O   UNL     1       5.152   0.238   2.477  1.00  0.00    -0.252 OA
BRANCH   2   4
ATOM      4  O   UNL     1       3.237   1.476   2.460  1.00  0.00    -0.481 OA
ATOM      5  H   UNL     1       2.537   0.788   2.793  1.00  0.00     0.296 HD
ENDBRANCH   2   4
ENDBRANCH   1   2
BRANCH   1   6
ATOM      6  C   UNL     1       6.494   1.737   0.783  1.00  0.00     0.047 C 
BRANCH   6   7
ATOM      7  C   UNL     1       7.099   0.977  -0.325  1.00  0.00    -0.047 A 
ATOM      8  C   UNL     1       8.420   1.249  -0.660  1.00  0.00     0.004 A 
ATOM      9  C   UNL     1       6.454   0.018  -1.063  1.00  0.00     0.004 A 
ATOM     10  C   UNL     1       9.025   0.555  -1.706  1.00  0.00     0.000 A 
ATOM     11  C   UNL     1       7.026  -0.687  -2.104  1.00  0.00     0.000 A 
ATOM     12  C   UNL     1       8.340  -0.394  -2.415  1.00  0.00     0.000 A 
ENDBRANCH   6   7
ENDBRANCH   1   6
TORSDOF 4
ENDMDL
MODEL 5
REMARK VINA RESULT:      -6.3      1.538      2.359
REMARK SMILES O=C(O)CCc1ccccc1
REMARK SMILES IDX 4 1 2 2 1 3 3 4 5 6 6 7 7 8 11 9 8 10 10 11 9 12
REMARK H PARENT 3 5
REMARK Flexibility Score: inf
ROOT
ATOM      1  C   UNL     1       8.239   0.274  -2.335  1.00  0.00     0.127 C 
ENDROOT
BRANCH   1   2
ATOM      2  C   UNL     1       9.458  -0.017  -1.560  1.00  0.00     0.303 C 
ATOM      3  O   UNL     1       9.726  -1.208  -1.278  1.00  0.00    -0.252 OA
BRANCH   2   4
ATOM      4  O   UNL     1      10.304   0.993  -1.143  1.00  0.00    -0.481 OA
ATOM      5  H   UNL     1      11.040   1.408  -1.744  1.00  0.00     0.296 HD
ENDBRANCH   2   4
ENDBRANCH   1   2
BRANCH   1   6
ATOM      6  C   UNL     1       7.145  -0.652  -1.814  1.00  0.00     0.047 C 
BRANCH   6   7
ATOM      7  C   UNL     1       6.470  -0.100  -0.626  1.00  0.00    -0.047 A 
ATOM      8  C   UNL     1       6.429  -0.879   0.524  1.00  0.00     0.004 A 
ATOM      9  C   UNL     1       5.868   1.131  -0.566  1.00  0.00     0.004 A 
ATOM     10  C   UNL     1       5.794  -0.394   1.666  1.00  0.00     0.000 A 
ATOM     11  C   UNL     1       5.232   1.639   0.549  1.00  0.00     0.000 A 
ATOM     12  C   UNL     1       5.206   0.841   1.677  1.00  0.00     0.000 A 
ENDBRANCH   6   7
ENDBRANCH   1   6
TORSDOF 4
ENDMDL
