@<TRIPOS>MOLECULE
/home/cewinharhar/GITHUB/reincatalyze/data/processed/docking_pred/2023-Apr-25-1829_maxeplen10_maxtrainstep200_exh32_gamma099_lrac3e-4_lrcr1e-3/f43d8cd6194682d8f3e5600fbc578d0750565092_ligand_2.pdbqt
 12 12 0 0 0
SMALL
GASTEIGER

@<TRIPOS>ATOM
      1  C          4.9530    1.8000    0.7500 C.3     1  UNL1        0.1270
      2  C          4.4410    1.1090    1.9460 C.2     1  UNL1        0.3030
      3  O          5.1360    0.2050    2.4660 O.2     1  UNL1       -0.2520
      4  O          3.2190    1.4390    2.5000 O.3     1  UNL1       -0.4810
      5  H          2.3110    1.1080    2.1230 H       1  UNL1        0.2960
      6  C          6.4740    1.8220    0.8610 C.3     1  UNL1        0.0470
      7  C          7.1240    1.1540   -0.2800 C.2     1  UNL1       -0.0470
      8  C          6.3340    0.3820   -1.1230 C.2     1  UNL1        0.0040
      9  C          8.4610    1.2310   -0.5770 C.2     1  UNL1        0.0040
     10  C          6.9140   -0.2700   -2.2090 C.2     1  UNL1        0.0000
     11  C          9.0640    0.5980   -1.6450 C.2     1  UNL1        0.0000
     12  C          8.2540   -0.1640   -2.4640 C.2     1  UNL1        0.0000
@<TRIPOS>BOND
     1    12    10    2
     2    12    11    1
     3    10     8    1
     4    11     9    2
     5     8     7    2
     6     9     7    1
     7     7     6    1
     8     1     6    1
     9     1     2    1
    10     2     3    2
    11     2     4    1
    12     5     4    1
