@<TRIPOS>MOLECULE
/home/cewinharhar/GITHUB/reincatalyze/data/processed/docking_pred/2023-Apr-25-1829_maxeplen10_maxtrainstep200_exh32_gamma099_lrac3e-4_lrcr1e-3/f43d8cd6194682d8f3e5600fbc578d0750565092_ligand_2.pdbqt
 12 12 0 0 0
SMALL
GASTEIGER

@<TRIPOS>ATOM
      1  C          4.9720    1.7650    0.6980 C.3     1  UNL1        0.1270
      2  C          4.4590    1.1220    1.9200 C.2     1  UNL1        0.3030
      3  O          5.1520    0.2380    2.4770 O.2     1  UNL1       -0.2520
      4  O          3.2370    1.4760    2.4600 O.3     1  UNL1       -0.4810
      5  H          2.5370    0.7880    2.7930 H       1  UNL1        0.2960
      6  C          6.4940    1.7370    0.7830 C.3     1  UNL1        0.0470
      7  C          7.0990    0.9770   -0.3250 C.2     1  UNL1       -0.0470
      8  C          8.4200    1.2490   -0.6600 C.2     1  UNL1        0.0040
      9  C          6.4540    0.0180   -1.0630 C.2     1  UNL1        0.0040
     10  C          9.0250    0.5550   -1.7060 C.2     1  UNL1        0.0000
     11  C          7.0260   -0.6870   -2.1040 C.2     1  UNL1        0.0000
     12  C          8.3400   -0.3940   -2.4150 C.2     1  UNL1        0.0000
@<TRIPOS>BOND
     1    12    11    2
     2    12    10    1
     3    11     9    1
     4    10     8    2
     5     9     7    2
     6     8     7    1
     7     7     6    1
     8     1     6    1
     9     1     2    1
    10     2     4    1
    11     2     3    2
    12     4     5    1
