@<TRIPOS>MOLECULE
/home/cewinharhar/GITHUB/reincatalyze/data/processed/docking_pred/2023-Apr-25-1829_maxeplen10_maxtrainstep200_exh32_gamma099_lrac3e-4_lrcr1e-3/f5fb071253116e33fb6a6057d91faa3d89d34546_ligand_2.pdbqt
 12 12 0 0 0
SMALL
GASTEIGER

@<TRIPOS>ATOM
      1  C          8.2410    0.2600   -2.2210 C.3     1  UNL1        0.1270
      2  C          9.3560    0.3600   -1.2620 C.2     1  UNL1        0.3030
      3  O          9.4010   -0.4430   -0.3010 O.2     1  UNL1       -0.2520
      4  O         10.3440    1.3150   -1.4050 O.3     1  UNL1       -0.4810
      5  H         10.4030    2.1700   -0.8220 H       1  UNL1        0.2960
      6  C          7.1250   -0.5160   -1.5310 C.3     1  UNL1        0.0470
      7  C          6.3320    0.3360   -0.6280 C.2     1  UNL1       -0.0470
      8  C          6.1000   -0.1190    0.6640 C.2     1  UNL1        0.0040
      9  C          5.7940    1.5510   -0.9670 C.2     1  UNL1        0.0040
     10  C          5.3480    0.6560    1.5450 C.2     1  UNL1        0.0000
     11  C          5.0460    2.3420   -0.1170 C.2     1  UNL1        0.0000
     12  C          4.8310    1.8630    1.1610 C.2     1  UNL1        0.0000
@<TRIPOS>BOND
     1     1     6    1
     2     1     2    1
     3     6     7    1
     4     4     2    1
     5     4     5    1
     6     2     3    2
     7     9     7    2
     8     9    11    1
     9     7     8    1
    10    11    12    2
    11     8    10    2
    12    12    10    1
