@<TRIPOS>MOLECULE
/home/cewinharhar/GITHUB/reincatalyze/data/processed/docking_pred/2023-Apr-25-1829_maxeplen10_maxtrainstep200_exh32_gamma099_lrac3e-4_lrcr1e-3/f5fb071253116e33fb6a6057d91faa3d89d34546_ligand_2.pdbqt
 12 12 0 0 0
SMALL
GASTEIGER

@<TRIPOS>ATOM
      1  C          4.9800    1.7850    0.6840 C.3     1  UNL1        0.1270
      2  C          4.4850    1.1220    1.9030 C.2     1  UNL1        0.3030
      3  O          5.1960    0.2440    2.4460 O.2     1  UNL1       -0.2520
      4  O          3.2610    1.4510    2.4550 O.3     1  UNL1       -0.4810
      5  H          2.5470    0.7490    2.7230 H       1  UNL1        0.2960
      6  C          6.5030    1.7770    0.7570 C.3     1  UNL1        0.0470
      7  C          7.1080    0.9900   -0.3320 C.2     1  UNL1       -0.0470
      8  C          8.4470    1.2080   -0.6310 C.2     1  UNL1        0.0040
      9  C          6.4460    0.0530   -1.0840 C.2     1  UNL1        0.0040
     10  C          9.0520    0.4880   -1.6590 C.2     1  UNL1        0.0000
     11  C          7.0180   -0.6760   -2.1080 C.2     1  UNL1        0.0000
     12  C          8.3500   -0.4370   -2.3830 C.2     1  UNL1        0.0000
@<TRIPOS>BOND
     1    12    11    2
     2    12    10    1
     3    11     9    1
     4    10     8    2
     5     9     7    2
     6     8     7    1
     7     7     6    1
     8     1     6    1
     9     1     2    1
    10     2     3    2
    11     2     4    1
    12     4     5    1
