MODEL 1
REMARK VINA RESULT:      -7.3      0.000      0.000
REMARK SMILES O=C(O)CCc1ccccc1
REMARK SMILES IDX 4 1 2 2 1 3 3 4 5 6 6 7 7 8 11 9 8 10 10 11 9 12
REMARK H PARENT 3 5
REMARK Flexibility Score: inf
ROOT
ATOM      1  C   UNL     1       8.444  -0.633  -2.155  1.00  0.00     0.127 C 
ENDROOT
BRANCH   1   2
ATOM      2  C   UNL     1       8.459  -1.904  -2.900  1.00  0.00     0.303 C 
ATOM      3  O   UNL     1       9.552  -2.495  -3.068  1.00  0.00    -0.252 OA
BRANCH   2   4
ATOM      4  O   UNL     1       7.298  -2.453  -3.411  1.00  0.00    -0.481 OA
ATOM      5  H   UNL     1       7.078  -3.466  -3.374  1.00  0.00     0.296 HD
ENDBRANCH   2   4
ENDBRANCH   1   2
BRANCH   1   6
ATOM      6  C   UNL     1       7.010  -0.116  -2.180  1.00  0.00     0.047 C 
BRANCH   6   7
ATOM      7  C   UNL     1       6.470   0.090  -0.824  1.00  0.00    -0.047 A 
ATOM      8  C   UNL     1       6.601  -0.943   0.096  1.00  0.00     0.004 A 
ATOM      9  C   UNL     1       5.837   1.229  -0.396  1.00  0.00     0.004 A 
ATOM     10  C   UNL     1       6.098  -0.788   1.386  1.00  0.00     0.000 A 
ATOM     11  C   UNL     1       5.329   1.413   0.874  1.00  0.00     0.000 A 
ATOM     12  C   UNL     1       5.473   0.368   1.767  1.00  0.00     0.000 A 
ENDBRANCH   6   7
ENDBRANCH   1   6
TORSDOF 4
ENDMDL
MODEL 2
REMARK VINA RESULT:      -7.3      0.115      1.727
REMARK SMILES O=C(O)CCc1ccccc1
REMARK SMILES IDX 4 1 2 2 1 3 3 4 5 6 6 7 7 8 11 9 8 10 10 11 9 12
REMARK H PARENT 3 5
REMARK Flexibility Score: inf
ROOT
ATOM      1  C   UNL     1       8.438  -0.653  -2.114  1.00  0.00     0.127 C 
ENDROOT
BRANCH   1   2
ATOM      2  C   UNL     1       8.403  -1.908  -2.887  1.00  0.00     0.303 C 
ATOM      3  O   UNL     1       7.291  -2.387  -3.212  1.00  0.00    -0.252 OA
BRANCH   2   4
ATOM      4  O   UNL     1       9.564  -2.558  -3.258  1.00  0.00    -0.481 OA
ATOM      5  H   UNL     1       9.654  -3.590  -3.302  1.00  0.00     0.296 HD
ENDBRANCH   2   4
ENDBRANCH   1   2
BRANCH   1   6
ATOM      6  C   UNL     1       7.022  -0.088  -2.112  1.00  0.00     0.047 C 
BRANCH   6   7
ATOM      7  C   UNL     1       6.474   0.030  -0.749  1.00  0.00    -0.047 A 
ATOM      8  C   UNL     1       5.834   1.213  -0.402  1.00  0.00     0.004 A 
ATOM      9  C   UNL     1       6.550  -0.943   0.215  1.00  0.00     0.004 A 
ATOM     10  C   UNL     1       5.307   1.365   0.879  1.00  0.00     0.000 A 
ATOM     11  C   UNL     1       6.038  -0.823   1.492  1.00  0.00     0.000 A 
ATOM     12  C   UNL     1       5.409   0.365   1.808  1.00  0.00     0.000 A 
ENDBRANCH   6   7
ENDBRANCH   1   6
TORSDOF 4
ENDMDL
MODEL 3
REMARK VINA RESULT:      -6.8      3.362      5.075
REMARK SMILES O=C(O)CCc1ccccc1
REMARK SMILES IDX 4 1 2 2 1 3 3 4 5 6 6 7 7 8 11 9 8 10 10 11 9 12
REMARK H PARENT 3 5
REMARK Flexibility Score: inf
ROOT
ATOM      1  C   UNL     1       4.980   1.785   0.684  1.00  0.00     0.127 C 
ENDROOT
BRANCH   1   2
ATOM      2  C   UNL     1       4.485   1.122   1.903  1.00  0.00     0.303 C 
ATOM      3  O   UNL     1       5.196   0.244   2.446  1.00  0.00    -0.252 OA
BRANCH   2   4
ATOM      4  O   UNL     1       3.261   1.451   2.455  1.00  0.00    -0.481 OA
ATOM      5  H   UNL     1       2.547   0.749   2.723  1.00  0.00     0.296 HD
ENDBRANCH   2   4
ENDBRANCH   1   2
BRANCH   1   6
ATOM      6  C   UNL     1       6.503   1.777   0.757  1.00  0.00     0.047 C 
BRANCH   6   7
ATOM      7  C   UNL     1       7.108   0.990  -0.332  1.00  0.00    -0.047 A 
ATOM      8  C   UNL     1       8.447   1.208  -0.631  1.00  0.00     0.004 A 
ATOM      9  C   UNL     1       6.446   0.053  -1.084  1.00  0.00     0.004 A 
ATOM     10  C   UNL     1       9.052   0.488  -1.659  1.00  0.00     0.000 A 
ATOM     11  C   UNL     1       7.018  -0.676  -2.108  1.00  0.00     0.000 A 
ATOM     12  C   UNL     1       8.350  -0.437  -2.383  1.00  0.00     0.000 A 
ENDBRANCH   6   7
ENDBRANCH   1   6
TORSDOF 4
ENDMDL
MODEL 4
REMARK VINA RESULT:      -6.6      1.910      2.313
REMARK SMILES O=C(O)CCc1ccccc1
REMARK SMILES IDX 4 1 2 2 1 3 3 4 5 6 6 7 7 8 11 9 8 10 10 11 9 12
REMARK H PARENT 3 5
REMARK Flexibility Score: inf
ROOT
ATOM      1  C   UNL     1       8.241   0.260  -2.221  1.00  0.00     0.127 C 
ENDROOT
BRANCH   1   2
ATOM      2  C   UNL     1       9.356   0.360  -1.262  1.00  0.00     0.303 C 
ATOM      3  O   UNL     1       9.401  -0.443  -0.301  1.00  0.00    -0.252 OA
BRANCH   2   4
ATOM      4  O   UNL     1      10.344   1.315  -1.405  1.00  0.00    -0.481 OA
ATOM      5  H   UNL     1      10.403   2.170  -0.822  1.00  0.00     0.296 HD
ENDBRANCH   2   4
ENDBRANCH   1   2
BRANCH   1   6
ATOM      6  C   UNL     1       7.125  -0.516  -1.531  1.00  0.00     0.047 C 
BRANCH   6   7
ATOM      7  C   UNL     1       6.332   0.336  -0.628  1.00  0.00    -0.047 A 
ATOM      8  C   UNL     1       6.100  -0.119   0.664  1.00  0.00     0.004 A 
ATOM      9  C   UNL     1       5.794   1.551  -0.967  1.00  0.00     0.004 A 
ATOM     10  C   UNL     1       5.348   0.656   1.545  1.00  0.00     0.000 A 
ATOM     11  C   UNL     1       5.046   2.342  -0.117  1.00  0.00     0.000 A 
ATOM     12  C   UNL     1       4.831   1.863   1.161  1.00  0.00     0.000 A 
ENDBRANCH   6   7
ENDBRANCH   1   6
TORSDOF 4
ENDMDL
MODEL 5
REMARK VINA RESULT:      -6.6      1.999      2.516
REMARK SMILES O=C(O)CCc1ccccc1
REMARK SMILES IDX 4 1 2 2 1 3 3 4 5 6 6 7 7 8 11 9 8 10 10 11 9 12
REMARK H PARENT 3 5
REMARK Flexibility Score: inf
ROOT
ATOM      1  C   UNL     1       7.953  -2.240   0.825  1.00  0.00     0.127 C 
ENDROOT
BRANCH   1   2
ATOM      2  C   UNL     1       8.750  -3.367   0.309  1.00  0.00     0.303 C 
ATOM      3  O   UNL     1       9.611  -3.890   1.055  1.00  0.00    -0.252 OA
BRANCH   2   4
ATOM      4  O   UNL     1       8.564  -3.854  -0.970  1.00  0.00    -0.481 OA
ATOM      5  H   UNL     1       8.026  -4.715  -1.183  1.00  0.00     0.296 HD
ENDBRANCH   2   4
ENDBRANCH   1   2
BRANCH   1   6
ATOM      6  C   UNL     1       7.457  -1.452  -0.383  1.00  0.00     0.047 C 
BRANCH   6   7
ATOM      7  C   UNL     1       6.599  -0.319   0.007  1.00  0.00    -0.047 A 
ATOM      8  C   UNL     1       6.067  -0.313   1.291  1.00  0.00     0.004 A 
ATOM      9  C   UNL     1       6.277   0.737  -0.806  1.00  0.00     0.004 A 
ATOM     10  C   UNL     1       5.246   0.738   1.694  1.00  0.00     0.000 A 
ATOM     11  C   UNL     1       5.467   1.792  -0.435  1.00  0.00     0.000 A 
ATOM     12  C   UNL     1       4.952   1.771   0.846  1.00  0.00     0.000 A 
ENDBRANCH   6   7
ENDBRANCH   1   6
TORSDOF 4
ENDMDL
