@<TRIPOS>MOLECULE
/home/cewinharhar/GITHUB/reincatalyze/data/processed/docking_pred/2023-Apr-25-1829_maxeplen10_maxtrainstep200_exh32_gamma099_lrac3e-4_lrcr1e-3/f5fb071253116e33fb6a6057d91faa3d89d34546_ligand_2.pdbqt
 12 12 0 0 0
SMALL
GASTEIGER

@<TRIPOS>ATOM
      1  C          7.9530   -2.2400    0.8250 C.3     1  UNL1        0.1270
      2  C          8.7500   -3.3670    0.3090 C.2     1  UNL1        0.3030
      3  O          9.6110   -3.8900    1.0550 O.2     1  UNL1       -0.2520
      4  O          8.5640   -3.8540   -0.9700 O.3     1  UNL1       -0.4810
      5  H          8.0260   -4.7150   -1.1830 H       1  UNL1        0.2960
      6  C          7.4570   -1.4520   -0.3830 C.3     1  UNL1        0.0470
      7  C          6.5990   -0.3190    0.0070 C.2     1  UNL1       -0.0470
      8  C          6.0670   -0.3130    1.2910 C.2     1  UNL1        0.0040
      9  C          6.2770    0.7370   -0.8060 C.2     1  UNL1        0.0040
     10  C          5.2460    0.7380    1.6940 C.2     1  UNL1        0.0000
     11  C          5.4670    1.7920   -0.4350 C.2     1  UNL1        0.0000
     12  C          4.9520    1.7710    0.8460 C.2     1  UNL1        0.0000
@<TRIPOS>BOND
     1     5     4    1
     2     4     2    1
     3     9    11    1
     4     9     7    2
     5    11    12    2
     6     6     7    1
     7     6     1    1
     8     7     8    1
     9     2     1    1
    10     2     3    2
    11    12    10    1
    12     8    10    2
