@<TRIPOS>MOLECULE
/home/cewinharhar/GITHUB/reincatalyze/data/processed/docking_pred/2023-Apr-25-1829_maxeplen10_maxtrainstep200_exh32_gamma099_lrac3e-4_lrcr1e-3/f5fb071253116e33fb6a6057d91faa3d89d34546_ligand_2.pdbqt
 12 12 0 0 0
SMALL
GASTEIGER

@<TRIPOS>ATOM
      1  C          8.4440   -0.6330   -2.1550 C.3     1  UNL1        0.1270
      2  C          8.4590   -1.9040   -2.9000 C.2     1  UNL1        0.3030
      3  O          9.5520   -2.4950   -3.0680 O.2     1  UNL1       -0.2520
      4  O          7.2980   -2.4530   -3.4110 O.3     1  UNL1       -0.4810
      5  H          7.0780   -3.4660   -3.3740 H       1  UNL1        0.2960
      6  C          7.0100   -0.1160   -2.1800 C.3     1  UNL1        0.0470
      7  C          6.4700    0.0900   -0.8240 C.2     1  UNL1       -0.0470
      8  C          6.6010   -0.9430    0.0960 C.2     1  UNL1        0.0040
      9  C          5.8370    1.2290   -0.3960 C.2     1  UNL1        0.0040
     10  C          6.0980   -0.7880    1.3860 C.2     1  UNL1        0.0000
     11  C          5.3290    1.4130    0.8740 C.2     1  UNL1        0.0000
     12  C          5.4730    0.3680    1.7670 C.2     1  UNL1        0.0000
@<TRIPOS>BOND
     1     4     5    1
     2     4     2    1
     3     3     2    2
     4     2     1    1
     5     6     1    1
     6     6     7    1
     7     7     9    2
     8     7     8    1
     9     9    11    1
    10     8    10    2
    11    11    12    2
    12    10    12    1
