@<TRIPOS>MOLECULE
/home/cewinharhar/GITHUB/reincatalyze/data/processed/docking_pred/2023-Apr-25-1829_maxeplen10_maxtrainstep200_exh32_gamma099_lrac3e-4_lrcr1e-3/f5fb071253116e33fb6a6057d91faa3d89d34546_ligand_2.pdbqt
 12 12 0 0 0
SMALL
GASTEIGER

@<TRIPOS>ATOM
      1  C          8.4380   -0.6530   -2.1140 C.3     1  UNL1        0.1270
      2  C          8.4030   -1.9080   -2.8870 C.2     1  UNL1        0.3030
      3  O          7.2910   -2.3870   -3.2120 O.2     1  UNL1       -0.2520
      4  O          9.5640   -2.5580   -3.2580 O.3     1  UNL1       -0.4810
      5  H          9.6540   -3.5900   -3.3020 H       1  UNL1        0.2960
      6  C          7.0220   -0.0880   -2.1120 C.3     1  UNL1        0.0470
      7  C          6.4740    0.0300   -0.7490 C.2     1  UNL1       -0.0470
      8  C          5.8340    1.2130   -0.4020 C.2     1  UNL1        0.0040
      9  C          6.5500   -0.9430    0.2150 C.2     1  UNL1        0.0040
     10  C          5.3070    1.3650    0.8790 C.2     1  UNL1        0.0000
     11  C          6.0380   -0.8230    1.4920 C.2     1  UNL1        0.0000
     12  C          5.4090    0.3650    1.8080 C.2     1  UNL1        0.0000
@<TRIPOS>BOND
     1     5     4    1
     2     4     2    1
     3     3     2    2
     4     2     1    1
     5     1     6    1
     6     6     7    1
     7     7     8    2
     8     7     9    1
     9     8    10    1
    10     9    11    2
    11    10    12    2
    12    11    12    1
