@<TRIPOS>MOLECULE
/home/cewinharhar/GITHUB/reincatalyze/data/processed/docking_pred/2023-Apr-25-1829_maxeplen10_maxtrainstep200_exh32_gamma099_lrac3e-4_lrcr1e-3/f6b0a6d65051a5b20d9eb350202399160ef0f891_ligand_2.pdbqt
 12 12 0 0 0
SMALL
GASTEIGER

@<TRIPOS>ATOM
      1  C          8.2210   -0.7350   -2.1170 C.3     1  UNL1        0.1270
      2  C          8.3440   -1.9560   -2.9330 C.2     1  UNL1        0.3030
      3  O          9.4750   -2.4790   -3.0720 O.2     1  UNL1       -0.2520
      4  O          7.2440   -2.5300   -3.5410 O.3     1  UNL1       -0.4810
      5  H          6.3290   -2.6530   -3.0700 H       1  UNL1        0.2960
      6  C          7.7540   -1.1660   -0.7320 C.3     1  UNL1        0.0470
      7  C          6.7950   -0.2120   -0.1470 C.2     1  UNL1       -0.0470
      8  C          6.3750   -0.4270    1.1600 C.2     1  UNL1        0.0040
      9  C          6.2760    0.8770   -0.7970 C.2     1  UNL1        0.0040
     10  C          5.4640    0.4500    1.7470 C.2     1  UNL1        0.0000
     11  C          5.3730    1.7640   -0.2430 C.2     1  UNL1        0.0000
     12  C          4.9730    1.5240    1.0570 C.2     1  UNL1        0.0000
@<TRIPOS>BOND
     1     4     5    1
     2     4     2    1
     3     3     2    2
     4     2     1    1
     5     1     6    1
     6     9    11    1
     7     9     7    2
     8     6     7    1
     9    11    12    2
    10     7     8    1
    11    12    10    1
    12     8    10    2
