@<TRIPOS>MOLECULE
/home/cewinharhar/GITHUB/reincatalyze/data/processed/docking_pred/2023-Apr-25-1829_maxeplen10_maxtrainstep200_exh32_gamma099_lrac3e-4_lrcr1e-3/f6b0a6d65051a5b20d9eb350202399160ef0f891_ligand_2.pdbqt
 12 12 0 0 0
SMALL
GASTEIGER

@<TRIPOS>ATOM
      1  C          4.9730    1.8060    0.7230 C.3     1  UNL1        0.1270
      2  C          4.4610    1.1260    1.9260 C.2     1  UNL1        0.3030
      3  O          5.1590    0.2300    2.4580 O.2     1  UNL1       -0.2520
      4  O          3.2360    1.4560    2.4730 O.3     1  UNL1       -0.4810
      5  H          2.8420    0.9950    3.3140 H       1  UNL1        0.2960
      6  C          6.4930    1.8330    0.8360 C.3     1  UNL1        0.0470
      7  C          7.1460    1.1280   -0.2800 C.2     1  UNL1       -0.0470
      8  C          6.3670    0.2930   -1.0710 C.2     1  UNL1        0.0040
      9  C          8.4760    1.2270   -0.6010 C.2     1  UNL1        0.0040
     10  C          6.9500   -0.3970   -2.1330 C.2     1  UNL1        0.0000
     11  C          9.0820    0.5580   -1.6450 C.2     1  UNL1        0.0000
     12  C          8.2830   -0.2660   -2.4130 C.2     1  UNL1        0.0000
@<TRIPOS>BOND
     1    12    10    2
     2    12    11    1
     3    10     8    1
     4    11     9    2
     5     8     7    2
     6     9     7    1
     7     7     6    1
     8     1     6    1
     9     1     2    1
    10     2     3    2
    11     2     4    1
    12     4     5    1
