@<TRIPOS>MOLECULE
/home/cewinharhar/GITHUB/reincatalyze/data/processed/docking_pred/2023-Apr-25-1829_maxeplen10_maxtrainstep200_exh32_gamma099_lrac3e-4_lrcr1e-3/f6b0a6d65051a5b20d9eb350202399160ef0f891_ligand_2.pdbqt
 12 12 0 0 0
SMALL
GASTEIGER

@<TRIPOS>ATOM
      1  C          8.3090    0.3610   -2.0570 C.3     1  UNL1        0.1270
      2  C          9.4540    0.4240   -1.1310 C.2     1  UNL1        0.3030
      3  O          9.5040   -0.3870   -0.1750 O.2     1  UNL1       -0.2520
      4  O         10.4640    1.3510   -1.2970 O.3     1  UNL1       -0.4810
      5  H         11.4380    1.0980   -1.5480 H       1  UNL1        0.2960
      6  C          7.2480   -0.5140   -1.3990 C.3     1  UNL1        0.0470
      7  C          6.4110    0.2440   -0.4530 C.2     1  UNL1       -0.0470
      8  C          6.1700   -0.3120    0.7980 C.2     1  UNL1        0.0040
      9  C          5.8400    1.4630   -0.7120 C.2     1  UNL1        0.0040
     10  C          5.3780    0.3720    1.7180 C.2     1  UNL1        0.0000
     11  C          5.0510    2.1650    0.1770 C.2     1  UNL1        0.0000
     12  C          4.8290    1.5870    1.4120 C.2     1  UNL1        0.0000
@<TRIPOS>BOND
     1     1     6    1
     2     1     2    1
     3     5     4    1
     4     6     7    1
     5     4     2    1
     6     2     3    2
     7     9     7    2
     8     9    11    1
     9     7     8    1
    10    11    12    2
    11     8    10    2
    12    12    10    1
