MODEL 1
REMARK VINA RESULT:      -7.3      0.000      0.000
REMARK SMILES O=C(O)CCc1ccccc1
REMARK SMILES IDX 4 1 2 2 1 3 3 4 5 6 6 7 7 8 11 9 8 10 10 11 9 12
REMARK H PARENT 3 5
REMARK Flexibility Score: inf
ROOT
ATOM      1  C   UNL     1       8.451  -0.672  -2.098  1.00  0.00     0.127 C 
ENDROOT
BRANCH   1   2
ATOM      2  C   UNL     1       8.457  -1.911  -2.896  1.00  0.00     0.303 C 
ATOM      3  O   UNL     1       9.546  -2.499  -3.091  1.00  0.00    -0.252 OA
BRANCH   2   4
ATOM      4  O   UNL     1       7.292  -2.431  -3.426  1.00  0.00    -0.481 OA
ATOM      5  H   UNL     1       6.868  -2.101  -4.313  1.00  0.00     0.296 HD
ENDBRANCH   2   4
ENDBRANCH   1   2
BRANCH   1   6
ATOM      6  C   UNL     1       7.025  -0.133  -2.118  1.00  0.00     0.047 C 
BRANCH   6   7
ATOM      7  C   UNL     1       6.477   0.038  -0.761  1.00  0.00    -0.047 A 
ATOM      8  C   UNL     1       6.620  -1.011   0.139  1.00  0.00     0.004 A 
ATOM      9  C   UNL     1       5.825   1.159  -0.313  1.00  0.00     0.004 A 
ATOM     10  C   UNL     1       6.108  -0.889   1.429  1.00  0.00     0.000 A 
ATOM     11  C   UNL     1       5.309   1.309   0.958  1.00  0.00     0.000 A 
ATOM     12  C   UNL     1       5.465   0.250   1.830  1.00  0.00     0.000 A 
ENDBRANCH   6   7
ENDBRANCH   1   6
TORSDOF 4
ENDMDL
MODEL 2
REMARK VINA RESULT:      -7.3      0.104      1.727
REMARK SMILES O=C(O)CCc1ccccc1
REMARK SMILES IDX 4 1 2 2 1 3 3 4 5 6 6 7 7 8 11 9 8 10 10 11 9 12
REMARK H PARENT 3 5
REMARK Flexibility Score: inf
ROOT
ATOM      1  C   UNL     1       8.438  -0.643  -2.123  1.00  0.00     0.127 C 
ENDROOT
BRANCH   1   2
ATOM      2  C   UNL     1       8.402  -1.904  -2.884  1.00  0.00     0.303 C 
ATOM      3  O   UNL     1       7.290  -2.384  -3.207  1.00  0.00    -0.252 OA
BRANCH   2   4
ATOM      4  O   UNL     1       9.563  -2.560  -3.246  1.00  0.00    -0.481 OA
ATOM      5  H   UNL     1      10.454  -2.478  -2.723  1.00  0.00     0.296 HD
ENDBRANCH   2   4
ENDBRANCH   1   2
BRANCH   1   6
ATOM      6  C   UNL     1       7.017  -0.091  -2.103  1.00  0.00     0.047 C 
BRANCH   6   7
ATOM      7  C   UNL     1       6.480   0.013  -0.735  1.00  0.00    -0.047 A 
ATOM      8  C   UNL     1       5.843   1.193  -0.370  1.00  0.00     0.004 A 
ATOM      9  C   UNL     1       6.566  -0.969   0.219  1.00  0.00     0.004 A 
ATOM     10  C   UNL     1       5.328   1.331   0.917  1.00  0.00     0.000 A 
ATOM     11  C   UNL     1       6.065  -0.862   1.501  1.00  0.00     0.000 A 
ATOM     12  C   UNL     1       5.438   0.323   1.835  1.00  0.00     0.000 A 
ENDBRANCH   6   7
ENDBRANCH   1   6
TORSDOF 4
ENDMDL
MODEL 3
REMARK VINA RESULT:      -7.1      0.631      1.068
REMARK SMILES O=C(O)CCc1ccccc1
REMARK SMILES IDX 4 1 2 2 1 3 3 4 5 6 6 7 7 8 11 9 8 10 10 11 9 12
REMARK H PARENT 3 5
REMARK Flexibility Score: inf
ROOT
ATOM      1  C   UNL     1       8.221  -0.735  -2.117  1.00  0.00     0.127 C 
ENDROOT
BRANCH   1   2
ATOM      2  C   UNL     1       8.344  -1.956  -2.933  1.00  0.00     0.303 C 
ATOM      3  O   UNL     1       9.475  -2.479  -3.072  1.00  0.00    -0.252 OA
BRANCH   2   4
ATOM      4  O   UNL     1       7.244  -2.530  -3.541  1.00  0.00    -0.481 OA
ATOM      5  H   UNL     1       6.329  -2.653  -3.070  1.00  0.00     0.296 HD
ENDBRANCH   2   4
ENDBRANCH   1   2
BRANCH   1   6
ATOM      6  C   UNL     1       7.754  -1.166  -0.732  1.00  0.00     0.047 C 
BRANCH   6   7
ATOM      7  C   UNL     1       6.795  -0.212  -0.147  1.00  0.00    -0.047 A 
ATOM      8  C   UNL     1       6.375  -0.427   1.160  1.00  0.00     0.004 A 
ATOM      9  C   UNL     1       6.276   0.877  -0.797  1.00  0.00     0.004 A 
ATOM     10  C   UNL     1       5.464   0.450   1.747  1.00  0.00     0.000 A 
ATOM     11  C   UNL     1       5.373   1.764  -0.243  1.00  0.00     0.000 A 
ATOM     12  C   UNL     1       4.973   1.524   1.057  1.00  0.00     0.000 A 
ENDBRANCH   6   7
ENDBRANCH   1   6
TORSDOF 4
ENDMDL
MODEL 4
REMARK VINA RESULT:      -6.8      3.388      5.090
REMARK SMILES O=C(O)CCc1ccccc1
REMARK SMILES IDX 4 1 2 2 1 3 3 4 5 6 6 7 7 8 11 9 8 10 10 11 9 12
REMARK H PARENT 3 5
REMARK Flexibility Score: inf
ROOT
ATOM      1  C   UNL     1       4.973   1.806   0.723  1.00  0.00     0.127 C 
ENDROOT
BRANCH   1   2
ATOM      2  C   UNL     1       4.461   1.126   1.926  1.00  0.00     0.303 C 
ATOM      3  O   UNL     1       5.159   0.230   2.458  1.00  0.00    -0.252 OA
BRANCH   2   4
ATOM      4  O   UNL     1       3.236   1.456   2.473  1.00  0.00    -0.481 OA
ATOM      5  H   UNL     1       2.842   0.995   3.314  1.00  0.00     0.296 HD
ENDBRANCH   2   4
ENDBRANCH   1   2
BRANCH   1   6
ATOM      6  C   UNL     1       6.493   1.833   0.836  1.00  0.00     0.047 C 
BRANCH   6   7
ATOM      7  C   UNL     1       7.146   1.128  -0.280  1.00  0.00    -0.047 A 
ATOM      8  C   UNL     1       6.367   0.293  -1.071  1.00  0.00     0.004 A 
ATOM      9  C   UNL     1       8.476   1.227  -0.601  1.00  0.00     0.004 A 
ATOM     10  C   UNL     1       6.950  -0.397  -2.133  1.00  0.00     0.000 A 
ATOM     11  C   UNL     1       9.082   0.558  -1.645  1.00  0.00     0.000 A 
ATOM     12  C   UNL     1       8.283  -0.266  -2.413  1.00  0.00     0.000 A 
ENDBRANCH   6   7
ENDBRANCH   1   6
TORSDOF 4
ENDMDL
MODEL 5
REMARK VINA RESULT:      -6.6      1.974      2.350
REMARK SMILES O=C(O)CCc1ccccc1
REMARK SMILES IDX 4 1 2 2 1 3 3 4 5 6 6 7 7 8 11 9 8 10 10 11 9 12
REMARK H PARENT 3 5
REMARK Flexibility Score: inf
ROOT
ATOM      1  C   UNL     1       8.309   0.361  -2.057  1.00  0.00     0.127 C 
ENDROOT
BRANCH   1   2
ATOM      2  C   UNL     1       9.454   0.424  -1.131  1.00  0.00     0.303 C 
ATOM      3  O   UNL     1       9.504  -0.387  -0.175  1.00  0.00    -0.252 OA
BRANCH   2   4
ATOM      4  O   UNL     1      10.464   1.351  -1.297  1.00  0.00    -0.481 OA
ATOM      5  H   UNL     1      11.438   1.098  -1.548  1.00  0.00     0.296 HD
ENDBRANCH   2   4
ENDBRANCH   1   2
BRANCH   1   6
ATOM      6  C   UNL     1       7.248  -0.514  -1.399  1.00  0.00     0.047 C 
BRANCH   6   7
ATOM      7  C   UNL     1       6.411   0.244  -0.453  1.00  0.00    -0.047 A 
ATOM      8  C   UNL     1       6.170  -0.312   0.798  1.00  0.00     0.004 A 
ATOM      9  C   UNL     1       5.840   1.463  -0.712  1.00  0.00     0.004 A 
ATOM     10  C   UNL     1       5.378   0.372   1.718  1.00  0.00     0.000 A 
ATOM     11  C   UNL     1       5.051   2.165   0.177  1.00  0.00     0.000 A 
ATOM     12  C   UNL     1       4.829   1.587   1.412  1.00  0.00     0.000 A 
ENDBRANCH   6   7
ENDBRANCH   1   6
TORSDOF 4
ENDMDL
