@<TRIPOS>MOLECULE
/home/cewinharhar/GITHUB/reincatalyze/data/processed/docking_pred/2023-Apr-25-1829_maxeplen10_maxtrainstep200_exh32_gamma099_lrac3e-4_lrcr1e-3/f6b0a6d65051a5b20d9eb350202399160ef0f891_ligand_2.pdbqt
 12 12 0 0 0
SMALL
GASTEIGER

@<TRIPOS>ATOM
      1  C          8.4510   -0.6720   -2.0980 C.3     1  UNL1        0.1270
      2  C          8.4570   -1.9110   -2.8960 C.2     1  UNL1        0.3030
      3  O          9.5460   -2.4990   -3.0910 O.2     1  UNL1       -0.2520
      4  O          7.2920   -2.4310   -3.4260 O.3     1  UNL1       -0.4810
      5  H          6.8680   -2.1010   -4.3130 H       1  UNL1        0.2960
      6  C          7.0250   -0.1330   -2.1180 C.3     1  UNL1        0.0470
      7  C          6.4770    0.0380   -0.7610 C.2     1  UNL1       -0.0470
      8  C          6.6200   -1.0110    0.1390 C.2     1  UNL1        0.0040
      9  C          5.8250    1.1590   -0.3130 C.2     1  UNL1        0.0040
     10  C          6.1080   -0.8890    1.4290 C.2     1  UNL1        0.0000
     11  C          5.3090    1.3090    0.9580 C.2     1  UNL1        0.0000
     12  C          5.4650    0.2500    1.8300 C.2     1  UNL1        0.0000
@<TRIPOS>BOND
     1     5     4    1
     2     4     2    1
     3     3     2    2
     4     2     1    1
     5     6     1    1
     6     6     7    1
     7     7     9    2
     8     7     8    1
     9     9    11    1
    10     8    10    2
    11    11    12    2
    12    10    12    1
