@<TRIPOS>MOLECULE
/home/cewinharhar/GITHUB/reincatalyze/data/processed/docking_pred/2023-Apr-25-1829_maxeplen10_maxtrainstep200_exh32_gamma099_lrac3e-4_lrcr1e-3/f74925e0f2dbd9eb14447f51d5c862455f02ecd6_ligand_2.pdbqt
 12 12 0 0 0
SMALL
GASTEIGER

@<TRIPOS>ATOM
      1  C          8.4390   -0.6720   -2.0830 C.3     1  UNL1        0.1270
      2  C          8.4080   -1.9200   -2.8660 C.2     1  UNL1        0.3030
      3  O          7.2980   -2.3960   -3.2020 O.2     1  UNL1       -0.2520
      4  O          9.5710   -2.5690   -3.2330 O.3     1  UNL1       -0.4810
      5  H         10.2640   -2.1730   -3.8940 H       1  UNL1        0.2960
      6  C          7.0410   -0.0690   -2.1460 C.3     1  UNL1        0.0470
      7  C          6.4670    0.1450   -0.8050 C.2     1  UNL1       -0.0470
      8  C          6.5910   -0.8760    0.1290 C.2     1  UNL1        0.0040
      9  C          5.8100    1.2790   -0.4040 C.2     1  UNL1        0.0040
     10  C          6.0560   -0.7140    1.4060 C.2     1  UNL1        0.0000
     11  C          5.2690    1.4700    0.8520 C.2     1  UNL1        0.0000
     12  C          5.4070    0.4370    1.7590 C.2     1  UNL1        0.0000
@<TRIPOS>BOND
     1     5     4    1
     2     4     2    1
     3     3     2    2
     4     2     1    1
     5     6     1    1
     6     6     7    1
     7     7     9    2
     8     7     8    1
     9     9    11    1
    10     8    10    2
    11    11    12    2
    12    10    12    1
