@<TRIPOS>MOLECULE
/home/cewinharhar/GITHUB/reincatalyze/data/processed/docking_pred/2023-Apr-25-1829_maxeplen10_maxtrainstep200_exh32_gamma099_lrac3e-4_lrcr1e-3/f74925e0f2dbd9eb14447f51d5c862455f02ecd6_ligand_2.pdbqt
 12 12 0 0 0
SMALL
GASTEIGER

@<TRIPOS>ATOM
      1  C          7.9850   -2.2680    0.8170 C.3     1  UNL1        0.1270
      2  C          8.7810   -3.3950    0.2990 C.2     1  UNL1        0.3030
      3  O          9.6470   -3.9150    1.0410 O.2     1  UNL1       -0.2520
      4  O          8.5890   -3.8840   -0.9790 O.3     1  UNL1       -0.4810
      5  H          8.4860   -3.2800   -1.8140 H       1  UNL1        0.2960
      6  C          7.5350   -1.4470   -0.3860 C.3     1  UNL1        0.0470
      7  C          6.6560   -0.3300    0.0010 C.2     1  UNL1       -0.0470
      8  C          6.1370   -0.3220    1.2910 C.2     1  UNL1        0.0040
      9  C          6.2990    0.7100   -0.8190 C.2     1  UNL1        0.0040
     10  C          5.2960    0.7140    1.6920 C.2     1  UNL1        0.0000
     11  C          5.4690    1.7500   -0.4510 C.2     1  UNL1        0.0000
     12  C          4.9690    1.7300    0.8370 C.2     1  UNL1        0.0000
@<TRIPOS>BOND
     1     5     4    1
     2     4     2    1
     3     9    11    1
     4     9     7    2
     5    11    12    2
     6     6     7    1
     7     6     1    1
     8     7     8    1
     9     2     1    1
    10     2     3    2
    11    12    10    1
    12     8    10    2
