@<TRIPOS>MOLECULE
/home/cewinharhar/GITHUB/reincatalyze/data/processed/docking_pred/2023-Apr-25-1829_maxeplen10_maxtrainstep200_exh32_gamma099_lrac3e-4_lrcr1e-3/f74925e0f2dbd9eb14447f51d5c862455f02ecd6_ligand_2.pdbqt
 12 12 0 0 0
SMALL
GASTEIGER

@<TRIPOS>ATOM
      1  C          8.4650   -0.6810   -2.0940 C.3     1  UNL1        0.1270
      2  C          8.4690   -1.9230   -2.8870 C.2     1  UNL1        0.3030
      3  O          9.5600   -2.5020   -3.0970 O.2     1  UNL1       -0.2520
      4  O          7.3010   -2.4550   -3.3970 O.3     1  UNL1       -0.4810
      5  H          6.6500   -1.9280   -4.0090 H       1  UNL1        0.2960
      6  C          7.0360   -0.1480   -2.1040 C.3     1  UNL1        0.0470
      7  C          6.4860   -0.0080   -0.7440 C.2     1  UNL1       -0.0470
      8  C          5.8590    1.1870   -0.4120 C.2     1  UNL1        0.0040
      9  C          6.5490   -0.9700    0.2310 C.2     1  UNL1        0.0040
     10  C          5.3320    1.3590    0.8660 C.2     1  UNL1        0.0000
     11  C          6.0360   -0.8290    1.5060 C.2     1  UNL1        0.0000
     12  C          5.4200    0.3700    1.8070 C.2     1  UNL1        0.0000
@<TRIPOS>BOND
     1     5     4    1
     2     4     2    1
     3     3     2    2
     4     2     1    1
     5     6     1    1
     6     6     7    1
     7     7     8    2
     8     7     9    1
     9     8    10    1
    10     9    11    2
    11    10    12    2
    12    11    12    1
