MODEL 1
REMARK VINA RESULT:      -7.3      0.000      0.000
REMARK SMILES O=C(O)CCc1ccccc1
REMARK SMILES IDX 4 1 2 2 1 3 3 4 5 6 6 7 7 8 11 9 8 10 10 11 9 12
REMARK H PARENT 3 5
REMARK Flexibility Score: inf
ROOT
ATOM      1  C   UNL     1       8.465  -0.681  -2.094  1.00  0.00     0.127 C 
ENDROOT
BRANCH   1   2
ATOM      2  C   UNL     1       8.469  -1.923  -2.887  1.00  0.00     0.303 C 
ATOM      3  O   UNL     1       9.560  -2.502  -3.097  1.00  0.00    -0.252 OA
BRANCH   2   4
ATOM      4  O   UNL     1       7.301  -2.455  -3.397  1.00  0.00    -0.481 OA
ATOM      5  H   UNL     1       6.650  -1.928  -4.009  1.00  0.00     0.296 HD
ENDBRANCH   2   4
ENDBRANCH   1   2
BRANCH   1   6
ATOM      6  C   UNL     1       7.036  -0.148  -2.104  1.00  0.00     0.047 C 
BRANCH   6   7
ATOM      7  C   UNL     1       6.486  -0.008  -0.744  1.00  0.00    -0.047 A 
ATOM      8  C   UNL     1       5.859   1.187  -0.412  1.00  0.00     0.004 A 
ATOM      9  C   UNL     1       6.549  -0.970   0.231  1.00  0.00     0.004 A 
ATOM     10  C   UNL     1       5.332   1.359   0.866  1.00  0.00     0.000 A 
ATOM     11  C   UNL     1       6.036  -0.829   1.506  1.00  0.00     0.000 A 
ATOM     12  C   UNL     1       5.420   0.370   1.807  1.00  0.00     0.000 A 
ENDBRANCH   6   7
ENDBRANCH   1   6
TORSDOF 4
ENDMDL
MODEL 2
REMARK VINA RESULT:      -7.2      0.129      1.729
REMARK SMILES O=C(O)CCc1ccccc1
REMARK SMILES IDX 4 1 2 2 1 3 3 4 5 6 6 7 7 8 11 9 8 10 10 11 9 12
REMARK H PARENT 3 5
REMARK Flexibility Score: inf
ROOT
ATOM      1  C   UNL     1       8.439  -0.672  -2.083  1.00  0.00     0.127 C 
ENDROOT
BRANCH   1   2
ATOM      2  C   UNL     1       8.408  -1.920  -2.866  1.00  0.00     0.303 C 
ATOM      3  O   UNL     1       7.298  -2.396  -3.202  1.00  0.00    -0.252 OA
BRANCH   2   4
ATOM      4  O   UNL     1       9.571  -2.569  -3.233  1.00  0.00    -0.481 OA
ATOM      5  H   UNL     1      10.264  -2.173  -3.894  1.00  0.00     0.296 HD
ENDBRANCH   2   4
ENDBRANCH   1   2
BRANCH   1   6
ATOM      6  C   UNL     1       7.041  -0.069  -2.146  1.00  0.00     0.047 C 
BRANCH   6   7
ATOM      7  C   UNL     1       6.467   0.145  -0.805  1.00  0.00    -0.047 A 
ATOM      8  C   UNL     1       6.591  -0.876   0.129  1.00  0.00     0.004 A 
ATOM      9  C   UNL     1       5.810   1.279  -0.404  1.00  0.00     0.004 A 
ATOM     10  C   UNL     1       6.056  -0.714   1.406  1.00  0.00     0.000 A 
ATOM     11  C   UNL     1       5.269   1.470   0.852  1.00  0.00     0.000 A 
ATOM     12  C   UNL     1       5.407   0.437   1.759  1.00  0.00     0.000 A 
ENDBRANCH   6   7
ENDBRANCH   1   6
TORSDOF 4
ENDMDL
MODEL 3
REMARK VINA RESULT:      -7.2      0.616      1.601
REMARK SMILES O=C(O)CCc1ccccc1
REMARK SMILES IDX 4 1 2 2 1 3 3 4 5 6 6 7 7 8 11 9 8 10 10 11 9 12
REMARK H PARENT 3 5
REMARK Flexibility Score: inf
ROOT
ATOM      1  C   UNL     1       8.256  -0.847  -1.988  1.00  0.00     0.127 C 
ENDROOT
BRANCH   1   2
ATOM      2  C   UNL     1       8.375  -2.009  -2.886  1.00  0.00     0.303 C 
ATOM      3  O   UNL     1       9.505  -2.521  -3.066  1.00  0.00    -0.252 OA
BRANCH   2   4
ATOM      4  O   UNL     1       7.272  -2.542  -3.525  1.00  0.00    -0.481 OA
ATOM      5  H   UNL     1       6.294  -2.340  -3.245  1.00  0.00     0.296 HD
ENDBRANCH   2   4
ENDBRANCH   1   2
BRANCH   1   6
ATOM      6  C   UNL     1       7.539  -1.324  -0.730  1.00  0.00     0.047 C 
BRANCH   6   7
ATOM      7  C   UNL     1       6.661  -0.286  -0.163  1.00  0.00    -0.047 A 
ATOM      8  C   UNL     1       6.195  -0.460   1.134  1.00  0.00     0.004 A 
ATOM      9  C   UNL     1       6.257   0.847  -0.823  1.00  0.00     0.004 A 
ATOM     10  C   UNL     1       5.356   0.497   1.703  1.00  0.00     0.000 A 
ATOM     11  C   UNL     1       5.428   1.812  -0.287  1.00  0.00     0.000 A 
ATOM     12  C   UNL     1       4.980   1.611   1.004  1.00  0.00     0.000 A 
ENDBRANCH   6   7
ENDBRANCH   1   6
TORSDOF 4
ENDMDL
MODEL 4
REMARK VINA RESULT:      -6.7      3.370      5.066
REMARK SMILES O=C(O)CCc1ccccc1
REMARK SMILES IDX 4 1 2 2 1 3 3 4 5 6 6 7 7 8 11 9 8 10 10 11 9 12
REMARK H PARENT 3 5
REMARK Flexibility Score: inf
ROOT
ATOM      1  C   UNL     1       5.005   1.772   0.739  1.00  0.00     0.127 C 
ENDROOT
BRANCH   1   2
ATOM      2  C   UNL     1       4.463   1.108   1.937  1.00  0.00     0.303 C 
ATOM      3  O   UNL     1       5.137   0.203   2.484  1.00  0.00    -0.252 OA
BRANCH   2   4
ATOM      4  O   UNL     1       3.237   1.463   2.465  1.00  0.00    -0.481 OA
ATOM      5  H   UNL     1       2.331   1.139   2.079  1.00  0.00     0.296 HD
ENDBRANCH   2   4
ENDBRANCH   1   2
BRANCH   1   6
ATOM      6  C   UNL     1       6.524   1.688   0.828  1.00  0.00     0.047 C 
BRANCH   6   7
ATOM      7  C   UNL     1       7.105   0.918  -0.286  1.00  0.00    -0.047 A 
ATOM      8  C   UNL     1       8.410   1.205  -0.669  1.00  0.00     0.004 A 
ATOM      9  C   UNL     1       6.452  -0.063  -0.987  1.00  0.00     0.004 A 
ATOM     10  C   UNL     1       8.991   0.503  -1.723  1.00  0.00     0.000 A 
ATOM     11  C   UNL     1       7.001  -0.776  -2.034  1.00  0.00     0.000 A 
ATOM     12  C   UNL     1       8.299  -0.469  -2.392  1.00  0.00     0.000 A 
ENDBRANCH   6   7
ENDBRANCH   1   6
TORSDOF 4
ENDMDL
MODEL 5
REMARK VINA RESULT:      -6.6      2.028      2.731
REMARK SMILES O=C(O)CCc1ccccc1
REMARK SMILES IDX 4 1 2 2 1 3 3 4 5 6 6 7 7 8 11 9 8 10 10 11 9 12
REMARK H PARENT 3 5
REMARK Flexibility Score: inf
ROOT
ATOM      1  C   UNL     1       7.985  -2.268   0.817  1.00  0.00     0.127 C 
ENDROOT
BRANCH   1   2
ATOM      2  C   UNL     1       8.781  -3.395   0.299  1.00  0.00     0.303 C 
ATOM      3  O   UNL     1       9.647  -3.915   1.041  1.00  0.00    -0.252 OA
BRANCH   2   4
ATOM      4  O   UNL     1       8.589  -3.884  -0.979  1.00  0.00    -0.481 OA
ATOM      5  H   UNL     1       8.486  -3.280  -1.814  1.00  0.00     0.296 HD
ENDBRANCH   2   4
ENDBRANCH   1   2
BRANCH   1   6
ATOM      6  C   UNL     1       7.535  -1.447  -0.386  1.00  0.00     0.047 C 
BRANCH   6   7
ATOM      7  C   UNL     1       6.656  -0.330   0.001  1.00  0.00    -0.047 A 
ATOM      8  C   UNL     1       6.137  -0.322   1.291  1.00  0.00     0.004 A 
ATOM      9  C   UNL     1       6.299   0.710  -0.819  1.00  0.00     0.004 A 
ATOM     10  C   UNL     1       5.296   0.714   1.692  1.00  0.00     0.000 A 
ATOM     11  C   UNL     1       5.469   1.750  -0.451  1.00  0.00     0.000 A 
ATOM     12  C   UNL     1       4.969   1.730   0.837  1.00  0.00     0.000 A 
ENDBRANCH   6   7
ENDBRANCH   1   6
TORSDOF 4
ENDMDL
