@<TRIPOS>MOLECULE
/home/cewinharhar/GITHUB/reincatalyze/data/processed/docking_pred/2023-Apr-25-1829_maxeplen10_maxtrainstep200_exh32_gamma099_lrac3e-4_lrcr1e-3/f74925e0f2dbd9eb14447f51d5c862455f02ecd6_ligand_2.pdbqt
 12 12 0 0 0
SMALL
GASTEIGER

@<TRIPOS>ATOM
      1  C          5.0050    1.7720    0.7390 C.3     1  UNL1        0.1270
      2  C          4.4630    1.1080    1.9370 C.2     1  UNL1        0.3030
      3  O          5.1370    0.2030    2.4840 O.2     1  UNL1       -0.2520
      4  O          3.2370    1.4630    2.4650 O.3     1  UNL1       -0.4810
      5  H          2.3310    1.1390    2.0790 H       1  UNL1        0.2960
      6  C          6.5240    1.6880    0.8280 C.3     1  UNL1        0.0470
      7  C          7.1050    0.9180   -0.2860 C.2     1  UNL1       -0.0470
      8  C          8.4100    1.2050   -0.6690 C.2     1  UNL1        0.0040
      9  C          6.4520   -0.0630   -0.9870 C.2     1  UNL1        0.0040
     10  C          8.9910    0.5030   -1.7230 C.2     1  UNL1        0.0000
     11  C          7.0010   -0.7760   -2.0340 C.2     1  UNL1        0.0000
     12  C          8.2990   -0.4690   -2.3920 C.2     1  UNL1        0.0000
@<TRIPOS>BOND
     1    12    11    2
     2    12    10    1
     3    11     9    1
     4    10     8    2
     5     9     7    2
     6     8     7    1
     7     7     6    1
     8     1     6    1
     9     1     2    1
    10     2     4    1
    11     2     3    2
    12     5     4    1
