@<TRIPOS>MOLECULE
/home/cewinharhar/GITHUB/reincatalyze/data/processed/docking_pred/2023-Apr-25-1829_maxeplen10_maxtrainstep200_exh32_gamma099_lrac3e-4_lrcr1e-3/f74925e0f2dbd9eb14447f51d5c862455f02ecd6_ligand_2.pdbqt
 12 12 0 0 0
SMALL
GASTEIGER

@<TRIPOS>ATOM
      1  C          8.2560   -0.8470   -1.9880 C.3     1  UNL1        0.1270
      2  C          8.3750   -2.0090   -2.8860 C.2     1  UNL1        0.3030
      3  O          9.5050   -2.5210   -3.0660 O.2     1  UNL1       -0.2520
      4  O          7.2720   -2.5420   -3.5250 O.3     1  UNL1       -0.4810
      5  H          6.2940   -2.3400   -3.2450 H       1  UNL1        0.2960
      6  C          7.5390   -1.3240   -0.7300 C.3     1  UNL1        0.0470
      7  C          6.6610   -0.2860   -0.1630 C.2     1  UNL1       -0.0470
      8  C          6.1950   -0.4600    1.1340 C.2     1  UNL1        0.0040
      9  C          6.2570    0.8470   -0.8230 C.2     1  UNL1        0.0040
     10  C          5.3560    0.4970    1.7030 C.2     1  UNL1        0.0000
     11  C          5.4280    1.8120   -0.2870 C.2     1  UNL1        0.0000
     12  C          4.9800    1.6110    1.0040 C.2     1  UNL1        0.0000
@<TRIPOS>BOND
     1     4     5    1
     2     4     2    1
     3     3     2    2
     4     2     1    1
     5     1     6    1
     6     9    11    1
     7     9     7    2
     8     6     7    1
     9    11    12    2
    10     7     8    1
    11    12    10    1
    12     8    10    2
