@<TRIPOS>MOLECULE
/home/cewinharhar/GITHUB/reincatalyze/data/processed/docking_pred/2023-Apr-25-1829_maxeplen10_maxtrainstep200_exh32_gamma099_lrac3e-4_lrcr1e-3/f9550a52c30547fdb3e6e224a3b8a38c5560e948_ligand_2.pdbqt
 12 12 0 0 0
SMALL
GASTEIGER

@<TRIPOS>ATOM
      1  C          7.3220   -1.3820   -2.1720 C.3     1  UNL1        0.1270
      2  C          8.7610   -1.3700   -2.4880 C.2     1  UNL1        0.3030
      3  O          9.2320   -2.2940   -3.1930 O.2     1  UNL1       -0.2520
      4  O          9.5920   -0.3680   -2.0270 O.3     1  UNL1       -0.4810
      5  H          9.6880    0.5550   -2.4900 H       1  UNL1        0.2960
      6  C          7.1980   -1.4260   -0.6530 C.3     1  UNL1        0.0470
      7  C          6.4340   -0.2820   -0.1240 C.2     1  UNL1       -0.0470
      8  C          5.9730   -0.3530    1.1850 C.2     1  UNL1        0.0040
      9  C          6.1330    0.8550   -0.8290 C.2     1  UNL1        0.0040
     10  C          5.2410    0.7060    1.7190 C.2     1  UNL1        0.0000
     11  C          5.4120    1.9200   -0.3290 C.2     1  UNL1        0.0000
     12  C          4.9660    1.8210    0.9750 C.2     1  UNL1        0.0000
@<TRIPOS>BOND
     1     3     2    2
     2     5     4    1
     3     2     1    1
     4     2     4    1
     5     1     6    1
     6     9    11    1
     7     9     7    2
     8     6     7    1
     9    11    12    2
    10     7     8    1
    11    12    10    1
    12     8    10    2
