MODEL 1
REMARK VINA RESULT:      -7.3      0.000      0.000
REMARK SMILES O=C(O)CCc1ccccc1
REMARK SMILES IDX 4 1 2 2 1 3 3 4 5 6 6 7 7 8 11 9 8 10 10 11 9 12
REMARK H PARENT 3 5
REMARK Flexibility Score: inf
ROOT
ATOM      1  C   UNL     1       8.458  -0.583  -2.198  1.00  0.00     0.127 C 
ENDROOT
BRANCH   1   2
ATOM      2  C   UNL     1       8.467  -1.875  -2.905  1.00  0.00     0.303 C 
ATOM      3  O   UNL     1       9.557  -2.478  -3.051  1.00  0.00    -0.252 OA
BRANCH   2   4
ATOM      4  O   UNL     1       7.305  -2.431  -3.405  1.00  0.00    -0.481 OA
ATOM      5  H   UNL     1       6.358  -2.180  -3.066  1.00  0.00     0.296 HD
ENDBRANCH   2   4
ENDBRANCH   1   2
BRANCH   1   6
ATOM      6  C   UNL     1       7.016  -0.089  -2.187  1.00  0.00     0.047 C 
BRANCH   6   7
ATOM      7  C   UNL     1       6.484   0.042  -0.819  1.00  0.00    -0.047 A 
ATOM      8  C   UNL     1       5.842   1.227  -0.478  1.00  0.00     0.004 A 
ATOM      9  C   UNL     1       6.577  -0.918   0.155  1.00  0.00     0.004 A 
ATOM     10  C   UNL     1       5.332   1.391   0.809  1.00  0.00     0.000 A 
ATOM     11  C   UNL     1       6.082  -0.786   1.437  1.00  0.00     0.000 A 
ATOM     12  C   UNL     1       5.450   0.402   1.747  1.00  0.00     0.000 A 
ENDBRANCH   6   7
ENDBRANCH   1   6
TORSDOF 4
ENDMDL
MODEL 2
REMARK VINA RESULT:      -7.2      0.150      1.730
REMARK SMILES O=C(O)CCc1ccccc1
REMARK SMILES IDX 4 1 2 2 1 3 3 4 5 6 6 7 7 8 11 9 8 10 10 11 9 12
REMARK H PARENT 3 5
REMARK Flexibility Score: inf
ROOT
ATOM      1  C   UNL     1       8.451  -0.711  -2.051  1.00  0.00     0.127 C 
ENDROOT
BRANCH   1   2
ATOM      2  C   UNL     1       8.408  -1.933  -2.874  1.00  0.00     0.303 C 
ATOM      3  O   UNL     1       7.293  -2.390  -3.220  1.00  0.00    -0.252 OA
BRANCH   2   4
ATOM      4  O   UNL     1       9.565  -2.575  -3.269  1.00  0.00    -0.481 OA
ATOM      5  H   UNL     1      10.091  -3.233  -2.663  1.00  0.00     0.296 HD
ENDBRANCH   2   4
ENDBRANCH   1   2
BRANCH   1   6
ATOM      6  C   UNL     1       7.076  -0.059  -2.145  1.00  0.00     0.047 C 
BRANCH   6   7
ATOM      7  C   UNL     1       6.477   0.171  -0.819  1.00  0.00    -0.047 A 
ATOM      8  C   UNL     1       6.625  -0.819   0.145  1.00  0.00     0.004 A 
ATOM      9  C   UNL     1       5.775   1.292  -0.458  1.00  0.00     0.004 A 
ATOM     10  C   UNL     1       6.067  -0.641   1.410  1.00  0.00     0.000 A 
ATOM     11  C   UNL     1       5.212   1.497   0.786  1.00  0.00     0.000 A 
ATOM     12  C   UNL     1       5.374   0.496   1.723  1.00  0.00     0.000 A 
ENDBRANCH   6   7
ENDBRANCH   1   6
TORSDOF 4
ENDMDL
MODEL 3
REMARK VINA RESULT:      -7.1      0.630      1.487
REMARK SMILES O=C(O)CCc1ccccc1
REMARK SMILES IDX 4 1 2 2 1 3 3 4 5 6 6 7 7 8 11 9 8 10 10 11 9 12
REMARK H PARENT 3 5
REMARK Flexibility Score: inf
ROOT
ATOM      1  C   UNL     1       8.298  -0.914  -1.861  1.00  0.00     0.127 C 
ENDROOT
BRANCH   1   2
ATOM      2  C   UNL     1       8.347  -2.007  -2.848  1.00  0.00     0.303 C 
ATOM      3  O   UNL     1       7.272  -2.441  -3.324  1.00  0.00    -0.252 OA
BRANCH   2   4
ATOM      4  O   UNL     1       9.548  -2.556  -3.254  1.00  0.00    -0.481 OA
ATOM      5  H   UNL     1      10.281  -2.882  -2.597  1.00  0.00     0.296 HD
ENDBRANCH   2   4
ENDBRANCH   1   2
BRANCH   1   6
ATOM      6  C   UNL     1       7.513  -1.429  -0.660  1.00  0.00     0.047 C 
BRANCH   6   7
ATOM      7  C   UNL     1       6.639  -0.393  -0.082  1.00  0.00    -0.047 A 
ATOM      8  C   UNL     1       6.319   0.707  -0.869  1.00  0.00     0.004 A 
ATOM      9  C   UNL     1       6.115  -0.425   1.185  1.00  0.00     0.004 A 
ATOM     10  C   UNL     1       5.501   1.711  -0.355  1.00  0.00     0.000 A 
ATOM     11  C   UNL     1       5.301   0.552   1.722  1.00  0.00     0.000 A 
ATOM     12  C   UNL     1       5.002   1.634   0.917  1.00  0.00     0.000 A 
ENDBRANCH   6   7
ENDBRANCH   1   6
TORSDOF 4
ENDMDL
MODEL 4
REMARK VINA RESULT:      -6.8      1.023      1.986
REMARK SMILES O=C(O)CCc1ccccc1
REMARK SMILES IDX 4 1 2 2 1 3 3 4 5 6 6 7 7 8 11 9 8 10 10 11 9 12
REMARK H PARENT 3 5
REMARK Flexibility Score: inf
ROOT
ATOM      1  C   UNL     1       7.322  -1.382  -2.172  1.00  0.00     0.127 C 
ENDROOT
BRANCH   1   2
ATOM      2  C   UNL     1       8.761  -1.370  -2.488  1.00  0.00     0.303 C 
ATOM      3  O   UNL     1       9.232  -2.294  -3.193  1.00  0.00    -0.252 OA
BRANCH   2   4
ATOM      4  O   UNL     1       9.592  -0.368  -2.027  1.00  0.00    -0.481 OA
ATOM      5  H   UNL     1       9.688   0.555  -2.490  1.00  0.00     0.296 HD
ENDBRANCH   2   4
ENDBRANCH   1   2
BRANCH   1   6
ATOM      6  C   UNL     1       7.198  -1.426  -0.653  1.00  0.00     0.047 C 
BRANCH   6   7
ATOM      7  C   UNL     1       6.434  -0.282  -0.124  1.00  0.00    -0.047 A 
ATOM      8  C   UNL     1       5.973  -0.353   1.185  1.00  0.00     0.004 A 
ATOM      9  C   UNL     1       6.133   0.855  -0.829  1.00  0.00     0.004 A 
ATOM     10  C   UNL     1       5.241   0.706   1.719  1.00  0.00     0.000 A 
ATOM     11  C   UNL     1       5.412   1.920  -0.329  1.00  0.00     0.000 A 
ATOM     12  C   UNL     1       4.966   1.821   0.975  1.00  0.00     0.000 A 
ENDBRANCH   6   7
ENDBRANCH   1   6
TORSDOF 4
ENDMDL
MODEL 5
REMARK VINA RESULT:      -6.8      3.375      5.082
REMARK SMILES O=C(O)CCc1ccccc1
REMARK SMILES IDX 4 1 2 2 1 3 3 4 5 6 6 7 7 8 11 9 8 10 10 11 9 12
REMARK H PARENT 3 5
REMARK Flexibility Score: inf
ROOT
ATOM      1  C   UNL     1       4.980   1.781   0.725  1.00  0.00     0.127 C 
ENDROOT
BRANCH   1   2
ATOM      2  C   UNL     1       4.464   1.114   1.933  1.00  0.00     0.303 C 
ATOM      3  O   UNL     1       5.158   0.222   2.476  1.00  0.00    -0.252 OA
BRANCH   2   4
ATOM      4  O   UNL     1       3.238   1.453   2.474  1.00  0.00    -0.481 OA
ATOM      5  H   UNL     1       2.903   1.110   3.394  1.00  0.00     0.296 HD
ENDBRANCH   2   4
ENDBRANCH   1   2
BRANCH   1   6
ATOM      6  C   UNL     1       6.500   1.804   0.841  1.00  0.00     0.047 C 
BRANCH   6   7
ATOM      7  C   UNL     1       7.154   1.103  -0.279  1.00  0.00    -0.047 A 
ATOM      8  C   UNL     1       6.379   0.254  -1.060  1.00  0.00     0.004 A 
ATOM      9  C   UNL     1       8.479   1.220  -0.611  1.00  0.00     0.004 A 
ATOM     10  C   UNL     1       6.963  -0.431  -2.124  1.00  0.00     0.000 A 
ATOM     11  C   UNL     1       9.085   0.555  -1.659  1.00  0.00     0.000 A 
ATOM     12  C   UNL     1       8.291  -0.282  -2.417  1.00  0.00     0.000 A 
ENDBRANCH   6   7
ENDBRANCH   1   6
TORSDOF 4
ENDMDL
