@<TRIPOS>MOLECULE
/home/cewinharhar/GITHUB/reincatalyze/data/processed/docking_pred/2023-Apr-25-1829_maxeplen10_maxtrainstep200_exh32_gamma099_lrac3e-4_lrcr1e-3/f9550a52c30547fdb3e6e224a3b8a38c5560e948_ligand_2.pdbqt
 12 12 0 0 0
SMALL
GASTEIGER

@<TRIPOS>ATOM
      1  C          8.4510   -0.7110   -2.0510 C.3     1  UNL1        0.1270
      2  C          8.4080   -1.9330   -2.8740 C.2     1  UNL1        0.3030
      3  O          7.2930   -2.3900   -3.2200 O.2     1  UNL1       -0.2520
      4  O          9.5650   -2.5750   -3.2690 O.3     1  UNL1       -0.4810
      5  H         10.0910   -3.2330   -2.6630 H       1  UNL1        0.2960
      6  C          7.0760   -0.0590   -2.1450 C.3     1  UNL1        0.0470
      7  C          6.4770    0.1710   -0.8190 C.2     1  UNL1       -0.0470
      8  C          6.6250   -0.8190    0.1450 C.2     1  UNL1        0.0040
      9  C          5.7750    1.2920   -0.4580 C.2     1  UNL1        0.0040
     10  C          6.0670   -0.6410    1.4100 C.2     1  UNL1        0.0000
     11  C          5.2120    1.4970    0.7860 C.2     1  UNL1        0.0000
     12  C          5.3740    0.4960    1.7230 C.2     1  UNL1        0.0000
@<TRIPOS>BOND
     1     4     2    1
     2     4     5    1
     3     3     2    2
     4     2     1    1
     5     6     1    1
     6     6     7    1
     7     7     9    2
     8     7     8    1
     9     9    11    1
    10     8    10    2
    11    11    12    2
    12    10    12    1
