@<TRIPOS>MOLECULE
/home/cewinharhar/GITHUB/reincatalyze/data/processed/docking_pred/2023-Apr-25-1829_maxeplen10_maxtrainstep200_exh32_gamma099_lrac3e-4_lrcr1e-3/f9550a52c30547fdb3e6e224a3b8a38c5560e948_ligand_2.pdbqt
 12 12 0 0 0
SMALL
GASTEIGER

@<TRIPOS>ATOM
      1  C          8.4580   -0.5830   -2.1980 C.3     1  UNL1        0.1270
      2  C          8.4670   -1.8750   -2.9050 C.2     1  UNL1        0.3030
      3  O          9.5570   -2.4780   -3.0510 O.2     1  UNL1       -0.2520
      4  O          7.3050   -2.4310   -3.4050 O.3     1  UNL1       -0.4810
      5  H          6.3580   -2.1800   -3.0660 H       1  UNL1        0.2960
      6  C          7.0160   -0.0890   -2.1870 C.3     1  UNL1        0.0470
      7  C          6.4840    0.0420   -0.8190 C.2     1  UNL1       -0.0470
      8  C          5.8420    1.2270   -0.4780 C.2     1  UNL1        0.0040
      9  C          6.5770   -0.9180    0.1550 C.2     1  UNL1        0.0040
     10  C          5.3320    1.3910    0.8090 C.2     1  UNL1        0.0000
     11  C          6.0820   -0.7860    1.4370 C.2     1  UNL1        0.0000
     12  C          5.4500    0.4020    1.7470 C.2     1  UNL1        0.0000
@<TRIPOS>BOND
     1     4     5    1
     2     4     2    1
     3     3     2    2
     4     2     1    1
     5     1     6    1
     6     6     7    1
     7     7     8    2
     8     7     9    1
     9     8    10    1
    10     9    11    2
    11    10    12    2
    12    11    12    1
