@<TRIPOS>MOLECULE
/home/cewinharhar/GITHUB/reincatalyze/data/processed/docking_pred/2023-Apr-25-1829_maxeplen10_maxtrainstep200_exh32_gamma099_lrac3e-4_lrcr1e-3/f9550a52c30547fdb3e6e224a3b8a38c5560e948_ligand_2.pdbqt
 12 12 0 0 0
SMALL
GASTEIGER

@<TRIPOS>ATOM
      1  C          4.9800    1.7810    0.7250 C.3     1  UNL1        0.1270
      2  C          4.4640    1.1140    1.9330 C.2     1  UNL1        0.3030
      3  O          5.1580    0.2220    2.4760 O.2     1  UNL1       -0.2520
      4  O          3.2380    1.4530    2.4740 O.3     1  UNL1       -0.4810
      5  H          2.9030    1.1100    3.3940 H       1  UNL1        0.2960
      6  C          6.5000    1.8040    0.8410 C.3     1  UNL1        0.0470
      7  C          7.1540    1.1030   -0.2790 C.2     1  UNL1       -0.0470
      8  C          6.3790    0.2540   -1.0600 C.2     1  UNL1        0.0040
      9  C          8.4790    1.2200   -0.6110 C.2     1  UNL1        0.0040
     10  C          6.9630   -0.4310   -2.1240 C.2     1  UNL1        0.0000
     11  C          9.0850    0.5550   -1.6590 C.2     1  UNL1        0.0000
     12  C          8.2910   -0.2820   -2.4170 C.2     1  UNL1        0.0000
@<TRIPOS>BOND
     1    12    10    2
     2    12    11    1
     3    10     8    1
     4    11     9    2
     5     8     7    2
     6     9     7    1
     7     7     6    1
     8     1     6    1
     9     1     2    1
    10     2     4    1
    11     2     3    2
    12     4     5    1
