@<TRIPOS>MOLECULE
/home/cewinharhar/GITHUB/reincatalyze/data/processed/docking_pred/2023-Apr-25-1829_maxeplen10_maxtrainstep200_exh32_gamma099_lrac3e-4_lrcr1e-3/f9550a52c30547fdb3e6e224a3b8a38c5560e948_ligand_2.pdbqt
 12 12 0 0 0
SMALL
GASTEIGER

@<TRIPOS>ATOM
      1  C          8.2980   -0.9140   -1.8610 C.3     1  UNL1        0.1270
      2  C          8.3470   -2.0070   -2.8480 C.2     1  UNL1        0.3030
      3  O          7.2720   -2.4410   -3.3240 O.2     1  UNL1       -0.2520
      4  O          9.5480   -2.5560   -3.2540 O.3     1  UNL1       -0.4810
      5  H         10.2810   -2.8820   -2.5970 H       1  UNL1        0.2960
      6  C          7.5130   -1.4290   -0.6600 C.3     1  UNL1        0.0470
      7  C          6.6390   -0.3930   -0.0820 C.2     1  UNL1       -0.0470
      8  C          6.3190    0.7070   -0.8690 C.2     1  UNL1        0.0040
      9  C          6.1150   -0.4250    1.1850 C.2     1  UNL1        0.0040
     10  C          5.5010    1.7110   -0.3550 C.2     1  UNL1        0.0000
     11  C          5.3010    0.5520    1.7220 C.2     1  UNL1        0.0000
     12  C          5.0020    1.6340    0.9170 C.2     1  UNL1        0.0000
@<TRIPOS>BOND
     1     3     2    2
     2     4     2    1
     3     4     5    1
     4     2     1    1
     5     1     6    1
     6     8    10    1
     7     8     7    2
     8     6     7    1
     9    10    12    2
    10     7     9    1
    11    12    11    1
    12     9    11    2
