@<TRIPOS>MOLECULE
/home/cewinharhar/GITHUB/reincatalyze/data/processed/docking_pred/2023-Apr-25-1829_maxeplen10_maxtrainstep200_exh32_gamma099_lrac3e-4_lrcr1e-3/ff0363d9ee1910d446632d9597fe578fef33cb13_ligand_2.pdbqt
 12 12 0 0 0
SMALL
GASTEIGER

@<TRIPOS>ATOM
      1  C          8.4900   -0.5730   -2.1980 C.3     1  UNL1        0.1270
      2  C          8.5160   -1.8670   -2.9030 C.2     1  UNL1        0.3030
      3  O          9.6190   -2.4380   -3.0790 O.2     1  UNL1       -0.2520
      4  O          7.3570   -2.4570   -3.3680 O.3     1  UNL1       -0.4810
      5  H          6.5030   -2.5740   -2.7920 H       1  UNL1        0.2960
      6  C          7.0500   -0.0730   -2.2330 C.3     1  UNL1        0.0470
      7  C          6.4890    0.1020   -0.8820 C.2     1  UNL1       -0.0470
      8  C          5.8310    1.2920   -0.5960 C.2     1  UNL1        0.0040
      9  C          6.5710   -0.8230    0.1280 C.2     1  UNL1        0.0040
     10  C          5.2930    1.4970    0.6730 C.2     1  UNL1        0.0000
     11  C          6.0480   -0.6490    1.3940 C.2     1  UNL1        0.0000
     12  C          5.4010    0.5440    1.6490 C.2     1  UNL1        0.0000
@<TRIPOS>BOND
     1     4     2    1
     2     4     5    1
     3     3     2    2
     4     2     1    1
     5     6     1    1
     6     6     7    1
     7     7     8    2
     8     7     9    1
     9     8    10    1
    10     9    11    2
    11    10    12    2
    12    11    12    1
