MODEL 1
REMARK VINA RESULT:      -7.3      0.000      0.000
REMARK SMILES O=C(O)CCc1ccccc1
REMARK SMILES IDX 4 1 2 2 1 3 3 4 5 6 6 7 7 8 11 9 8 10 10 11 9 12
REMARK H PARENT 3 5
REMARK Flexibility Score: inf
ROOT
ATOM      1  C   UNL     1       8.490  -0.573  -2.198  1.00  0.00     0.127 C 
ENDROOT
BRANCH   1   2
ATOM      2  C   UNL     1       8.516  -1.867  -2.903  1.00  0.00     0.303 C 
ATOM      3  O   UNL     1       9.619  -2.438  -3.079  1.00  0.00    -0.252 OA
BRANCH   2   4
ATOM      4  O   UNL     1       7.357  -2.457  -3.368  1.00  0.00    -0.481 OA
ATOM      5  H   UNL     1       6.503  -2.574  -2.792  1.00  0.00     0.296 HD
ENDBRANCH   2   4
ENDBRANCH   1   2
BRANCH   1   6
ATOM      6  C   UNL     1       7.050  -0.073  -2.233  1.00  0.00     0.047 C 
BRANCH   6   7
ATOM      7  C   UNL     1       6.489   0.102  -0.882  1.00  0.00    -0.047 A 
ATOM      8  C   UNL     1       5.831   1.292  -0.596  1.00  0.00     0.004 A 
ATOM      9  C   UNL     1       6.571  -0.823   0.128  1.00  0.00     0.004 A 
ATOM     10  C   UNL     1       5.293   1.497   0.673  1.00  0.00     0.000 A 
ATOM     11  C   UNL     1       6.048  -0.649   1.394  1.00  0.00     0.000 A 
ATOM     12  C   UNL     1       5.401   0.544   1.649  1.00  0.00     0.000 A 
ENDBRANCH   6   7
ENDBRANCH   1   6
TORSDOF 4
ENDMDL
MODEL 2
REMARK VINA RESULT:      -7.3      0.214      1.440
REMARK SMILES O=C(O)CCc1ccccc1
REMARK SMILES IDX 4 1 2 2 1 3 3 4 5 6 6 7 7 8 11 9 8 10 10 11 9 12
REMARK H PARENT 3 5
REMARK Flexibility Score: inf
ROOT
ATOM      1  C   UNL     1       8.425  -0.641  -2.129  1.00  0.00     0.127 C 
ENDROOT
BRANCH   1   2
ATOM      2  C   UNL     1       8.443  -1.900  -2.894  1.00  0.00     0.303 C 
ATOM      3  O   UNL     1       9.539  -2.480  -3.079  1.00  0.00    -0.252 OA
BRANCH   2   4
ATOM      4  O   UNL     1       7.283  -2.449  -3.406  1.00  0.00    -0.481 OA
ATOM      5  H   UNL     1       6.353  -2.342  -2.959  1.00  0.00     0.296 HD
ENDBRANCH   2   4
ENDBRANCH   1   2
BRANCH   1   6
ATOM      6  C   UNL     1       6.986  -0.137  -2.130  1.00  0.00     0.047 C 
BRANCH   6   7
ATOM      7  C   UNL     1       6.459   0.042  -0.765  1.00  0.00    -0.047 A 
ATOM      8  C   UNL     1       6.592  -1.013   0.130  1.00  0.00     0.004 A 
ATOM      9  C   UNL     1       5.836   1.174  -0.306  1.00  0.00     0.004 A 
ATOM     10  C   UNL     1       6.100  -0.884   1.428  1.00  0.00     0.000 A 
ATOM     11  C   UNL     1       5.339   1.332   0.972  1.00  0.00     0.000 A 
ATOM     12  C   UNL     1       5.485   0.267   1.840  1.00  0.00     0.000 A 
ENDBRANCH   6   7
ENDBRANCH   1   6
TORSDOF 4
ENDMDL
MODEL 3
REMARK VINA RESULT:      -6.8      3.372      5.084
REMARK SMILES O=C(O)CCc1ccccc1
REMARK SMILES IDX 4 1 2 2 1 3 3 4 5 6 6 7 7 8 11 9 8 10 10 11 9 12
REMARK H PARENT 3 5
REMARK Flexibility Score: inf
ROOT
ATOM      1  C   UNL     1       4.974   1.791   0.731  1.00  0.00     0.127 C 
ENDROOT
BRANCH   1   2
ATOM      2  C   UNL     1       4.456   1.115   1.934  1.00  0.00     0.303 C 
ATOM      3  O   UNL     1       5.148   0.217   2.469  1.00  0.00    -0.252 OA
BRANCH   2   4
ATOM      4  O   UNL     1       3.232   1.453   2.479  1.00  0.00    -0.481 OA
ATOM      5  H   UNL     1       2.357   0.929   2.292  1.00  0.00     0.296 HD
ENDBRANCH   2   4
ENDBRANCH   1   2
BRANCH   1   6
ATOM      6  C   UNL     1       6.494   1.811   0.848  1.00  0.00     0.047 C 
BRANCH   6   7
ATOM      7  C   UNL     1       7.146   1.116  -0.276  1.00  0.00    -0.047 A 
ATOM      8  C   UNL     1       6.368   0.282  -1.069  1.00  0.00     0.004 A 
ATOM      9  C   UNL     1       8.474   1.223  -0.600  1.00  0.00     0.004 A 
ATOM     10  C   UNL     1       6.951  -0.398  -2.137  1.00  0.00     0.000 A 
ATOM     11  C   UNL     1       9.080   0.563  -1.651  1.00  0.00     0.000 A 
ATOM     12  C   UNL     1       8.282  -0.259  -2.422  1.00  0.00     0.000 A 
ENDBRANCH   6   7
ENDBRANCH   1   6
TORSDOF 4
ENDMDL
MODEL 4
REMARK VINA RESULT:      -6.6      1.889      2.632
REMARK SMILES O=C(O)CCc1ccccc1
REMARK SMILES IDX 4 1 2 2 1 3 3 4 5 6 6 7 7 8 11 9 8 10 10 11 9 12
REMARK H PARENT 3 5
REMARK Flexibility Score: inf
ROOT
ATOM      1  C   UNL     1       8.235   0.251  -2.197  1.00  0.00     0.127 C 
ENDROOT
BRANCH   1   2
ATOM      2  C   UNL     1       9.359   0.375  -1.253  1.00  0.00     0.303 C 
ATOM      3  O   UNL     1       9.428  -0.420  -0.285  1.00  0.00    -0.252 OA
BRANCH   2   4
ATOM      4  O   UNL     1      10.332   1.343  -1.415  1.00  0.00    -0.481 OA
ATOM      5  H   UNL     1      11.176   1.214  -2.003  1.00  0.00     0.296 HD
ENDBRANCH   2   4
ENDBRANCH   1   2
BRANCH   1   6
ATOM      6  C   UNL     1       7.136  -0.529  -1.485  1.00  0.00     0.047 C 
BRANCH   6   7
ATOM      7  C   UNL     1       6.333   0.329  -0.595  1.00  0.00    -0.047 A 
ATOM      8  C   UNL     1       6.097  -0.113   0.701  1.00  0.00     0.004 A 
ATOM      9  C   UNL     1       5.791   1.537  -0.949  1.00  0.00     0.004 A 
ATOM     10  C   UNL     1       5.337   0.667   1.570  1.00  0.00     0.000 A 
ATOM     11  C   UNL     1       5.035   2.333  -0.111  1.00  0.00     0.000 A 
ATOM     12  C   UNL     1       4.816   1.867   1.171  1.00  0.00     0.000 A 
ENDBRANCH   6   7
ENDBRANCH   1   6
TORSDOF 4
ENDMDL
MODEL 5
REMARK VINA RESULT:      -6.5      3.688      4.926
REMARK SMILES O=C(O)CCc1ccccc1
REMARK SMILES IDX 4 1 2 2 1 3 3 4 5 6 6 7 7 8 11 9 8 10 10 11 9 12
REMARK H PARENT 3 5
REMARK Flexibility Score: inf
ROOT
ATOM      1  C   UNL     1       5.374   2.942   0.087  1.00  0.00     0.127 C 
ENDROOT
BRANCH   1   2
ATOM      2  C   UNL     1       6.293   3.790   0.866  1.00  0.00     0.303 C 
ATOM      3  O   UNL     1       6.830   4.775   0.305  1.00  0.00    -0.252 OA
BRANCH   2   4
ATOM      4  O   UNL     1       6.570   3.523   2.193  1.00  0.00    -0.481 OA
ATOM      5  H   UNL     1       7.431   3.842   2.674  1.00  0.00     0.296 HD
ENDBRANCH   2   4
ENDBRANCH   1   2
BRANCH   1   6
ATOM      6  C   UNL     1       5.205   1.638   0.859  1.00  0.00     0.047 C 
BRANCH   6   7
ATOM      7  C   UNL     1       6.002   0.543   0.281  1.00  0.00    -0.047 A 
ATOM      8  C   UNL     1       6.296   0.593  -1.076  1.00  0.00     0.004 A 
ATOM      9  C   UNL     1       6.478  -0.536   0.981  1.00  0.00     0.004 A 
ATOM     10  C   UNL     1       7.043  -0.428  -1.661  1.00  0.00     0.000 A 
ATOM     11  C   UNL     1       7.220  -1.563   0.431  1.00  0.00     0.000 A 
ATOM     12  C   UNL     1       7.495  -1.486  -0.920  1.00  0.00     0.000 A 
ENDBRANCH   6   7
ENDBRANCH   1   6
TORSDOF 4
ENDMDL
