@<TRIPOS>MOLECULE
/home/cewinharhar/GITHUB/reincatalyze/data/processed/docking_pred/2023-Apr-25-1829_maxeplen10_maxtrainstep200_exh32_gamma099_lrac3e-4_lrcr1e-3/ff0363d9ee1910d446632d9597fe578fef33cb13_ligand_2.pdbqt
 12 12 0 0 0
SMALL
GASTEIGER

@<TRIPOS>ATOM
      1  C          5.3740    2.9420    0.0870 C.3     1  UNL1        0.1270
      2  C          6.2930    3.7900    0.8660 C.2     1  UNL1        0.3030
      3  O          6.8300    4.7750    0.3050 O.2     1  UNL1       -0.2520
      4  O          6.5700    3.5230    2.1930 O.3     1  UNL1       -0.4810
      5  H          7.4310    3.8420    2.6740 H       1  UNL1        0.2960
      6  C          5.2050    1.6380    0.8590 C.3     1  UNL1        0.0470
      7  C          6.0020    0.5430    0.2810 C.2     1  UNL1       -0.0470
      8  C          6.2960    0.5930   -1.0760 C.2     1  UNL1        0.0040
      9  C          6.4780   -0.5360    0.9810 C.2     1  UNL1        0.0040
     10  C          7.0430   -0.4280   -1.6610 C.2     1  UNL1        0.0000
     11  C          7.2200   -1.5630    0.4310 C.2     1  UNL1        0.0000
     12  C          7.4950   -1.4860   -0.9200 C.2     1  UNL1        0.0000
@<TRIPOS>BOND
     1    10     8    1
     2    10    12    2
     3     8     7    2
     4    12    11    1
     5     1     6    1
     6     1     2    1
     7     7     6    1
     8     7     9    1
     9     3     2    2
    10    11     9    2
    11     2     4    1
    12     4     5    1
