@<TRIPOS>MOLECULE
/home/cewinharhar/GITHUB/reincatalyze/data/processed/docking_pred/2023-Apr-25-1829_maxeplen10_maxtrainstep200_exh32_gamma099_lrac3e-4_lrcr1e-3/ff0363d9ee1910d446632d9597fe578fef33cb13_ligand_2.pdbqt
 12 12 0 0 0
SMALL
GASTEIGER

@<TRIPOS>ATOM
      1  C          8.4250   -0.6410   -2.1290 C.3     1  UNL1        0.1270
      2  C          8.4430   -1.9000   -2.8940 C.2     1  UNL1        0.3030
      3  O          9.5390   -2.4800   -3.0790 O.2     1  UNL1       -0.2520
      4  O          7.2830   -2.4490   -3.4060 O.3     1  UNL1       -0.4810
      5  H          6.3530   -2.3420   -2.9590 H       1  UNL1        0.2960
      6  C          6.9860   -0.1370   -2.1300 C.3     1  UNL1        0.0470
      7  C          6.4590    0.0420   -0.7650 C.2     1  UNL1       -0.0470
      8  C          6.5920   -1.0130    0.1300 C.2     1  UNL1        0.0040
      9  C          5.8360    1.1740   -0.3060 C.2     1  UNL1        0.0040
     10  C          6.1000   -0.8840    1.4280 C.2     1  UNL1        0.0000
     11  C          5.3390    1.3320    0.9720 C.2     1  UNL1        0.0000
     12  C          5.4850    0.2670    1.8400 C.2     1  UNL1        0.0000
@<TRIPOS>BOND
     1     4     5    1
     2     4     2    1
     3     3     2    2
     4     2     1    1
     5     6     1    1
     6     6     7    1
     7     7     9    2
     8     7     8    1
     9     9    11    1
    10     8    10    2
    11    11    12    2
    12    10    12    1
