@<TRIPOS>MOLECULE
/home/cewinharhar/GITHUB/reincatalyze/data/processed/docking_pred/2023-Apr-25-1829_maxeplen10_maxtrainstep200_exh32_gamma099_lrac3e-4_lrcr1e-3/ff0363d9ee1910d446632d9597fe578fef33cb13_ligand_2.pdbqt
 12 12 0 0 0
SMALL
GASTEIGER

@<TRIPOS>ATOM
      1  C          8.2350    0.2510   -2.1970 C.3     1  UNL1        0.1270
      2  C          9.3590    0.3750   -1.2530 C.2     1  UNL1        0.3030
      3  O          9.4280   -0.4200   -0.2850 O.2     1  UNL1       -0.2520
      4  O         10.3320    1.3430   -1.4150 O.3     1  UNL1       -0.4810
      5  H         11.1760    1.2140   -2.0030 H       1  UNL1        0.2960
      6  C          7.1360   -0.5290   -1.4850 C.3     1  UNL1        0.0470
      7  C          6.3330    0.3290   -0.5950 C.2     1  UNL1       -0.0470
      8  C          6.0970   -0.1130    0.7010 C.2     1  UNL1        0.0040
      9  C          5.7910    1.5370   -0.9490 C.2     1  UNL1        0.0040
     10  C          5.3370    0.6670    1.5700 C.2     1  UNL1        0.0000
     11  C          5.0350    2.3330   -0.1110 C.2     1  UNL1        0.0000
     12  C          4.8160    1.8670    1.1710 C.2     1  UNL1        0.0000
@<TRIPOS>BOND
     1     1     6    1
     2     1     2    1
     3     5     4    1
     4     6     7    1
     5     4     2    1
     6     2     3    2
     7     9     7    2
     8     9    11    1
     9     7     8    1
    10    11    12    2
    11     8    10    2
    12    12    10    1
