@<TRIPOS>MOLECULE
/home/cewinharhar/GITHUB/reincatalyze/data/processed/docking_pred/2023-Apr-25-1829_maxeplen10_maxtrainstep200_exh32_gamma099_lrac3e-4_lrcr1e-3/ff0363d9ee1910d446632d9597fe578fef33cb13_ligand_2.pdbqt
 12 12 0 0 0
SMALL
GASTEIGER

@<TRIPOS>ATOM
      1  C          4.9740    1.7910    0.7310 C.3     1  UNL1        0.1270
      2  C          4.4560    1.1150    1.9340 C.2     1  UNL1        0.3030
      3  O          5.1480    0.2170    2.4690 O.2     1  UNL1       -0.2520
      4  O          3.2320    1.4530    2.4790 O.3     1  UNL1       -0.4810
      5  H          2.3570    0.9290    2.2920 H       1  UNL1        0.2960
      6  C          6.4940    1.8110    0.8480 C.3     1  UNL1        0.0470
      7  C          7.1460    1.1160   -0.2760 C.2     1  UNL1       -0.0470
      8  C          6.3680    0.2820   -1.0690 C.2     1  UNL1        0.0040
      9  C          8.4740    1.2230   -0.6000 C.2     1  UNL1        0.0040
     10  C          6.9510   -0.3980   -2.1370 C.2     1  UNL1        0.0000
     11  C          9.0800    0.5630   -1.6510 C.2     1  UNL1        0.0000
     12  C          8.2820   -0.2590   -2.4220 C.2     1  UNL1        0.0000
@<TRIPOS>BOND
     1    12    10    2
     2    12    11    1
     3    10     8    1
     4    11     9    2
     5     8     7    2
     6     9     7    1
     7     7     6    1
     8     1     6    1
     9     1     2    1
    10     2     3    2
    11     2     4    1
    12     5     4    1
