@<TRIPOS>MOLECULE
/home/cewinharhar/GITHUB/reincatalyze/data/processed/docking_pred/2023-May-02-0947_maxeplen10_maxtrainstep1000_seadep32_gamma099_lrac9e-4_lrcr1e-3/00fabcb6e86abbd64330e8a307762c5d347247e8_ligand_2.pdbqt
 12 12 0 0 0
SMALL
GASTEIGER

@<TRIPOS>ATOM
      1  C          5.5230    1.3960   -0.2660 C.3     1  UNL1        0.1270
      2  C          5.3430    1.7550    1.1600 C.2     1  UNL1        0.3030
      3  O          5.6170    2.9070    1.5810 O.2     1  UNL1       -0.2520
      4  O          4.8670    0.8270    2.0720 O.3     1  UNL1       -0.4810
      5  H          4.8790    1.0530    3.0700 H       1  UNL1        0.2960
      6  C          6.3630    0.1570   -0.3370 C.3     1  UNL1        0.0470
      7  C          7.5460    0.2890   -1.1860 C.2     1  UNL1       -0.0470
      8  C          7.4980   -0.0540   -2.5170 C.2     1  UNL1        0.0040
      9  C          8.7150    0.7630   -0.6390 C.2     1  UNL1        0.0040
     10  C          8.6660    0.0990   -3.2680 C.2     1  UNL1        0.0000
     11  C          9.8690    0.9130   -1.3820 C.2     1  UNL1        0.0000
     12  C          9.8300    0.5720   -2.7170 C.2     1  UNL1        0.0000
@<TRIPOS>BOND
     1    10    12    2
     2    10     8    1
     3    12    11    1
     4     8     7    2
     5    11     9    2
     6     7     9    1
     7     7     6    1
     8     6     1    1
     9     1     2    1
    10     2     3    2
    11     2     4    1
    12     4     5    1
