MODEL 1
REMARK VINA RESULT:      -7.4      0.000      0.000
REMARK SMILES O=C(O)CCc1ccccc1
REMARK SMILES IDX 4 1 2 2 1 3 3 4 5 6 6 7 7 8 11 9 8 10 10 11 9 12
REMARK H PARENT 3 5
REMARK Flexibility Score: inf
ROOT
ATOM      1  C   UNL     1       8.478  -0.659  -2.076  1.00  0.00     0.127 C 
ENDROOT
BRANCH   1   2
ATOM      2  C   UNL     1       8.494  -1.901  -2.885  1.00  0.00     0.303 C 
ATOM      3  O   UNL     1       9.564  -2.519  -3.108  1.00  0.00    -0.252 OA
BRANCH   2   4
ATOM      4  O   UNL     1       7.323  -2.416  -3.417  1.00  0.00    -0.481 OA
ATOM      5  H   UNL     1       6.839  -3.173  -2.926  1.00  0.00     0.296 HD
ENDBRANCH   2   4
ENDBRANCH   1   2
BRANCH   1   6
ATOM      6  C   UNL     1       7.085  -0.108  -2.087  1.00  0.00     0.047 C 
BRANCH   6   7
ATOM      7  C   UNL     1       6.504   0.066  -0.757  1.00  0.00    -0.047 A 
ATOM      8  C   UNL     1       5.855   1.230  -0.419  1.00  0.00     0.004 A 
ATOM      9  C   UNL     1       6.611  -0.954   0.160  1.00  0.00     0.004 A 
ATOM     10  C   UNL     1       5.323   1.326   0.869  1.00  0.00     0.000 A 
ATOM     11  C   UNL     1       6.085  -0.858   1.433  1.00  0.00     0.000 A 
ATOM     12  C   UNL     1       5.434   0.306   1.780  1.00  0.00     0.000 A 
ENDBRANCH   6   7
ENDBRANCH   1   6
TORSDOF 4
ENDMDL
