@<TRIPOS>MOLECULE
/home/cewinharhar/GITHUB/reincatalyze/data/processed/docking_pred/2023-May-02-0947_maxeplen10_maxtrainstep1000_seadep32_gamma099_lrac9e-4_lrcr1e-3/01f25cbd7413d58f388abe94d9cfceb48e05f66f_ligand_2.pdbqt
 12 12 0 0 0
SMALL
GASTEIGER

@<TRIPOS>ATOM
      1  C          5.5310    1.3920   -0.2680 C.3     1  UNL1        0.1270
      2  C          5.3460    1.7430    1.1600 C.2     1  UNL1        0.3030
      3  O          5.5940    2.8990    1.5840 O.2     1  UNL1       -0.2520
      4  O          4.8910    0.8020    2.0690 O.3     1  UNL1       -0.4810
      5  H          3.8990    0.7850    2.3200 H       1  UNL1        0.2960
      6  C          6.3710    0.1540   -0.3430 C.3     1  UNL1        0.0470
      7  C          7.5550    0.2880   -1.1900 C.2     1  UNL1       -0.0470
      8  C          7.5090   -0.0530   -2.5220 C.2     1  UNL1        0.0040
      9  C          8.7230    0.7640   -0.6410 C.2     1  UNL1        0.0040
     10  C          8.6770    0.1020   -3.2710 C.2     1  UNL1        0.0000
     11  C          9.8770    0.9170   -1.3830 C.2     1  UNL1        0.0000
     12  C          9.8400    0.5770   -2.7180 C.2     1  UNL1        0.0000
@<TRIPOS>BOND
     1    10    12    2
     2    10     8    1
     3    12    11    1
     4     8     7    2
     5    11     9    2
     6     7     9    1
     7     7     6    1
     8     6     1    1
     9     1     2    1
    10     2     3    2
    11     2     4    1
    12     4     5    1
