@<TRIPOS>MOLECULE
/home/cewinharhar/GITHUB/reincatalyze/data/processed/docking_pred/2023-May-02-0947_maxeplen10_maxtrainstep1000_seadep32_gamma099_lrac9e-4_lrcr1e-3/01f25cbd7413d58f388abe94d9cfceb48e05f66f_ligand_2.pdbqt
 12 12 0 0 0
SMALL
GASTEIGER

@<TRIPOS>ATOM
      1  C          8.4780   -0.6590   -2.0760 C.3     1  UNL1        0.1270
      2  C          8.4940   -1.9010   -2.8850 C.2     1  UNL1        0.3030
      3  O          9.5640   -2.5190   -3.1080 O.2     1  UNL1       -0.2520
      4  O          7.3230   -2.4160   -3.4170 O.3     1  UNL1       -0.4810
      5  H          6.8390   -3.1730   -2.9260 H       1  UNL1        0.2960
      6  C          7.0850   -0.1080   -2.0870 C.3     1  UNL1        0.0470
      7  C          6.5040    0.0660   -0.7570 C.2     1  UNL1       -0.0470
      8  C          5.8550    1.2300   -0.4190 C.2     1  UNL1        0.0040
      9  C          6.6110   -0.9540    0.1600 C.2     1  UNL1        0.0040
     10  C          5.3230    1.3260    0.8690 C.2     1  UNL1        0.0000
     11  C          6.0850   -0.8580    1.4330 C.2     1  UNL1        0.0000
     12  C          5.4340    0.3060    1.7800 C.2     1  UNL1        0.0000
@<TRIPOS>BOND
     1     4     5    1
     2     4     2    1
     3     3     2    2
     4     2     1    1
     5     6     1    1
     6     6     7    1
     7     7     8    2
     8     7     9    1
     9     8    10    1
    10     9    11    2
    11    10    12    2
    12    11    12    1
