@<TRIPOS>MOLECULE
/home/cewinharhar/GITHUB/reincatalyze/data/processed/docking_pred/2023-May-02-0947_maxeplen10_maxtrainstep1000_seadep32_gamma099_lrac9e-4_lrcr1e-3/02381cbfeedb5f98de7c9f38a4017f955763d16c_ligand_2.pdbqt
 12 12 0 0 0
SMALL
GASTEIGER

@<TRIPOS>ATOM
      1  C          8.5560   -0.5970   -2.2790 C.3     1  UNL1        0.1270
      2  C          8.5420   -1.9120   -2.9640 C.2     1  UNL1        0.3030
      3  O          9.6000   -2.5670   -3.1350 O.2     1  UNL1       -0.2520
      4  O          7.3580   -2.4540   -3.4340 O.3     1  UNL1       -0.4810
      5  H          7.1170   -3.4190   -3.1910 H       1  UNL1        0.2960
      6  C          7.1440   -0.1060   -2.1740 C.3     1  UNL1        0.0470
      7  C          6.7380    0.2490   -0.8160 C.2     1  UNL1       -0.0470
      8  C          5.7640    1.1960   -0.5980 C.2     1  UNL1        0.0040
      9  C          7.3410   -0.3770    0.2510 C.2     1  UNL1        0.0040
     10  C          5.4250    1.4850    0.7260 C.2     1  UNL1        0.0000
     11  C          7.0050   -0.0900    1.5590 C.2     1  UNL1        0.0000
     12  C          6.0310    0.8580    1.7860 C.2     1  UNL1        0.0000
@<TRIPOS>BOND
     1     4     5    1
     2     4     2    1
     3     3     2    2
     4     2     1    1
     5     1     6    1
     6     6     7    1
     7     7     8    2
     8     7     9    1
     9     8    10    1
    10     9    11    2
    11    10    12    2
    12    11    12    1
