MODEL 1
REMARK VINA RESULT:      -7.3      0.000      0.000
REMARK SMILES O=C(O)CCc1ccccc1
REMARK SMILES IDX 4 1 2 2 1 3 3 4 5 6 6 7 7 8 11 9 8 10 10 11 9 12
REMARK H PARENT 3 5
REMARK Flexibility Score: inf
ROOT
ATOM      1  C   UNL     1       8.453  -0.692  -2.093  1.00  0.00     0.127 C 
ENDROOT
BRANCH   1   2
ATOM      2  C   UNL     1       8.439  -1.940  -2.892  1.00  0.00     0.303 C 
ATOM      3  O   UNL     1       9.477  -2.633  -3.034  1.00  0.00    -0.252 OA
BRANCH   2   4
ATOM      4  O   UNL     1       7.277  -2.377  -3.507  1.00  0.00    -0.481 OA
ATOM      5  H   UNL     1       6.630  -2.976  -2.988  1.00  0.00     0.296 HD
ENDBRANCH   2   4
ENDBRANCH   1   2
BRANCH   1   6
ATOM      6  C   UNL     1       7.068  -0.118  -2.093  1.00  0.00     0.047 C 
BRANCH   6   7
ATOM      7  C   UNL     1       6.503   0.070  -0.758  1.00  0.00    -0.047 A 
ATOM      8  C   UNL     1       6.684  -0.877   0.223  1.00  0.00     0.004 A 
ATOM      9  C   UNL     1       5.785   1.212  -0.488  1.00  0.00     0.004 A 
ATOM     10  C   UNL     1       6.117  -0.631   1.475  1.00  0.00     0.000 A 
ATOM     11  C   UNL     1       5.224   1.454   0.750  1.00  0.00     0.000 A 
ATOM     12  C   UNL     1       5.400   0.510   1.738  1.00  0.00     0.000 A 
ENDBRANCH   6   7
ENDBRANCH   1   6
TORSDOF 4
ENDMDL
