@<TRIPOS>MOLECULE
/home/cewinharhar/GITHUB/reincatalyze/data/processed/docking_pred/2023-May-02-0947_maxeplen10_maxtrainstep1000_seadep32_gamma099_lrac9e-4_lrcr1e-3/0310d41f91ab2de901a6698b161cc991790b6b4b_ligand_2.pdbqt
 12 12 0 0 0
SMALL
GASTEIGER

@<TRIPOS>ATOM
      1  C          8.4530   -0.6920   -2.0930 C.3     1  UNL1        0.1270
      2  C          8.4390   -1.9400   -2.8920 C.2     1  UNL1        0.3030
      3  O          9.4770   -2.6330   -3.0340 O.2     1  UNL1       -0.2520
      4  O          7.2770   -2.3770   -3.5070 O.3     1  UNL1       -0.4810
      5  H          6.6300   -2.9760   -2.9880 H       1  UNL1        0.2960
      6  C          7.0680   -0.1180   -2.0930 C.3     1  UNL1        0.0470
      7  C          6.5030    0.0700   -0.7580 C.2     1  UNL1       -0.0470
      8  C          6.6840   -0.8770    0.2230 C.2     1  UNL1        0.0040
      9  C          5.7850    1.2120   -0.4880 C.2     1  UNL1        0.0040
     10  C          6.1170   -0.6310    1.4750 C.2     1  UNL1        0.0000
     11  C          5.2240    1.4540    0.7500 C.2     1  UNL1        0.0000
     12  C          5.4000    0.5100    1.7380 C.2     1  UNL1        0.0000
@<TRIPOS>BOND
     1     4     5    1
     2     4     2    1
     3     3     2    2
     4     2     1    1
     5     1     6    1
     6     6     7    1
     7     7     9    2
     8     7     8    1
     9     9    11    1
    10     8    10    2
    11    11    12    2
    12    10    12    1
