@<TRIPOS>MOLECULE
/home/cewinharhar/GITHUB/reincatalyze/data/processed/docking_pred/2023-May-02-0947_maxeplen10_maxtrainstep1000_seadep32_gamma099_lrac9e-4_lrcr1e-3/034cecc51265c6b10d0b2cc1c9f67b1ec6b5e3be_ligand_2.pdbqt
 12 12 0 0 0
SMALL
GASTEIGER

@<TRIPOS>ATOM
      1  C          7.3060   -1.3300   -2.1250 C.3     1  UNL1        0.1270
      2  C          8.7410   -1.3790   -2.4890 C.2     1  UNL1        0.3030
      3  O          9.5440   -0.4990   -2.0920 O.2     1  UNL1       -0.2520
      4  O          9.2380   -2.4020   -3.2810 O.3     1  UNL1       -0.4810
      5  H          9.5250   -3.2810   -2.8420 H       1  UNL1        0.2960
      6  C          7.1970   -1.3840   -0.6310 C.3     1  UNL1        0.0470
      7  C          6.4190   -0.2910   -0.0520 C.2     1  UNL1       -0.0470
      8  C          5.9430   -0.3720    1.2360 C.2     1  UNL1        0.0040
      9  C          6.1670    0.8290   -0.8100 C.2     1  UNL1        0.0040
     10  C          5.2080    0.7110    1.7250 C.2     1  UNL1        0.0000
     11  C          5.4410    1.8990   -0.3250 C.2     1  UNL1        0.0000
     12  C          4.9590    1.8250    0.9640 C.2     1  UNL1        0.0000
@<TRIPOS>BOND
     1     4     5    1
     2     4     2    1
     3     2     1    1
     4     2     3    2
     5     1     6    1
     6     9    11    1
     7     9     7    2
     8     6     7    1
     9    11    12    2
    10     7     8    1
    11    12    10    1
    12     8    10    2
