@<TRIPOS>MOLECULE
/home/cewinharhar/GITHUB/reincatalyze/data/processed/docking_pred/2023-May-02-0947_maxeplen10_maxtrainstep1000_seadep32_gamma099_lrac9e-4_lrcr1e-3/034cecc51265c6b10d0b2cc1c9f67b1ec6b5e3be_ligand_2.pdbqt
 12 12 0 0 0
SMALL
GASTEIGER

@<TRIPOS>ATOM
      1  C          8.3970   -0.6440   -2.0910 C.3     1  UNL1        0.1270
      2  C          8.3680   -1.8970   -2.8810 C.2     1  UNL1        0.3030
      3  O          7.2830   -2.4090   -3.2510 O.2     1  UNL1       -0.2520
      4  O          9.5430   -2.5420   -3.2330 O.3     1  UNL1       -0.4810
      5  H         10.3700   -1.9850   -3.4670 H       1  UNL1        0.2960
      6  C          7.0160   -0.0630   -2.0790 C.3     1  UNL1        0.0470
      7  C          6.4520    0.1020   -0.7400 C.2     1  UNL1       -0.0470
      8  C          5.7980    1.2600   -0.3910 C.2     1  UNL1        0.0040
      9  C          6.5810   -0.9180    0.1740 C.2     1  UNL1        0.0040
     10  C          5.2840    1.3490    0.9050 C.2     1  UNL1        0.0000
     11  C          6.0730   -0.8290    1.4540 C.2     1  UNL1        0.0000
     12  C          5.4160    0.3280    1.8120 C.2     1  UNL1        0.0000
@<TRIPOS>BOND
     1     5     4    1
     2     3     2    2
     3     4     2    1
     4     2     1    1
     5     1     6    1
     6     6     7    1
     7     7     8    2
     8     7     9    1
     9     8    10    1
    10     9    11    2
    11    10    12    2
    12    11    12    1
