MODEL 1
REMARK VINA RESULT:      -6.5      0.000      0.000
REMARK SMILES O=C(O)CCc1ccccc1
REMARK SMILES IDX 4 1 2 2 1 3 3 4 5 6 6 7 7 8 11 9 8 10 10 11 9 12
REMARK H PARENT 3 5
REMARK Flexibility Score: inf
ROOT
ATOM      1  C   UNL     1       8.320  -0.697  -2.156  1.00  0.00     0.127 C 
ENDROOT
BRANCH   1   2
ATOM      2  C   UNL     1       8.440  -1.955  -2.930  1.00  0.00     0.303 C 
ATOM      3  O   UNL     1       9.555  -2.505  -3.110  1.00  0.00    -0.252 OA
BRANCH   2   4
ATOM      4  O   UNL     1       7.321  -2.561  -3.479  1.00  0.00    -0.481 OA
ATOM      5  H   UNL     1       6.787  -3.229  -2.917  1.00  0.00     0.296 HD
ENDBRANCH   2   4
ENDBRANCH   1   2
BRANCH   1   6
ATOM      6  C   UNL     1       6.893  -0.544  -1.726  1.00  0.00     0.047 C 
BRANCH   6   7
ATOM      7  C   UNL     1       6.684  -0.704  -0.288  1.00  0.00    -0.047 A 
ATOM      8  C   UNL     1       7.284  -1.734   0.399  1.00  0.00     0.004 A 
ATOM      9  C   UNL     1       5.879   0.191   0.377  1.00  0.00     0.004 A 
ATOM     10  C   UNL     1       7.042  -1.826   1.771  1.00  0.00     0.000 A 
ATOM     11  C   UNL     1       5.640   0.098   1.734  1.00  0.00     0.000 A 
ATOM     12  C   UNL     1       6.237  -0.931   2.430  1.00  0.00     0.000 A 
ENDBRANCH   6   7
ENDBRANCH   1   6
TORSDOF 4
ENDMDL
MODEL 2
REMARK VINA RESULT:      -6.3      3.196      4.947
REMARK SMILES O=C(O)CCc1ccccc1
REMARK SMILES IDX 4 1 2 2 1 3 3 4 5 6 6 7 7 8 11 9 8 10 10 11 9 12
REMARK H PARENT 3 5
REMARK Flexibility Score: inf
ROOT
ATOM      1  C   UNL     1       5.947  -0.891   1.778  1.00  0.00     0.127 C 
ENDROOT
BRANCH   1   2
ATOM      2  C   UNL     1       5.376   0.449   2.048  1.00  0.00     0.303 C 
ATOM      3  O   UNL     1       4.197   0.583   2.461  1.00  0.00    -0.252 OA
BRANCH   2   4
ATOM      4  O   UNL     1       6.129   1.595   1.852  1.00  0.00    -0.481 OA
ATOM      5  H   UNL     1       6.846   1.604   1.121  1.00  0.00     0.296 HD
ENDBRANCH   2   4
ENDBRANCH   1   2
BRANCH   1   6
ATOM      6  C   UNL     1       7.408  -0.730   1.487  1.00  0.00     0.047 C 
BRANCH   6   7
ATOM      7  C   UNL     1       7.725  -0.640   0.063  1.00  0.00    -0.047 A 
ATOM      8  C   UNL     1       8.865   0.001  -0.365  1.00  0.00     0.004 A 
ATOM      9  C   UNL     1       6.869  -1.207  -0.852  1.00  0.00     0.004 A 
ATOM     10  C   UNL     1       9.104   0.048  -1.740  1.00  0.00     0.000 A 
ATOM     11  C   UNL     1       7.107  -1.159  -2.211  1.00  0.00     0.000 A 
ATOM     12  C   UNL     1       8.246  -0.519  -2.649  1.00  0.00     0.000 A 
ENDBRANCH   6   7
ENDBRANCH   1   6
TORSDOF 4
ENDMDL
MODEL 3
REMARK VINA RESULT:      -6.1      3.460      5.109
REMARK SMILES O=C(O)CCc1ccccc1
REMARK SMILES IDX 4 1 2 2 1 3 3 4 5 6 6 7 7 8 11 9 8 10 10 11 9 12
REMARK H PARENT 3 5
REMARK Flexibility Score: inf
ROOT
ATOM      1  C   UNL     1       5.076  -0.121   2.036  1.00  0.00     0.127 C 
ENDROOT
BRANCH   1   2
ATOM      2  C   UNL     1       4.391   1.191   1.966  1.00  0.00     0.303 C 
ATOM      3  O   UNL     1       4.899   2.158   1.346  1.00  0.00    -0.252 OA
BRANCH   2   4
ATOM      4  O   UNL     1       3.168   1.388   2.587  1.00  0.00    -0.481 OA
ATOM      5  H   UNL     1       3.060   2.164   3.246  1.00  0.00     0.296 HD
ENDBRANCH   2   4
ENDBRANCH   1   2
BRANCH   1   6
ATOM      6  C   UNL     1       6.526   0.087   1.719  1.00  0.00     0.047 C 
BRANCH   6   7
ATOM      7  C   UNL     1       7.005  -0.700   0.584  1.00  0.00    -0.047 A 
ATOM      8  C   UNL     1       6.627  -0.385  -0.700  1.00  0.00     0.004 A 
ATOM      9  C   UNL     1       7.846  -1.765   0.812  1.00  0.00     0.004 A 
ATOM     10  C   UNL     1       7.124  -1.179  -1.736  1.00  0.00     0.000 A 
ATOM     11  C   UNL     1       8.336  -2.549  -0.213  1.00  0.00     0.000 A 
ATOM     12  C   UNL     1       7.961  -2.240  -1.502  1.00  0.00     0.000 A 
ENDBRANCH   6   7
ENDBRANCH   1   6
TORSDOF 4
ENDMDL
