@<TRIPOS>MOLECULE
/home/cewinharhar/GITHUB/reincatalyze/data/processed/docking_pred/2023-May-02-0947_maxeplen10_maxtrainstep1000_seadep32_gamma099_lrac9e-4_lrcr1e-3/035d1107efb5fe3e99d2a33353f0da4e413613a6_ligand_2.pdbqt
 12 12 0 0 0
SMALL
GASTEIGER

@<TRIPOS>ATOM
      1  C          8.3200   -0.6970   -2.1560 C.3     1  UNL1        0.1270
      2  C          8.4400   -1.9550   -2.9300 C.2     1  UNL1        0.3030
      3  O          9.5550   -2.5050   -3.1100 O.2     1  UNL1       -0.2520
      4  O          7.3210   -2.5610   -3.4790 O.3     1  UNL1       -0.4810
      5  H          6.7870   -3.2290   -2.9170 H       1  UNL1        0.2960
      6  C          6.8930   -0.5440   -1.7260 C.3     1  UNL1        0.0470
      7  C          6.6840   -0.7040   -0.2880 C.2     1  UNL1       -0.0470
      8  C          7.2840   -1.7340    0.3990 C.2     1  UNL1        0.0040
      9  C          5.8790    0.1910    0.3770 C.2     1  UNL1        0.0040
     10  C          7.0420   -1.8260    1.7710 C.2     1  UNL1        0.0000
     11  C          5.6400    0.0980    1.7340 C.2     1  UNL1        0.0000
     12  C          6.2370   -0.9310    2.4300 C.2     1  UNL1        0.0000
@<TRIPOS>BOND
     1     4     2    1
     2     4     5    1
     3     3     2    2
     4     2     1    1
     5     1     6    1
     6     6     7    1
     7     7     9    2
     8     7     8    1
     9     9    11    1
    10     8    10    2
    11    11    12    2
    12    10    12    1
