@<TRIPOS>MOLECULE
/home/cewinharhar/GITHUB/reincatalyze/data/processed/docking_pred/2023-May-02-0947_maxeplen10_maxtrainstep1000_seadep32_gamma099_lrac9e-4_lrcr1e-3/035d1107efb5fe3e99d2a33353f0da4e413613a6_ligand_2.pdbqt
 12 12 0 0 0
SMALL
GASTEIGER

@<TRIPOS>ATOM
      1  C          5.0760   -0.1210    2.0360 C.3     1  UNL1        0.1270
      2  C          4.3910    1.1910    1.9660 C.2     1  UNL1        0.3030
      3  O          4.8990    2.1580    1.3460 O.2     1  UNL1       -0.2520
      4  O          3.1680    1.3880    2.5870 O.3     1  UNL1       -0.4810
      5  H          3.0600    2.1640    3.2460 H       1  UNL1        0.2960
      6  C          6.5260    0.0870    1.7190 C.3     1  UNL1        0.0470
      7  C          7.0050   -0.7000    0.5840 C.2     1  UNL1       -0.0470
      8  C          6.6270   -0.3850   -0.7000 C.2     1  UNL1        0.0040
      9  C          7.8460   -1.7650    0.8120 C.2     1  UNL1        0.0040
     10  C          7.1240   -1.1790   -1.7360 C.2     1  UNL1        0.0000
     11  C          8.3360   -2.5490   -0.2130 C.2     1  UNL1        0.0000
     12  C          7.9610   -2.2400   -1.5020 C.2     1  UNL1        0.0000
@<TRIPOS>BOND
     1    10    12    2
     2    10     8    1
     3    12    11    1
     4     8     7    2
     5    11     9    2
     6     7     9    1
     7     7     6    1
     8     3     2    2
     9     6     1    1
    10     2     1    1
    11     2     4    1
    12     4     5    1
