@<TRIPOS>MOLECULE
/home/cewinharhar/GITHUB/reincatalyze/data/processed/docking_pred/2023-May-02-0947_maxeplen10_maxtrainstep1000_seadep32_gamma099_lrac9e-4_lrcr1e-3/035d1107efb5fe3e99d2a33353f0da4e413613a6_ligand_2.pdbqt
 12 12 0 0 0
SMALL
GASTEIGER

@<TRIPOS>ATOM
      1  C          5.9470   -0.8910    1.7780 C.3     1  UNL1        0.1270
      2  C          5.3760    0.4490    2.0480 C.2     1  UNL1        0.3030
      3  O          4.1970    0.5830    2.4610 O.2     1  UNL1       -0.2520
      4  O          6.1290    1.5950    1.8520 O.3     1  UNL1       -0.4810
      5  H          6.8460    1.6040    1.1210 H       1  UNL1        0.2960
      6  C          7.4080   -0.7300    1.4870 C.3     1  UNL1        0.0470
      7  C          7.7250   -0.6400    0.0630 C.2     1  UNL1       -0.0470
      8  C          8.8650    0.0010   -0.3650 C.2     1  UNL1        0.0040
      9  C          6.8690   -1.2070   -0.8520 C.2     1  UNL1        0.0040
     10  C          9.1040    0.0480   -1.7400 C.2     1  UNL1        0.0000
     11  C          7.1070   -1.1590   -2.2110 C.2     1  UNL1        0.0000
     12  C          8.2460   -0.5190   -2.6490 C.2     1  UNL1        0.0000
@<TRIPOS>BOND
     1    12    11    2
     2    12    10    1
     3    11     9    1
     4    10     8    2
     5     9     7    2
     6     8     7    1
     7     7     6    1
     8     5     4    1
     9     6     1    1
    10     1     2    1
    11     4     2    1
    12     2     3    2
