@<TRIPOS>MOLECULE
/home/cewinharhar/GITHUB/reincatalyze/data/processed/docking_pred/2023-May-02-0947_maxeplen10_maxtrainstep1000_seadep32_gamma099_lrac9e-4_lrcr1e-3/0493ae4577fb245076a56c9e7bbbfc493763ce5a_ligand_2.pdbqt
 12 12 0 0 0
SMALL
GASTEIGER

@<TRIPOS>ATOM
      1  C          8.0490   -1.2570    3.0030 C.3     1  UNL1        0.1270
      2  C          6.7200   -1.3720    2.3590 C.2     1  UNL1        0.3030
      3  O          5.8340   -0.4990    2.5340 O.2     1  UNL1       -0.2520
      4  O          6.4170   -2.4500    1.5430 O.3     1  UNL1       -0.4810
      5  H          6.3970   -2.3200    0.5280 H       1  UNL1        0.2960
      6  C          9.0520   -1.9610    2.1410 C.3     1  UNL1        0.0470
      7  C         10.1140   -2.6310    2.8910 C.2     1  UNL1       -0.0470
      8  C         10.7590   -3.7280    2.3680 C.2     1  UNL1        0.0040
      9  C         10.4660   -2.1510    4.1310 C.2     1  UNL1        0.0040
     10  C         11.7630   -4.3180    3.1390 C.2     1  UNL1        0.0000
     11  C         11.4590   -2.7350    4.8920 C.2     1  UNL1        0.0000
     12  C         12.1100   -3.8350    4.3760 C.2     1  UNL1        0.0000
@<TRIPOS>BOND
     1     5     4    1
     2     4     2    1
     3     6     7    1
     4     6     1    1
     5     2     3    2
     6     2     1    1
     7     8     7    2
     8     8    10    1
     9     7     9    1
    10    10    12    2
    11     9    11    2
    12    12    11    1
