MODEL 1
REMARK VINA RESULT:      -6.4      0.000      0.000
REMARK SMILES O=C(O)CCc1ccccc1
REMARK SMILES IDX 4 1 2 2 1 3 3 4 5 6 6 7 7 8 11 9 8 10 10 11 9 12
REMARK H PARENT 3 5
REMARK Flexibility Score: inf
ROOT
ATOM      1  C   UNL     1       7.318  -0.460   2.689  1.00  0.00     0.127 C 
ENDROOT
BRANCH   1   2
ATOM      2  C   UNL     1       5.969  -0.636   2.099  1.00  0.00     0.303 C 
ATOM      3  O   UNL     1       5.031   0.152   2.375  1.00  0.00    -0.252 OA
BRANCH   2   4
ATOM      4  O   UNL     1       5.707  -1.679   1.225  1.00  0.00    -0.481 OA
ATOM      5  H   UNL     1       6.389  -2.436   1.129  1.00  0.00     0.296 HD
ENDBRANCH   2   4
ENDBRANCH   1   2
BRANCH   1   6
ATOM      6  C   UNL     1       7.610  -1.646   3.557  1.00  0.00     0.047 C 
BRANCH   6   7
ATOM      7  C   UNL     1       8.941  -1.627   4.160  1.00  0.00    -0.047 A 
ATOM      8  C   UNL     1       9.996  -2.271   3.556  1.00  0.00     0.004 A 
ATOM      9  C   UNL     1       9.132  -0.954   5.345  1.00  0.00     0.004 A 
ATOM     10  C   UNL     1      11.240  -2.211   4.188  1.00  0.00     0.000 A 
ATOM     11  C   UNL     1      10.363  -0.896   5.969  1.00  0.00     0.000 A 
ATOM     12  C   UNL     1      11.425  -1.539   5.370  1.00  0.00     0.000 A 
ENDBRANCH   6   7
ENDBRANCH   1   6
TORSDOF 4
ENDMDL
MODEL 2
REMARK VINA RESULT:      -6.3      1.428      1.907
REMARK SMILES O=C(O)CCc1ccccc1
REMARK SMILES IDX 4 1 2 2 1 3 3 4 5 6 6 7 7 8 11 9 8 10 10 11 9 12
REMARK H PARENT 3 5
REMARK Flexibility Score: inf
ROOT
ATOM      1  C   UNL     1       8.049  -1.257   3.003  1.00  0.00     0.127 C 
ENDROOT
BRANCH   1   2
ATOM      2  C   UNL     1       6.720  -1.372   2.359  1.00  0.00     0.303 C 
ATOM      3  O   UNL     1       5.834  -0.499   2.534  1.00  0.00    -0.252 OA
BRANCH   2   4
ATOM      4  O   UNL     1       6.417  -2.450   1.543  1.00  0.00    -0.481 OA
ATOM      5  H   UNL     1       6.397  -2.320   0.528  1.00  0.00     0.296 HD
ENDBRANCH   2   4
ENDBRANCH   1   2
BRANCH   1   6
ATOM      6  C   UNL     1       9.052  -1.961   2.141  1.00  0.00     0.047 C 
BRANCH   6   7
ATOM      7  C   UNL     1      10.114  -2.631   2.891  1.00  0.00    -0.047 A 
ATOM      8  C   UNL     1      10.759  -3.728   2.368  1.00  0.00     0.004 A 
ATOM      9  C   UNL     1      10.466  -2.151   4.131  1.00  0.00     0.004 A 
ATOM     10  C   UNL     1      11.763  -4.318   3.139  1.00  0.00     0.000 A 
ATOM     11  C   UNL     1      11.459  -2.735   4.892  1.00  0.00     0.000 A 
ATOM     12  C   UNL     1      12.110  -3.835   4.376  1.00  0.00     0.000 A 
ENDBRANCH   6   7
ENDBRANCH   1   6
TORSDOF 4
ENDMDL
MODEL 3
REMARK VINA RESULT:      -6.0      1.394      2.337
REMARK SMILES O=C(O)CCc1ccccc1
REMARK SMILES IDX 4 1 2 2 1 3 3 4 5 6 6 7 7 8 11 9 8 10 10 11 9 12
REMARK H PARENT 3 5
REMARK Flexibility Score: inf
ROOT
ATOM      1  C   UNL     1       6.629   0.376   2.324  1.00  0.00     0.127 C 
ENDROOT
BRANCH   1   2
ATOM      2  C   UNL     1       5.321   0.696   1.705  1.00  0.00     0.303 C 
ATOM      3  O   UNL     1       5.233   1.007   0.492  1.00  0.00    -0.252 OA
BRANCH   2   4
ATOM      4  O   UNL     1       4.155   0.660   2.453  1.00  0.00    -0.481 OA
ATOM      5  H   UNL     1       3.581  -0.188   2.447  1.00  0.00     0.296 HD
ENDBRANCH   2   4
ENDBRANCH   1   2
BRANCH   1   6
ATOM      6  C   UNL     1       6.770  -1.115   2.381  1.00  0.00     0.047 C 
BRANCH   6   7
ATOM      7  C   UNL     1       8.048  -1.570   2.926  1.00  0.00    -0.047 A 
ATOM      8  C   UNL     1       8.344  -1.402   4.259  1.00  0.00     0.004 A 
ATOM      9  C   UNL     1       8.958  -2.174   2.089  1.00  0.00     0.004 A 
ATOM     10  C   UNL     1       9.583  -1.862   4.711  1.00  0.00     0.000 A 
ATOM     11  C   UNL     1      10.182  -2.628   2.537  1.00  0.00     0.000 A 
ATOM     12  C   UNL     1      10.487  -2.463   3.871  1.00  0.00     0.000 A 
ENDBRANCH   6   7
ENDBRANCH   1   6
TORSDOF 4
ENDMDL
