@<TRIPOS>MOLECULE
/home/cewinharhar/GITHUB/reincatalyze/data/processed/docking_pred/2023-May-02-0947_maxeplen10_maxtrainstep1000_seadep32_gamma099_lrac9e-4_lrcr1e-3/0493ae4577fb245076a56c9e7bbbfc493763ce5a_ligand_2.pdbqt
 12 12 0 0 0
SMALL
GASTEIGER

@<TRIPOS>ATOM
      1  C          6.6290    0.3760    2.3240 C.3     1  UNL1        0.1270
      2  C          5.3210    0.6960    1.7050 C.2     1  UNL1        0.3030
      3  O          5.2330    1.0070    0.4920 O.2     1  UNL1       -0.2520
      4  O          4.1550    0.6600    2.4530 O.3     1  UNL1       -0.4810
      5  H          3.5810   -0.1880    2.4470 H       1  UNL1        0.2960
      6  C          6.7700   -1.1150    2.3810 C.3     1  UNL1        0.0470
      7  C          8.0480   -1.5700    2.9260 C.2     1  UNL1       -0.0470
      8  C          8.3440   -1.4020    4.2590 C.2     1  UNL1        0.0040
      9  C          8.9580   -2.1740    2.0890 C.2     1  UNL1        0.0040
     10  C          9.5830   -1.8620    4.7110 C.2     1  UNL1        0.0000
     11  C         10.1820   -2.6280    2.5370 C.2     1  UNL1        0.0000
     12  C         10.4870   -2.4630    3.8710 C.2     1  UNL1        0.0000
@<TRIPOS>BOND
     1     3     2    2
     2     2     1    1
     3     2     4    1
     4     9    11    1
     5     9     7    2
     6     1     6    1
     7     6     7    1
     8     5     4    1
     9    11    12    2
    10     7     8    1
    11    12    10    1
    12     8    10    2
