@<TRIPOS>MOLECULE
/home/cewinharhar/GITHUB/reincatalyze/data/processed/docking_pred/2023-May-02-0947_maxeplen10_maxtrainstep1000_seadep32_gamma099_lrac9e-4_lrcr1e-3/0493ae4577fb245076a56c9e7bbbfc493763ce5a_ligand_2.pdbqt
 12 12 0 0 0
SMALL
GASTEIGER

@<TRIPOS>ATOM
      1  C          7.3180   -0.4600    2.6890 C.3     1  UNL1        0.1270
      2  C          5.9690   -0.6360    2.0990 C.2     1  UNL1        0.3030
      3  O          5.0310    0.1520    2.3750 O.2     1  UNL1       -0.2520
      4  O          5.7070   -1.6790    1.2250 O.3     1  UNL1       -0.4810
      5  H          6.3890   -2.4360    1.1290 H       1  UNL1        0.2960
      6  C          7.6100   -1.6460    3.5570 C.3     1  UNL1        0.0470
      7  C          8.9410   -1.6270    4.1600 C.2     1  UNL1       -0.0470
      8  C          9.9960   -2.2710    3.5560 C.2     1  UNL1        0.0040
      9  C          9.1320   -0.9540    5.3450 C.2     1  UNL1        0.0040
     10  C         11.2400   -2.2110    4.1880 C.2     1  UNL1        0.0000
     11  C         10.3630   -0.8960    5.9690 C.2     1  UNL1        0.0000
     12  C         11.4250   -1.5390    5.3700 C.2     1  UNL1        0.0000
@<TRIPOS>BOND
     1     5     4    1
     2     4     2    1
     3     2     3    2
     4     2     1    1
     5     1     6    1
     6     8     7    2
     7     8    10    1
     8     6     7    1
     9     7     9    1
    10    10    12    2
    11     9    11    2
    12    12    11    1
