@<TRIPOS>MOLECULE
/home/cewinharhar/GITHUB/reincatalyze/data/processed/docking_pred/2023-May-02-0947_maxeplen10_maxtrainstep1000_seadep32_gamma099_lrac9e-4_lrcr1e-3/051d9442833557c4466992e4bdada3c2de553c76_ligand_2.pdbqt
 12 12 0 0 0
SMALL
GASTEIGER

@<TRIPOS>ATOM
      1  C          8.4630   -0.6680   -2.0670 C.3     1  UNL1        0.1270
      2  C          8.4710   -1.9080   -2.8790 C.2     1  UNL1        0.3030
      3  O          9.5370   -2.5350   -3.0980 O.2     1  UNL1       -0.2520
      4  O          7.2990   -2.4100   -3.4210 O.3     1  UNL1       -0.4810
      5  H          7.0350   -2.1460   -4.3740 H       1  UNL1        0.2960
      6  C          7.0740   -0.1060   -2.0800 C.3     1  UNL1        0.0470
      7  C          6.4930    0.0760   -0.7510 C.2     1  UNL1       -0.0470
      8  C          5.8550    1.2470   -0.4170 C.2     1  UNL1        0.0040
      9  C          6.5890   -0.9430    0.1690 C.2     1  UNL1        0.0040
     10  C          5.3230    1.3520    0.8710 C.2     1  UNL1        0.0000
     11  C          6.0630   -0.8380    1.4410 C.2     1  UNL1        0.0000
     12  C          5.4230    0.3330    1.7840 C.2     1  UNL1        0.0000
@<TRIPOS>BOND
     1     5     4    1
     2     4     2    1
     3     3     2    2
     4     2     1    1
     5     6     1    1
     6     6     7    1
     7     7     8    2
     8     7     9    1
     9     8    10    1
    10     9    11    2
    11    10    12    2
    12    11    12    1
