@<TRIPOS>MOLECULE
/home/cewinharhar/GITHUB/reincatalyze/data/processed/docking_pred/2023-May-02-0947_maxeplen10_maxtrainstep1000_seadep32_gamma099_lrac9e-4_lrcr1e-3/074f71e156faecc69724e62cc987f5104d3c940c_ligand_2.pdbqt
 12 12 0 0 0
SMALL
GASTEIGER

@<TRIPOS>ATOM
      1  C          5.0160   -0.1090    1.9980 C.3     1  UNL1        0.1270
      2  C          4.3460    1.2120    1.9460 C.2     1  UNL1        0.3030
      3  O          4.8540    2.1750    1.3200 O.2     1  UNL1       -0.2520
      4  O          3.1370    1.4210    2.5900 O.3     1  UNL1       -0.4810
      5  H          2.3070    1.6490    2.0350 H       1  UNL1        0.2960
      6  C          6.4740    0.0910    1.7180 C.3     1  UNL1        0.0470
      7  C          6.9760   -0.6940    0.5920 C.2     1  UNL1       -0.0470
      8  C          6.6460   -0.3610   -0.7010 C.2     1  UNL1        0.0040
      9  C          7.7900   -1.7760    0.8380 C.2     1  UNL1        0.0040
     10  C          7.1630   -1.1550   -1.7280 C.2     1  UNL1        0.0000
     11  C          8.2990   -2.5610   -0.1780 C.2     1  UNL1        0.0000
     12  C          7.9730   -2.2340   -1.4760 C.2     1  UNL1        0.0000
@<TRIPOS>BOND
     1    10    12    2
     2    10     8    1
     3    12    11    1
     4     8     7    2
     5    11     9    2
     6     7     9    1
     7     7     6    1
     8     3     2    2
     9     6     1    1
    10     2     1    1
    11     2     4    1
    12     5     4    1
