@<TRIPOS>MOLECULE
/home/cewinharhar/GITHUB/reincatalyze/data/processed/docking_pred/2023-May-02-0947_maxeplen10_maxtrainstep1000_seadep32_gamma099_lrac9e-4_lrcr1e-3/074f71e156faecc69724e62cc987f5104d3c940c_ligand_2.pdbqt
 12 12 0 0 0
SMALL
GASTEIGER

@<TRIPOS>ATOM
      1  C          7.2650   -1.2740   -2.1510 C.3     1  UNL1        0.1270
      2  C          8.7090   -1.3420   -2.4750 C.2     1  UNL1        0.3030
      3  O          9.1800   -2.2870   -3.1550 O.2     1  UNL1       -0.2520
      4  O          9.5830   -0.3610   -2.0340 O.3     1  UNL1       -0.4810
      5  H          9.6540   -0.1680   -1.0310 H       1  UNL1        0.2960
      6  C          7.1090   -1.3910   -0.6660 C.3     1  UNL1        0.0470
      7  C          6.3620   -0.2910   -0.0580 C.2     1  UNL1       -0.0470
      8  C          5.9000   -0.3840    1.2350 C.2     1  UNL1        0.0040
      9  C          6.1250    0.8470   -0.7940 C.2     1  UNL1        0.0040
     10  C          5.1950    0.7060    1.7510 C.2     1  UNL1        0.0000
     11  C          5.4280    1.9230   -0.2820 C.2     1  UNL1        0.0000
     12  C          4.9610    1.8380    1.0120 C.2     1  UNL1        0.0000
@<TRIPOS>BOND
     1     3     2    2
     2     2     1    1
     3     2     4    1
     4     1     6    1
     5     4     5    1
     6     9    11    1
     7     9     7    2
     8     6     7    1
     9    11    12    2
    10     7     8    1
    11    12    10    1
    12     8    10    2
