@<TRIPOS>MOLECULE
/home/cewinharhar/GITHUB/reincatalyze/data/processed/docking_pred/2023-May-02-0947_maxeplen10_maxtrainstep1000_seadep32_gamma099_lrac9e-4_lrcr1e-3/088b63c47bd4d7a6949fea46fb2e227d24226938_ligand_2.pdbqt
 12 12 0 0 0
SMALL
GASTEIGER

@<TRIPOS>ATOM
      1  C          5.4720    2.8900   -0.0360 C.3     1  UNL1        0.1270
      2  C          6.2490    3.8470    0.7860 C.2     1  UNL1        0.3030
      3  O          6.9080    4.7750    0.2550 O.2     1  UNL1       -0.2520
      4  O          6.2690    3.7440    2.1680 O.3     1  UNL1       -0.4810
      5  H          7.0190    3.2120    2.6190 H       1  UNL1        0.2960
      6  C          4.9160    1.8340    0.8710 C.3     1  UNL1        0.0470
      7  C          5.7020    0.6020    0.9000 C.2     1  UNL1       -0.0470
      8  C          6.3560    0.1570   -0.2250 C.2     1  UNL1        0.0040
      9  C          5.7850   -0.1140    2.0730 C.2     1  UNL1        0.0040
     10  C          7.0890   -1.0270   -0.1240 C.2     1  UNL1        0.0000
     11  C          6.5100   -1.2850    2.1710 C.2     1  UNL1        0.0000
     12  C          7.1680   -1.7370    1.0470 C.2     1  UNL1        0.0000
@<TRIPOS>BOND
     1     8    10    1
     2     8     7    2
     3    10    12    2
     4     1     2    1
     5     1     6    1
     6     3     2    2
     7     2     4    1
     8     6     7    1
     9     7     9    1
    10    12    11    1
    11     9    11    2
    12     4     5    1
