@<TRIPOS>MOLECULE
/home/cewinharhar/GITHUB/reincatalyze/data/processed/docking_pred/2023-May-02-0947_maxeplen10_maxtrainstep1000_seadep32_gamma099_lrac9e-4_lrcr1e-3/088b63c47bd4d7a6949fea46fb2e227d24226938_ligand_2.pdbqt
 12 12 0 0 0
SMALL
GASTEIGER

@<TRIPOS>ATOM
      1  C          8.4060   -0.6580   -2.0740 C.3     1  UNL1        0.1270
      2  C          8.3760   -1.9010   -2.8800 C.2     1  UNL1        0.3030
      3  O          7.2900   -2.4150   -3.2430 O.2     1  UNL1       -0.2520
      4  O          9.5510   -2.5320   -3.2550 O.3     1  UNL1       -0.4810
      5  H          9.5080   -3.4700   -3.6640 H       1  UNL1        0.2960
      6  C          7.0300   -0.0640   -2.0720 C.3     1  UNL1        0.0470
      7  C          6.4580    0.1050   -0.7380 C.2     1  UNL1       -0.0470
      8  C          5.8040    1.2660   -0.3950 C.2     1  UNL1        0.0040
      9  C          6.5760   -0.9150    0.1780 C.2     1  UNL1        0.0040
     10  C          5.2810    1.3580    0.8970 C.2     1  UNL1        0.0000
     11  C          6.0590   -0.8220    1.4550 C.2     1  UNL1        0.0000
     12  C          5.4030    0.3380    1.8070 C.2     1  UNL1        0.0000
@<TRIPOS>BOND
     1     5     4    1
     2     4     2    1
     3     3     2    2
     4     2     1    1
     5     1     6    1
     6     6     7    1
     7     7     8    2
     8     7     9    1
     9     8    10    1
    10     9    11    2
    11    10    12    2
    12    11    12    1
