@<TRIPOS>MOLECULE
/home/cewinharhar/GITHUB/reincatalyze/data/processed/docking_pred/2023-May-02-0947_maxeplen10_maxtrainstep1000_seadep32_gamma099_lrac9e-4_lrcr1e-3/08a74a7e320cd1ecb560e86b752820c061dfae11_ligand_2.pdbqt
 12 12 0 0 0
SMALL
GASTEIGER

@<TRIPOS>ATOM
      1  C          5.9490   -0.8860    1.7730 C.3     1  UNL1        0.1270
      2  C          5.3740    0.4520    2.0470 C.2     1  UNL1        0.3030
      3  O          4.1960    0.5800    2.4660 O.2     1  UNL1       -0.2520
      4  O          6.1210    1.6010    1.8470 O.3     1  UNL1       -0.4810
      5  H          6.4990    2.1000    2.6580 H       1  UNL1        0.2960
      6  C          7.4090   -0.7190    1.4810 C.3     1  UNL1        0.0470
      7  C          7.7250   -0.6370    0.0560 C.2     1  UNL1       -0.0470
      8  C          8.8630    0.0050   -0.3770 C.2     1  UNL1        0.0040
      9  C          6.8710   -1.2130   -0.8550 C.2     1  UNL1        0.0040
     10  C          9.1020    0.0440   -1.7520 C.2     1  UNL1        0.0000
     11  C          7.1080   -1.1730   -2.2150 C.2     1  UNL1        0.0000
     12  C          8.2450   -0.5320   -2.6570 C.2     1  UNL1        0.0000
@<TRIPOS>BOND
     1    12    11    2
     2    12    10    1
     3    11     9    1
     4    10     8    2
     5     9     7    2
     6     8     7    1
     7     7     6    1
     8     6     1    1
     9     1     2    1
    10     4     2    1
    11     4     5    1
    12     2     3    2
