@<TRIPOS>MOLECULE
/home/cewinharhar/GITHUB/reincatalyze/data/processed/docking_pred/2023-May-02-0947_maxeplen10_maxtrainstep1000_seadep32_gamma099_lrac9e-4_lrcr1e-3/08a74a7e320cd1ecb560e86b752820c061dfae11_ligand_2.pdbqt
 12 12 0 0 0
SMALL
GASTEIGER

@<TRIPOS>ATOM
      1  C          5.0960   -0.1230    2.0360 C.3     1  UNL1        0.1270
      2  C          4.4080    1.1880    1.9710 C.2     1  UNL1        0.3030
      3  O          4.9170    2.1600    1.3610 O.2     1  UNL1       -0.2520
      4  O          3.1810    1.3770    2.5850 O.3     1  UNL1       -0.4810
      5  H          2.7210    2.2890    2.5150 H       1  UNL1        0.2960
      6  C          6.5430    0.0880    1.7110 C.3     1  UNL1        0.0470
      7  C          7.0200   -0.7030    0.5780 C.2     1  UNL1       -0.0470
      8  C          6.6410   -0.3890   -0.7070 C.2     1  UNL1        0.0040
      9  C          7.8590   -1.7690    0.8080 C.2     1  UNL1        0.0040
     10  C          7.1350   -1.1870   -1.7420 C.2     1  UNL1        0.0000
     11  C          8.3460   -2.5560   -0.2160 C.2     1  UNL1        0.0000
     12  C          7.9710   -2.2500   -1.5060 C.2     1  UNL1        0.0000
@<TRIPOS>BOND
     1    10    12    2
     2    10     8    1
     3    12    11    1
     4     8     7    2
     5    11     9    2
     6     7     9    1
     7     7     6    1
     8     3     2    2
     9     6     1    1
    10     2     1    1
    11     2     4    1
    12     5     4    1
