@<TRIPOS>MOLECULE
/home/cewinharhar/GITHUB/reincatalyze/data/processed/docking_pred/2023-May-02-0947_maxeplen10_maxtrainstep1000_seadep32_gamma099_lrac9e-4_lrcr1e-3/08e84468c81f1cd513554bb3b422d21af10d92b8_ligand_2.pdbqt
 12 12 0 0 0
SMALL
GASTEIGER

@<TRIPOS>ATOM
      1  C          8.4030   -0.6580   -2.0740 C.3     1  UNL1        0.1270
      2  C          8.3720   -1.9050   -2.8740 C.2     1  UNL1        0.3030
      3  O          7.2850   -2.4080   -3.2530 O.2     1  UNL1       -0.2520
      4  O          9.5450   -2.5530   -3.2250 O.3     1  UNL1       -0.4810
      5  H          9.5750   -3.5760   -3.2170 H       1  UNL1        0.2960
      6  C          7.0250   -0.0680   -2.0680 C.3     1  UNL1        0.0470
      7  C          6.4580    0.1030   -0.7310 C.2     1  UNL1       -0.0470
      8  C          5.8040    1.2630   -0.3880 C.2     1  UNL1        0.0040
      9  C          6.5830   -0.9140    0.1870 C.2     1  UNL1        0.0040
     10  C          5.2860    1.3580    0.9050 C.2     1  UNL1        0.0000
     11  C          6.0710   -0.8190    1.4650 C.2     1  UNL1        0.0000
     12  C          5.4150    0.3410    1.8170 C.2     1  UNL1        0.0000
@<TRIPOS>BOND
     1     3     2    2
     2     4     5    1
     3     4     2    1
     4     2     1    1
     5     1     6    1
     6     6     7    1
     7     7     8    2
     8     7     9    1
     9     8    10    1
    10     9    11    2
    11    10    12    2
    12    11    12    1
