@<TRIPOS>MOLECULE
/home/cewinharhar/GITHUB/reincatalyze/data/processed/docking_pred/2023-May-02-0947_maxeplen10_maxtrainstep1000_seadep32_gamma099_lrac9e-4_lrcr1e-3/090474ec6ad34f6c7e6271970b3dfdf762d08d64_ligand_2.pdbqt
 12 12 0 0 0
SMALL
GASTEIGER

@<TRIPOS>ATOM
      1  C          8.4030   -0.6700   -2.0590 C.3     1  UNL1        0.1270
      2  C          8.3710   -1.9040   -2.8790 C.2     1  UNL1        0.3030
      3  O          7.2830   -2.4090   -3.2530 O.2     1  UNL1       -0.2520
      4  O          9.5440   -2.5380   -3.2540 O.3     1  UNL1       -0.4810
      5  H         10.4390   -2.1850   -2.9030 H       1  UNL1        0.2960
      6  C          7.0300   -0.0690   -2.0600 C.3     1  UNL1        0.0470
      7  C          6.4520    0.0930   -0.7270 C.2     1  UNL1       -0.0470
      8  C          5.7980    1.2520   -0.3800 C.2     1  UNL1        0.0040
      9  C          6.5660   -0.9330    0.1830 C.2     1  UNL1        0.0040
     10  C          5.2690    1.3370    0.9100 C.2     1  UNL1        0.0000
     11  C          6.0430   -0.8470    1.4580 C.2     1  UNL1        0.0000
     12  C          5.3870    0.3110    1.8140 C.2     1  UNL1        0.0000
@<TRIPOS>BOND
     1     4     5    1
     2     4     2    1
     3     3     2    2
     4     2     1    1
     5     6     1    1
     6     6     7    1
     7     7     8    2
     8     7     9    1
     9     8    10    1
    10     9    11    2
    11    10    12    2
    12    11    12    1
