MODEL 1
REMARK VINA RESULT:      -7.0      0.000      0.000
REMARK SMILES O=C(O)CCc1ccccc1
REMARK SMILES IDX 4 1 2 2 1 3 3 4 5 6 6 7 7 8 11 9 8 10 10 11 9 12
REMARK H PARENT 3 5
REMARK Flexibility Score: inf
ROOT
ATOM      1  C   UNL     1       8.403  -0.670  -2.059  1.00  0.00     0.127 C 
ENDROOT
BRANCH   1   2
ATOM      2  C   UNL     1       8.371  -1.904  -2.879  1.00  0.00     0.303 C 
ATOM      3  O   UNL     1       7.283  -2.409  -3.253  1.00  0.00    -0.252 OA
BRANCH   2   4
ATOM      4  O   UNL     1       9.544  -2.538  -3.254  1.00  0.00    -0.481 OA
ATOM      5  H   UNL     1      10.439  -2.185  -2.903  1.00  0.00     0.296 HD
ENDBRANCH   2   4
ENDBRANCH   1   2
BRANCH   1   6
ATOM      6  C   UNL     1       7.030  -0.069  -2.060  1.00  0.00     0.047 C 
BRANCH   6   7
ATOM      7  C   UNL     1       6.452   0.093  -0.727  1.00  0.00    -0.047 A 
ATOM      8  C   UNL     1       5.798   1.252  -0.380  1.00  0.00     0.004 A 
ATOM      9  C   UNL     1       6.566  -0.933   0.183  1.00  0.00     0.004 A 
ATOM     10  C   UNL     1       5.269   1.337   0.910  1.00  0.00     0.000 A 
ATOM     11  C   UNL     1       6.043  -0.847   1.458  1.00  0.00     0.000 A 
ATOM     12  C   UNL     1       5.387   0.311   1.814  1.00  0.00     0.000 A 
ENDBRANCH   6   7
ENDBRANCH   1   6
TORSDOF 4
ENDMDL
MODEL 2
REMARK VINA RESULT:      -6.7      1.413      2.195
REMARK SMILES O=C(O)CCc1ccccc1
REMARK SMILES IDX 4 1 2 2 1 3 3 4 5 6 6 7 7 8 11 9 8 10 10 11 9 12
REMARK H PARENT 3 5
REMARK Flexibility Score: inf
ROOT
ATOM      1  C   UNL     1       8.333  -0.542  -2.267  1.00  0.00     0.127 C 
ENDROOT
BRANCH   1   2
ATOM      2  C   UNL     1       8.416  -1.859  -2.942  1.00  0.00     0.303 C 
ATOM      3  O   UNL     1       9.516  -2.450  -3.083  1.00  0.00    -0.252 OA
BRANCH   2   4
ATOM      4  O   UNL     1       7.279  -2.476  -3.437  1.00  0.00    -0.481 OA
ATOM      5  H   UNL     1       7.287  -2.851  -4.389  1.00  0.00     0.296 HD
ENDBRANCH   2   4
ENDBRANCH   1   2
BRANCH   1   6
ATOM      6  C   UNL     1       7.019  -0.462  -1.551  1.00  0.00     0.047 C 
BRANCH   6   7
ATOM      7  C   UNL     1       6.845   0.758  -0.764  1.00  0.00    -0.047 A 
ATOM      8  C   UNL     1       7.917   1.353  -0.142  1.00  0.00     0.004 A 
ATOM      9  C   UNL     1       5.590   1.310  -0.652  1.00  0.00     0.004 A 
ATOM     10  C   UNL     1       7.677   2.517   0.593  1.00  0.00     0.000 A 
ATOM     11  C   UNL     1       5.354   2.461   0.074  1.00  0.00     0.000 A 
ATOM     12  C   UNL     1       6.423   3.063   0.702  1.00  0.00     0.000 A 
ENDBRANCH   6   7
ENDBRANCH   1   6
TORSDOF 4
ENDMDL
