@<TRIPOS>MOLECULE
/home/cewinharhar/GITHUB/reincatalyze/data/processed/docking_pred/2023-May-02-0947_maxeplen10_maxtrainstep1000_seadep32_gamma099_lrac9e-4_lrcr1e-3/090474ec6ad34f6c7e6271970b3dfdf762d08d64_ligand_2.pdbqt
 12 12 0 0 0
SMALL
GASTEIGER

@<TRIPOS>ATOM
      1  C          8.3330   -0.5420   -2.2670 C.3     1  UNL1        0.1270
      2  C          8.4160   -1.8590   -2.9420 C.2     1  UNL1        0.3030
      3  O          9.5160   -2.4500   -3.0830 O.2     1  UNL1       -0.2520
      4  O          7.2790   -2.4760   -3.4370 O.3     1  UNL1       -0.4810
      5  H          7.2870   -2.8510   -4.3890 H       1  UNL1        0.2960
      6  C          7.0190   -0.4620   -1.5510 C.3     1  UNL1        0.0470
      7  C          6.8450    0.7580   -0.7640 C.2     1  UNL1       -0.0470
      8  C          7.9170    1.3530   -0.1420 C.2     1  UNL1        0.0040
      9  C          5.5900    1.3100   -0.6520 C.2     1  UNL1        0.0040
     10  C          7.6770    2.5170    0.5930 C.2     1  UNL1        0.0000
     11  C          5.3540    2.4610    0.0740 C.2     1  UNL1        0.0000
     12  C          6.4230    3.0630    0.7020 C.2     1  UNL1        0.0000
@<TRIPOS>BOND
     1     5     4    1
     2     4     2    1
     3     3     2    2
     4     2     1    1
     5     1     6    1
     6     6     7    1
     7     7     9    2
     8     7     8    1
     9     9    11    1
    10     8    10    2
    11    11    12    2
    12    10    12    1
