MODEL 1
REMARK VINA RESULT:      -7.0      0.000      0.000
REMARK SMILES O=C(O)CCc1ccccc1
REMARK SMILES IDX 4 1 2 2 1 3 3 4 5 6 6 7 7 8 11 9 8 10 10 11 9 12
REMARK H PARENT 3 5
REMARK Flexibility Score: inf
ROOT
ATOM      1  C   UNL     1       8.634  -0.688  -2.063  1.00  0.00     0.127 C 
ENDROOT
BRANCH   1   2
ATOM      2  C   UNL     1       8.671  -1.925  -2.880  1.00  0.00     0.303 C 
ATOM      3  O   UNL     1       9.756  -2.502  -3.138  1.00  0.00    -0.252 OA
BRANCH   2   4
ATOM      4  O   UNL     1       7.504  -2.478  -3.382  1.00  0.00    -0.481 OA
ATOM      5  H   UNL     1       6.644  -1.923  -3.380  1.00  0.00     0.296 HD
ENDBRANCH   2   4
ENDBRANCH   1   2
BRANCH   1   6
ATOM      6  C   UNL     1       7.240  -0.142  -2.099  1.00  0.00     0.047 C 
BRANCH   6   7
ATOM      7  C   UNL     1       6.624   0.004  -0.781  1.00  0.00    -0.047 A 
ATOM      8  C   UNL     1       6.681  -1.017   0.139  1.00  0.00     0.004 A 
ATOM      9  C   UNL     1       5.984   1.180  -0.465  1.00  0.00     0.004 A 
ATOM     10  C   UNL     1       6.072  -0.808   1.378  1.00  0.00     0.000 A 
ATOM     11  C   UNL     1       5.383   1.385   0.760  1.00  0.00     0.000 A 
ATOM     12  C   UNL     1       5.435   0.367   1.687  1.00  0.00     0.000 A 
ENDBRANCH   6   7
ENDBRANCH   1   6
TORSDOF 4
ENDMDL
