@<TRIPOS>MOLECULE
/home/cewinharhar/GITHUB/reincatalyze/data/processed/docking_pred/2023-May-02-0947_maxeplen10_maxtrainstep1000_seadep32_gamma099_lrac9e-4_lrcr1e-3/09c0e00cbaa22f287e1ef7d21129eabb08ea3244_ligand_2.pdbqt
 12 12 0 0 0
SMALL
GASTEIGER

@<TRIPOS>ATOM
      1  C          8.6340   -0.6880   -2.0630 C.3     1  UNL1        0.1270
      2  C          8.6710   -1.9250   -2.8800 C.2     1  UNL1        0.3030
      3  O          9.7560   -2.5020   -3.1380 O.2     1  UNL1       -0.2520
      4  O          7.5040   -2.4780   -3.3820 O.3     1  UNL1       -0.4810
      5  H          6.6440   -1.9230   -3.3800 H       1  UNL1        0.2960
      6  C          7.2400   -0.1420   -2.0990 C.3     1  UNL1        0.0470
      7  C          6.6240    0.0040   -0.7810 C.2     1  UNL1       -0.0470
      8  C          6.6810   -1.0170    0.1390 C.2     1  UNL1        0.0040
      9  C          5.9840    1.1800   -0.4650 C.2     1  UNL1        0.0040
     10  C          6.0720   -0.8080    1.3780 C.2     1  UNL1        0.0000
     11  C          5.3830    1.3850    0.7600 C.2     1  UNL1        0.0000
     12  C          5.4350    0.3670    1.6870 C.2     1  UNL1        0.0000
@<TRIPOS>BOND
     1     4     5    1
     2     4     2    1
     3     3     2    2
     4     2     1    1
     5     6     1    1
     6     6     7    1
     7     7     9    2
     8     7     8    1
     9     9    11    1
    10     8    10    2
    11    11    12    2
    12    10    12    1
