@<TRIPOS>MOLECULE
/home/cewinharhar/GITHUB/reincatalyze/data/processed/docking_pred/2023-May-02-0947_maxeplen10_maxtrainstep1000_seadep32_gamma099_lrac9e-4_lrcr1e-3/09c0e00cbaa22f287e1ef7d21129eabb08ea3244_ligand_2.pdbqt
 12 12 0 0 0
SMALL
GASTEIGER

@<TRIPOS>ATOM
      1  C          5.7590    0.9760   -0.1070 C.3     1  UNL1        0.1270
      2  C          5.2810    1.4950    1.1960 C.2     1  UNL1        0.3030
      3  O          5.2610    2.7270    1.4390 O.2     1  UNL1       -0.2520
      4  O          4.8420    0.6300    2.1860 O.3     1  UNL1       -0.4810
      5  H          5.4230    0.4830    3.0160 H       1  UNL1        0.2960
      6  C          6.4940   -0.3060    0.1370 C.3     1  UNL1        0.0470
      7  C          7.9380   -0.2130   -0.0720 C.2     1  UNL1       -0.0470
      8  C          8.4660    0.7270   -0.9260 C.2     1  UNL1        0.0040
      9  C          8.7710   -1.0780    0.5990 C.2     1  UNL1        0.0040
     10  C          9.8540    0.7600   -1.0770 C.2     1  UNL1        0.0000
     11  C         10.1430   -1.0450    0.4480 C.2     1  UNL1        0.0000
     12  C         10.6800   -0.1060   -0.4060 C.2     1  UNL1        0.0000
@<TRIPOS>BOND
     1    10     8    1
     2    10    12    2
     3     8     7    2
     4    12    11    1
     5     1     6    1
     6     1     2    1
     7     7     6    1
     8     7     9    1
     9    11     9    2
    10     2     3    2
    11     2     4    1
    12     4     5    1
