@<TRIPOS>MOLECULE
/home/cewinharhar/GITHUB/reincatalyze/data/processed/docking_pred/2023-May-02-0947_maxeplen10_maxtrainstep1000_seadep32_gamma099_lrac9e-4_lrcr1e-3/09c0e00cbaa22f287e1ef7d21129eabb08ea3244_ligand_2.pdbqt
 12 12 0 0 0
SMALL
GASTEIGER

@<TRIPOS>ATOM
      1  C          8.2840    0.2680   -2.2680 C.3     1  UNL1        0.1270
      2  C          9.5100   -0.0150   -1.4840 C.2     1  UNL1        0.3030
      3  O          9.7920   -1.1820   -1.1180 O.2     1  UNL1       -0.2520
      4  O         10.3790    1.0050   -1.1330 O.3     1  UNL1       -0.4810
      5  H         11.2550    1.1170   -1.6510 H       1  UNL1        0.2960
      6  C          7.1930   -0.6350   -1.7790 C.3     1  UNL1        0.0470
      7  C          6.5110   -0.1490   -0.5810 C.2     1  UNL1       -0.0470
      8  C          5.9320    1.0990   -0.5590 C.2     1  UNL1        0.0040
      9  C          6.4510   -0.9560    0.5310 C.2     1  UNL1        0.0040
     10  C          5.2960    1.4970    0.6190 C.2     1  UNL1        0.0000
     11  C          5.8230   -0.5600    1.6950 C.2     1  UNL1        0.0000
     12  C          5.2410    0.6890    1.7260 C.2     1  UNL1        0.0000
@<TRIPOS>BOND
     1     1     6    1
     2     1     2    1
     3     6     7    1
     4     5     4    1
     5     2     4    1
     6     2     3    2
     7     7     8    2
     8     7     9    1
     9     8    10    1
    10     9    11    2
    11    10    12    2
    12    11    12    1
