@<TRIPOS>MOLECULE
/home/cewinharhar/GITHUB/reincatalyze/data/processed/docking_pred/2023-May-02-0947_maxeplen10_maxtrainstep1000_seadep32_gamma099_lrac9e-4_lrcr1e-3/0bc78f1071f374665515956646110ea4a2a90639_ligand_2.pdbqt
 12 12 0 0 0
SMALL
GASTEIGER

@<TRIPOS>ATOM
      1  C          8.4060   -0.6550   -2.0790 C.3     1  UNL1        0.1270
      2  C          8.3750   -1.9030   -2.8770 C.2     1  UNL1        0.3030
      3  O          7.2890   -2.4110   -3.2490 O.2     1  UNL1       -0.2520
      4  O          9.5490   -2.5470   -3.2350 O.3     1  UNL1       -0.4810
      5  H         10.3680   -1.9880   -3.4930 H       1  UNL1        0.2960
      6  C          7.0290   -0.0660   -2.0720 C.3     1  UNL1        0.0470
      7  C          6.4600    0.1010   -0.7360 C.2     1  UNL1       -0.0470
      8  C          5.8060    1.2600   -0.3890 C.2     1  UNL1        0.0040
      9  C          6.5830   -0.9200    0.1780 C.2     1  UNL1        0.0040
     10  C          5.2870    1.3500    0.9040 C.2     1  UNL1        0.0000
     11  C          6.0690   -0.8290    1.4570 C.2     1  UNL1        0.0000
     12  C          5.4130    0.3290    1.8120 C.2     1  UNL1        0.0000
@<TRIPOS>BOND
     1     5     4    1
     2     3     2    2
     3     4     2    1
     4     2     1    1
     5     1     6    1
     6     6     7    1
     7     7     8    2
     8     7     9    1
     9     8    10    1
    10     9    11    2
    11    10    12    2
    12    11    12    1
