@<TRIPOS>MOLECULE
/home/cewinharhar/GITHUB/reincatalyze/data/processed/docking_pred/2023-May-02-0947_maxeplen10_maxtrainstep1000_seadep32_gamma099_lrac9e-4_lrcr1e-3/0c0669ff2f8dcec30d9aff9f411b757c1c1ac29f_ligand_2.pdbqt
 12 12 0 0 0
SMALL
GASTEIGER

@<TRIPOS>ATOM
      1  C          8.4040   -0.6590   -2.0720 C.3     1  UNL1        0.1270
      2  C          8.3730   -1.9010   -2.8810 C.2     1  UNL1        0.3030
      3  O          7.2850   -2.4100   -3.2490 O.2     1  UNL1       -0.2520
      4  O          9.5470   -2.5360   -3.2520 O.3     1  UNL1       -0.4810
      5  H         10.3060   -2.6230   -2.5710 H       1  UNL1        0.2960
      6  C          7.0290   -0.0640   -2.0690 C.3     1  UNL1        0.0470
      7  C          6.4570    0.1020   -0.7340 C.2     1  UNL1       -0.0470
      8  C          5.8040    1.2630   -0.3880 C.2     1  UNL1        0.0040
      9  C          6.5760   -0.9200    0.1800 C.2     1  UNL1        0.0040
     10  C          5.2820    1.3520    0.9040 C.2     1  UNL1        0.0000
     11  C          6.0590   -0.8290    1.4570 C.2     1  UNL1        0.0000
     12  C          5.4040    0.3300    1.8120 C.2     1  UNL1        0.0000
@<TRIPOS>BOND
     1     4     2    1
     2     4     5    1
     3     3     2    2
     4     2     1    1
     5     1     6    1
     6     6     7    1
     7     7     8    2
     8     7     9    1
     9     8    10    1
    10     9    11    2
    11    10    12    2
    12    11    12    1
