MODEL 1
REMARK VINA RESULT:      -7.3      0.000      0.000
REMARK SMILES O=C(O)CCc1ccccc1
REMARK SMILES IDX 4 1 2 2 1 3 3 4 5 6 6 7 7 8 11 9 8 10 10 11 9 12
REMARK H PARENT 3 5
REMARK Flexibility Score: inf
ROOT
ATOM      1  C   UNL     1       8.404  -0.659  -2.072  1.00  0.00     0.127 C 
ENDROOT
BRANCH   1   2
ATOM      2  C   UNL     1       8.373  -1.901  -2.881  1.00  0.00     0.303 C 
ATOM      3  O   UNL     1       7.285  -2.410  -3.249  1.00  0.00    -0.252 OA
BRANCH   2   4
ATOM      4  O   UNL     1       9.547  -2.536  -3.252  1.00  0.00    -0.481 OA
ATOM      5  H   UNL     1      10.306  -2.623  -2.571  1.00  0.00     0.296 HD
ENDBRANCH   2   4
ENDBRANCH   1   2
BRANCH   1   6
ATOM      6  C   UNL     1       7.029  -0.064  -2.069  1.00  0.00     0.047 C 
BRANCH   6   7
ATOM      7  C   UNL     1       6.457   0.102  -0.734  1.00  0.00    -0.047 A 
ATOM      8  C   UNL     1       5.804   1.263  -0.388  1.00  0.00     0.004 A 
ATOM      9  C   UNL     1       6.576  -0.920   0.180  1.00  0.00     0.004 A 
ATOM     10  C   UNL     1       5.282   1.352   0.904  1.00  0.00     0.000 A 
ATOM     11  C   UNL     1       6.059  -0.829   1.457  1.00  0.00     0.000 A 
ATOM     12  C   UNL     1       5.404   0.330   1.812  1.00  0.00     0.000 A 
ENDBRANCH   6   7
ENDBRANCH   1   6
TORSDOF 4
ENDMDL
