@<TRIPOS>MOLECULE
/home/cewinharhar/GITHUB/reincatalyze/data/processed/docking_pred/2023-May-02-0947_maxeplen10_maxtrainstep1000_seadep32_gamma099_lrac9e-4_lrcr1e-3/0df60b8790b800bbceb9ee276e91b409308b6f54_ligand_2.pdbqt
 12 12 0 0 0
SMALL
GASTEIGER

@<TRIPOS>ATOM
      1  C          5.5250    1.3990   -0.2700 C.3     1  UNL1        0.1270
      2  C          5.3460    1.7600    1.1560 C.2     1  UNL1        0.3030
      3  O          5.6170    2.9120    1.5740 O.2     1  UNL1       -0.2520
      4  O          4.8730    0.8310    2.0690 O.3     1  UNL1       -0.4810
      5  H          3.8660    0.6580    2.1320 H       1  UNL1        0.2960
      6  C          6.3650    0.1600   -0.3410 C.3     1  UNL1        0.0470
      7  C          7.5490    0.2920   -1.1870 C.2     1  UNL1       -0.0470
      8  C          7.5030   -0.0500   -2.5190 C.2     1  UNL1        0.0040
      9  C          8.7170    0.7680   -0.6380 C.2     1  UNL1        0.0040
     10  C          8.6720    0.1030   -3.2680 C.2     1  UNL1        0.0000
     11  C          9.8720    0.9180   -1.3800 C.2     1  UNL1        0.0000
     12  C          9.8350    0.5760   -2.7150 C.2     1  UNL1        0.0000
@<TRIPOS>BOND
     1    10    12    2
     2    10     8    1
     3    12    11    1
     4     8     7    2
     5    11     9    2
     6     7     9    1
     7     7     6    1
     8     6     1    1
     9     1     2    1
    10     2     3    2
    11     2     4    1
    12     4     5    1
