@<TRIPOS>MOLECULE
/home/cewinharhar/GITHUB/reincatalyze/data/processed/docking_pred/2023-May-02-0947_maxeplen10_maxtrainstep1000_seadep32_gamma099_lrac9e-4_lrcr1e-3/0df60b8790b800bbceb9ee276e91b409308b6f54_ligand_2.pdbqt
 12 12 0 0 0
SMALL
GASTEIGER

@<TRIPOS>ATOM
      1  C          8.4020   -0.6590   -2.0720 C.3     1  UNL1        0.1270
      2  C          8.3720   -1.9050   -2.8730 C.2     1  UNL1        0.3030
      3  O          7.2860   -2.4080   -3.2530 O.2     1  UNL1       -0.2520
      4  O          9.5460   -2.5510   -3.2250 O.3     1  UNL1       -0.4810
      5  H          9.9030   -3.3020   -2.6280 H       1  UNL1        0.2960
      6  C          7.0250   -0.0690   -2.0660 C.3     1  UNL1        0.0470
      7  C          6.4570    0.1020   -0.7300 C.2     1  UNL1       -0.0470
      8  C          5.8040    1.2630   -0.3870 C.2     1  UNL1        0.0040
      9  C          6.5810   -0.9150    0.1880 C.2     1  UNL1        0.0040
     10  C          5.2860    1.3580    0.9070 C.2     1  UNL1        0.0000
     11  C          6.0690   -0.8200    1.4670 C.2     1  UNL1        0.0000
     12  C          5.4130    0.3400    1.8180 C.2     1  UNL1        0.0000
@<TRIPOS>BOND
     1     3     2    2
     2     4     2    1
     3     4     5    1
     4     2     1    1
     5     1     6    1
     6     6     7    1
     7     7     8    2
     8     7     9    1
     9     8    10    1
    10     9    11    2
    11    10    12    2
    12    11    12    1
