MODEL 1
REMARK VINA RESULT:      -7.3      0.000      0.000
REMARK SMILES O=C(O)CCc1ccccc1
REMARK SMILES IDX 4 1 2 2 1 3 3 4 5 6 6 7 7 8 11 9 8 10 10 11 9 12
REMARK H PARENT 3 5
REMARK Flexibility Score: inf
ROOT
ATOM      1  C   UNL     1       8.402  -0.659  -2.072  1.00  0.00     0.127 C 
ENDROOT
BRANCH   1   2
ATOM      2  C   UNL     1       8.372  -1.905  -2.873  1.00  0.00     0.303 C 
ATOM      3  O   UNL     1       7.286  -2.408  -3.253  1.00  0.00    -0.252 OA
BRANCH   2   4
ATOM      4  O   UNL     1       9.546  -2.551  -3.225  1.00  0.00    -0.481 OA
ATOM      5  H   UNL     1       9.903  -3.302  -2.628  1.00  0.00     0.296 HD
ENDBRANCH   2   4
ENDBRANCH   1   2
BRANCH   1   6
ATOM      6  C   UNL     1       7.025  -0.069  -2.066  1.00  0.00     0.047 C 
BRANCH   6   7
ATOM      7  C   UNL     1       6.457   0.102  -0.730  1.00  0.00    -0.047 A 
ATOM      8  C   UNL     1       5.804   1.263  -0.387  1.00  0.00     0.004 A 
ATOM      9  C   UNL     1       6.581  -0.915   0.188  1.00  0.00     0.004 A 
ATOM     10  C   UNL     1       5.286   1.358   0.907  1.00  0.00     0.000 A 
ATOM     11  C   UNL     1       6.069  -0.820   1.467  1.00  0.00     0.000 A 
ATOM     12  C   UNL     1       5.413   0.340   1.818  1.00  0.00     0.000 A 
ENDBRANCH   6   7
ENDBRANCH   1   6
TORSDOF 4
ENDMDL
