MODEL 1
REMARK VINA RESULT:      -5.5      0.000      0.000
REMARK SMILES O=C(O)CCc1ccccc1
REMARK SMILES IDX 4 1 2 2 1 3 3 4 5 6 6 7 7 8 11 9 8 10 10 11 9 12
REMARK H PARENT 3 5
REMARK Flexibility Score: inf
ROOT
ATOM      1  C   UNL     1       6.331  -0.551   2.733  1.00  0.00     0.127 C 
ENDROOT
BRANCH   1   2
ATOM      2  C   UNL     1       7.108  -1.503   1.905  1.00  0.00     0.303 C 
ATOM      3  O   UNL     1       8.271  -1.230   1.518  1.00  0.00    -0.252 OA
BRANCH   2   4
ATOM      4  O   UNL     1       6.570  -2.725   1.535  1.00  0.00    -0.481 OA
ATOM      5  H   UNL     1       6.756  -3.091   0.596  1.00  0.00     0.296 HD
ENDBRANCH   2   4
ENDBRANCH   1   2
BRANCH   1   6
ATOM      6  C   UNL     1       5.227   0.012   1.891  1.00  0.00     0.047 C 
BRANCH   6   7
ATOM      7  C   UNL     1       5.529   1.320   1.312  1.00  0.00    -0.047 A 
ATOM      8  C   UNL     1       4.859   1.768   0.197  1.00  0.00     0.004 A 
ATOM      9  C   UNL     1       6.495   2.106   1.897  1.00  0.00     0.004 A 
ATOM     10  C   UNL     1       5.199   3.027  -0.301  1.00  0.00     0.000 A 
ATOM     11  C   UNL     1       6.830   3.351   1.402  1.00  0.00     0.000 A 
ATOM     12  C   UNL     1       6.164   3.806   0.285  1.00  0.00     0.000 A 
ENDBRANCH   6   7
ENDBRANCH   1   6
TORSDOF 4
ENDMDL
MODEL 2
REMARK VINA RESULT:      -3.7     11.759     14.300
REMARK SMILES O=C(O)CCc1ccccc1
REMARK SMILES IDX 4 1 2 2 1 3 3 4 5 6 6 7 7 8 11 9 8 10 10 11 9 12
REMARK H PARENT 3 5
REMARK Flexibility Score: inf
ROOT
ATOM      1  C   UNL     1       7.954  -6.483  10.960  1.00  0.00     0.127 C 
ENDROOT
BRANCH   1   2
ATOM      2  C   UNL     1       8.297  -5.045  11.069  1.00  0.00     0.303 C 
ATOM      3  O   UNL     1       9.213  -4.651  11.832  1.00  0.00    -0.252 OA
BRANCH   2   4
ATOM      4  O   UNL     1       7.612  -4.094  10.330  1.00  0.00    -0.481 OA
ATOM      5  H   UNL     1       7.902  -3.114  10.385  1.00  0.00     0.296 HD
ENDBRANCH   2   4
ENDBRANCH   1   2
BRANCH   1   6
ATOM      6  C   UNL     1       8.567  -7.203  12.122  1.00  0.00     0.047 C 
BRANCH   6   7
ATOM      7  C   UNL     1       9.419  -8.328  11.742  1.00  0.00    -0.047 A 
ATOM      8  C   UNL     1      10.338  -8.203  10.726  1.00  0.00     0.004 A 
ATOM      9  C   UNL     1       9.294  -9.522  12.414  1.00  0.00     0.004 A 
ATOM     10  C   UNL     1      11.119  -9.319  10.417  1.00  0.00     0.000 A 
ATOM     11  C   UNL     1      10.067 -10.624  12.108  1.00  0.00     0.000 A 
ATOM     12  C   UNL     1      10.990 -10.507  11.091  1.00  0.00     0.000 A 
ENDBRANCH   6   7
ENDBRANCH   1   6
TORSDOF 4
ENDMDL
MODEL 3
REMARK VINA RESULT:      -3.7     11.916     13.479
REMARK SMILES O=C(O)CCc1ccccc1
REMARK SMILES IDX 4 1 2 2 1 3 3 4 5 6 6 7 7 8 11 9 8 10 10 11 9 12
REMARK H PARENT 3 5
REMARK Flexibility Score: inf
ROOT
ATOM      1  C   UNL     1       8.131  -6.153  11.376  1.00  0.00     0.127 C 
ENDROOT
BRANCH   1   2
ATOM      2  C   UNL     1       8.245  -4.687  11.563  1.00  0.00     0.303 C 
ATOM      3  O   UNL     1       7.497  -3.891  10.944  1.00  0.00    -0.252 OA
BRANCH   2   4
ATOM      4  O   UNL     1       9.186  -4.154  12.430  1.00  0.00    -0.481 OA
ATOM      5  H   UNL     1       9.136  -3.161  12.673  1.00  0.00     0.296 HD
ENDBRANCH   2   4
ENDBRANCH   1   2
BRANCH   1   6
ATOM      6  C   UNL     1       8.895  -6.531  10.145  1.00  0.00     0.047 C 
BRANCH   6   7
ATOM      7  C   UNL     1      10.158  -7.216  10.416  1.00  0.00    -0.047 A 
ATOM      8  C   UNL     1      10.199  -8.582  10.569  1.00  0.00     0.004 A 
ATOM      9  C   UNL     1      11.314  -6.477  10.516  1.00  0.00     0.004 A 
ATOM     10  C   UNL     1      11.440  -9.169  10.825  1.00  0.00     0.000 A 
ATOM     11  C   UNL     1      12.540  -7.059  10.770  1.00  0.00     0.000 A 
ATOM     12  C   UNL     1      12.590  -8.427  10.925  1.00  0.00     0.000 A 
ENDBRANCH   6   7
ENDBRANCH   1   6
TORSDOF 4
ENDMDL
