@<TRIPOS>MOLECULE
/home/cewinharhar/GITHUB/reincatalyze/data/processed/docking_pred/2023-May-02-0947_maxeplen10_maxtrainstep1000_seadep32_gamma099_lrac9e-4_lrcr1e-3/104e94148118840ff9051874ebdd157f969f5898_ligand_2.pdbqt
 12 12 0 0 0
SMALL
GASTEIGER

@<TRIPOS>ATOM
      1  C          6.3310   -0.5510    2.7330 C.3     1  UNL1        0.1270
      2  C          7.1080   -1.5030    1.9050 C.2     1  UNL1        0.3030
      3  O          8.2710   -1.2300    1.5180 O.2     1  UNL1       -0.2520
      4  O          6.5700   -2.7250    1.5350 O.3     1  UNL1       -0.4810
      5  H          6.7560   -3.0910    0.5960 H       1  UNL1        0.2960
      6  C          5.2270    0.0120    1.8910 C.3     1  UNL1        0.0470
      7  C          5.5290    1.3200    1.3120 C.2     1  UNL1       -0.0470
      8  C          4.8590    1.7680    0.1970 C.2     1  UNL1        0.0040
      9  C          6.4950    2.1060    1.8970 C.2     1  UNL1        0.0040
     10  C          5.1990    3.0270   -0.3010 C.2     1  UNL1        0.0000
     11  C          6.8300    3.3510    1.4020 C.2     1  UNL1        0.0000
     12  C          6.1640    3.8060    0.2850 C.2     1  UNL1        0.0000
@<TRIPOS>BOND
     1    10     8    1
     2    10    12    2
     3     8     7    2
     4    12    11    1
     5     5     4    1
     6     7     6    1
     7     7     9    1
     8    11     9    2
     9     3     2    2
    10     4     2    1
    11     6     1    1
    12     2     1    1
