@<TRIPOS>MOLECULE
/home/cewinharhar/GITHUB/reincatalyze/data/processed/docking_pred/2023-May-02-0947_maxeplen10_maxtrainstep1000_seadep32_gamma099_lrac9e-4_lrcr1e-3/104e94148118840ff9051874ebdd157f969f5898_ligand_2.pdbqt
 12 12 0 0 0
SMALL
GASTEIGER

@<TRIPOS>ATOM
      1  C          7.9540   -6.4830   10.9600 C.3     1  UNL1        0.1270
      2  C          8.2970   -5.0450   11.0690 C.2     1  UNL1        0.3030
      3  O          9.2130   -4.6510   11.8320 O.2     1  UNL1       -0.2520
      4  O          7.6120   -4.0940   10.3300 O.3     1  UNL1       -0.4810
      5  H          7.9020   -3.1140   10.3850 H       1  UNL1        0.2960
      6  C          8.5670   -7.2030   12.1220 C.3     1  UNL1        0.0470
      7  C          9.4190   -8.3280   11.7420 C.2     1  UNL1       -0.0470
      8  C         10.3380   -8.2030   10.7260 C.2     1  UNL1        0.0040
      9  C          9.2940   -9.5220   12.4140 C.2     1  UNL1        0.0040
     10  C         11.1190   -9.3190   10.4170 C.2     1  UNL1        0.0000
     11  C         10.0670  -10.6240   12.1080 C.2     1  UNL1        0.0000
     12  C         10.9900  -10.5070   11.0910 C.2     1  UNL1        0.0000
@<TRIPOS>BOND
     1     4     5    1
     2     4     2    1
     3    10     8    1
     4    10    12    2
     5     8     7    2
     6     1     2    1
     7     1     6    1
     8     2     3    2
     9    12    11    1
    10     7     6    1
    11     7     9    1
    12    11     9    2
