@<TRIPOS>MOLECULE
/home/cewinharhar/GITHUB/reincatalyze/data/processed/docking_pred/2023-May-02-0947_maxeplen10_maxtrainstep1000_seadep32_gamma099_lrac9e-4_lrcr1e-3/104e94148118840ff9051874ebdd157f969f5898_ligand_2.pdbqt
 12 12 0 0 0
SMALL
GASTEIGER

@<TRIPOS>ATOM
      1  C          8.1310   -6.1530   11.3760 C.3     1  UNL1        0.1270
      2  C          8.2450   -4.6870   11.5630 C.2     1  UNL1        0.3030
      3  O          7.4970   -3.8910   10.9440 O.2     1  UNL1       -0.2520
      4  O          9.1860   -4.1540   12.4300 O.3     1  UNL1       -0.4810
      5  H          9.1360   -3.1610   12.6730 H       1  UNL1        0.2960
      6  C          8.8950   -6.5310   10.1450 C.3     1  UNL1        0.0470
      7  C         10.1580   -7.2160   10.4160 C.2     1  UNL1       -0.0470
      8  C         10.1990   -8.5820   10.5690 C.2     1  UNL1        0.0040
      9  C         11.3140   -6.4770   10.5160 C.2     1  UNL1        0.0040
     10  C         11.4400   -9.1690   10.8250 C.2     1  UNL1        0.0000
     11  C         12.5400   -7.0590   10.7700 C.2     1  UNL1        0.0000
     12  C         12.5900   -8.4270   10.9250 C.2     1  UNL1        0.0000
@<TRIPOS>BOND
     1     6     7    1
     2     6     1    1
     3     7     9    2
     4     7     8    1
     5     9    11    1
     6     8    10    2
     7    11    12    2
     8    10    12    1
     9     3     2    2
    10     1     2    1
    11     2     4    1
    12     4     5    1
