@<TRIPOS>MOLECULE
/home/cewinharhar/GITHUB/reincatalyze/data/processed/docking_pred/2023-May-02-0947_maxeplen10_maxtrainstep1000_seadep32_gamma099_lrac9e-4_lrcr1e-3/10ef791c1764d6d7d99274693c0e95c254b80295_ligand_2.pdbqt
 12 12 0 0 0
SMALL
GASTEIGER

@<TRIPOS>ATOM
      1  C          5.1010   -0.1270    2.0500 C.3     1  UNL1        0.1270
      2  C          4.4230    1.1890    1.9800 C.2     1  UNL1        0.3030
      3  O          4.9470    2.1600    1.3810 O.2     1  UNL1       -0.2520
      4  O          3.1870    1.3840    2.5760 O.3     1  UNL1       -0.4810
      5  H          2.8870    0.7530    3.3250 H       1  UNL1        0.2960
      6  C          6.5510    0.0730    1.7310 C.3     1  UNL1        0.0470
      7  C          7.0180   -0.6980    0.5800 C.2     1  UNL1       -0.0470
      8  C          6.6260   -0.3650   -0.6960 C.2     1  UNL1        0.0040
      9  C          7.8610   -1.7660    0.7850 C.2     1  UNL1        0.0040
     10  C          7.1120   -1.1450   -1.7480 C.2     1  UNL1        0.0000
     11  C          8.3400   -2.5360   -0.2560 C.2     1  UNL1        0.0000
     12  C          7.9510   -2.2090   -1.5370 C.2     1  UNL1        0.0000
@<TRIPOS>BOND
     1    10    12    2
     2    10     8    1
     3    12    11    1
     4     8     7    2
     5    11     9    2
     6     7     9    1
     7     7     6    1
     8     3     2    2
     9     6     1    1
    10     2     1    1
    11     2     4    1
    12     4     5    1
