@<TRIPOS>MOLECULE
/home/cewinharhar/GITHUB/reincatalyze/data/processed/docking_pred/2023-May-02-0947_maxeplen10_maxtrainstep1000_seadep32_gamma099_lrac9e-4_lrcr1e-3/10ef791c1764d6d7d99274693c0e95c254b80295_ligand_2.pdbqt
 12 12 0 0 0
SMALL
GASTEIGER

@<TRIPOS>ATOM
      1  C          8.4040   -0.6580   -2.0750 C.3     1  UNL1        0.1270
      2  C          8.3740   -1.9040   -2.8760 C.2     1  UNL1        0.3030
      3  O          7.2880   -2.4110   -3.2510 O.2     1  UNL1       -0.2520
      4  O          9.5480   -2.5460   -3.2350 O.3     1  UNL1       -0.4810
      5  H          9.7160   -3.5020   -2.9090 H       1  UNL1        0.2960
      6  C          7.0270   -0.0680   -2.0690 C.3     1  UNL1        0.0470
      7  C          6.4580    0.1000   -0.7330 C.2     1  UNL1       -0.0470
      8  C          5.8040    1.2600   -0.3880 C.2     1  UNL1        0.0040
      9  C          6.5800   -0.9200    0.1820 C.2     1  UNL1        0.0040
     10  C          5.2840    1.3510    0.9050 C.2     1  UNL1        0.0000
     11  C          6.0660   -0.8280    1.4600 C.2     1  UNL1        0.0000
     12  C          5.4100    0.3310    1.8140 C.2     1  UNL1        0.0000
@<TRIPOS>BOND
     1     3     2    2
     2     4     5    1
     3     4     2    1
     4     2     1    1
     5     1     6    1
     6     6     7    1
     7     7     8    2
     8     7     9    1
     9     8    10    1
    10     9    11    2
    11    10    12    2
    12    11    12    1
