@<TRIPOS>MOLECULE
/home/cewinharhar/GITHUB/reincatalyze/data/processed/docking_pred/2023-May-02-0947_maxeplen10_maxtrainstep1000_seadep32_gamma099_lrac9e-4_lrcr1e-3/10ef791c1764d6d7d99274693c0e95c254b80295_ligand_2.pdbqt
 12 12 0 0 0
SMALL
GASTEIGER

@<TRIPOS>ATOM
      1  C          5.9410   -0.8860    1.7810 C.3     1  UNL1        0.1270
      2  C          5.3800    0.4590    2.0480 C.2     1  UNL1        0.3030
      3  O          4.2000    0.6030    2.4530 O.2     1  UNL1       -0.2520
      4  O          6.1450    1.5980    1.8570 O.3     1  UNL1       -0.4810
      5  H          5.9530    2.2010    1.0510 H       1  UNL1        0.2960
      6  C          7.4030   -0.7370    1.4900 C.3     1  UNL1        0.0470
      7  C          7.7180   -0.6340    0.0660 C.2     1  UNL1       -0.0470
      8  C          8.8610    0.0030   -0.3570 C.2     1  UNL1        0.0040
      9  C          6.8560   -1.1860   -0.8540 C.2     1  UNL1        0.0040
     10  C          9.0990    0.0630   -1.7320 C.2     1  UNL1        0.0000
     11  C          7.0920   -1.1250   -2.2130 C.2     1  UNL1        0.0000
     12  C          8.2350   -0.4880   -2.6450 C.2     1  UNL1        0.0000
@<TRIPOS>BOND
     1    12    11    2
     2    12    10    1
     3    11     9    1
     4    10     8    2
     5     9     7    2
     6     8     7    1
     7     7     6    1
     8     5     4    1
     9     6     1    1
    10     1     2    1
    11     4     2    1
    12     2     3    2
