@<TRIPOS>MOLECULE
/home/cewinharhar/GITHUB/reincatalyze/data/processed/docking_pred/2023-May-02-0947_maxeplen10_maxtrainstep1000_seadep32_gamma099_lrac9e-4_lrcr1e-3/12e5788d749ca0b681d4f032b25b6d257325d045_ligand_2.pdbqt
 12 12 0 0 0
SMALL
GASTEIGER

@<TRIPOS>ATOM
      1  C          8.5590   -0.5980   -2.2760 C.3     1  UNL1        0.1270
      2  C          8.5440   -1.9100   -2.9650 C.2     1  UNL1        0.3030
      3  O          9.6000   -2.5670   -3.1390 O.2     1  UNL1       -0.2520
      4  O          7.3580   -2.4500   -3.4370 O.3     1  UNL1       -0.4810
      5  H          6.4960   -1.9030   -3.3670 H       1  UNL1        0.2960
      6  C          7.1470   -0.1120   -2.1560 C.3     1  UNL1        0.0470
      7  C          6.7510    0.2340   -0.7930 C.2     1  UNL1       -0.0470
      8  C          5.7740    1.1750   -0.5610 C.2     1  UNL1        0.0040
      9  C          7.3660   -0.3950    0.2650 C.2     1  UNL1        0.0040
     10  C          5.4460    1.4550    0.7670 C.2     1  UNL1        0.0000
     11  C          7.0400   -0.1160    1.5780 C.2     1  UNL1        0.0000
     12  C          6.0630    0.8260    1.8180 C.2     1  UNL1        0.0000
@<TRIPOS>BOND
     1     4     5    1
     2     4     2    1
     3     3     2    2
     4     2     1    1
     5     1     6    1
     6     6     7    1
     7     7     8    2
     8     7     9    1
     9     8    10    1
    10     9    11    2
    11    10    12    2
    12    11    12    1
