@<TRIPOS>MOLECULE
/home/cewinharhar/GITHUB/reincatalyze/data/processed/docking_pred/2023-May-02-0947_maxeplen10_maxtrainstep1000_seadep32_gamma099_lrac9e-4_lrcr1e-3/12e5788d749ca0b681d4f032b25b6d257325d045_ligand_2.pdbqt
 12 12 0 0 0
SMALL
GASTEIGER

@<TRIPOS>ATOM
      1  C          5.0400    1.7680    0.6440 C.3     1  UNL1        0.1270
      2  C          4.5990    1.1120    1.8970 C.2     1  UNL1        0.3030
      3  O          3.4800    1.3690    2.4070 O.2     1  UNL1       -0.2520
      4  O          5.4110    0.1940    2.5420 O.3     1  UNL1       -0.4810
      5  H          5.0660   -0.7570    2.7000 H       1  UNL1        0.2960
      6  C          6.5370    1.8460    0.6550 C.3     1  UNL1        0.0470
      7  C          7.1820    1.0480   -0.3860 C.2     1  UNL1       -0.0470
      8  C          8.5150    1.2180   -0.6790 C.2     1  UNL1        0.0040
      9  C          6.4390    0.1160   -1.0740 C.2     1  UNL1        0.0040
     10  C          9.0650    0.4200   -1.6840 C.2     1  UNL1        0.0000
     11  C          6.9840   -0.6720   -2.0680 C.2     1  UNL1        0.0000
     12  C          8.3190   -0.5060   -2.3680 C.2     1  UNL1        0.0000
@<TRIPOS>BOND
     1    12    11    2
     2    12    10    1
     3    11     9    1
     4    10     8    2
     5     9     7    2
     6     8     7    1
     7     7     6    1
     8     1     6    1
     9     1     2    1
    10     2     3    2
    11     2     4    1
    12     4     5    1
