@<TRIPOS>MOLECULE
/home/cewinharhar/GITHUB/reincatalyze/data/processed/docking_pred/2023-May-02-0947_maxeplen10_maxtrainstep1000_seadep32_gamma099_lrac9e-4_lrcr1e-3/13c3a96d7f073914410e4f6d6c0e2190084e407e_ligand_2.pdbqt
 12 12 0 0 0
SMALL
GASTEIGER

@<TRIPOS>ATOM
      1  C          5.9590   -0.8830    1.7850 C.3     1  UNL1        0.1270
      2  C          5.3830    0.4570    2.0480 C.2     1  UNL1        0.3030
      3  O          4.2020    0.5890    2.4530 O.2     1  UNL1       -0.2520
      4  O          6.1350    1.6040    1.8510 O.3     1  UNL1       -0.4810
      5  H          5.8890    2.2390    1.0870 H       1  UNL1        0.2960
      6  C          7.4190   -0.7190    1.4930 C.3     1  UNL1        0.0470
      7  C          7.7340   -0.6320    0.0680 C.2     1  UNL1       -0.0470
      8  C          8.8750    0.0050   -0.3630 C.2     1  UNL1        0.0040
      9  C          6.8750   -1.1990   -0.8450 C.2     1  UNL1        0.0040
     10  C          9.1120    0.0490   -1.7380 C.2     1  UNL1        0.0000
     11  C          7.1120   -1.1550   -2.2050 C.2     1  UNL1        0.0000
     12  C          8.2520   -0.5180   -2.6440 C.2     1  UNL1        0.0000
@<TRIPOS>BOND
     1    12    11    2
     2    12    10    1
     3    11     9    1
     4    10     8    2
     5     9     7    2
     6     8     7    1
     7     7     6    1
     8     5     4    1
     9     6     1    1
    10     1     2    1
    11     4     2    1
    12     2     3    2
