@<TRIPOS>MOLECULE
/home/cewinharhar/GITHUB/reincatalyze/data/processed/docking_pred/2023-May-02-0947_maxeplen10_maxtrainstep1000_seadep32_gamma099_lrac9e-4_lrcr1e-3/13c3a96d7f073914410e4f6d6c0e2190084e407e_ligand_2.pdbqt
 12 12 0 0 0
SMALL
GASTEIGER

@<TRIPOS>ATOM
      1  C          5.1090   -0.1310    2.0590 C.3     1  UNL1        0.1270
      2  C          4.4340    1.1870    1.9920 C.2     1  UNL1        0.3030
      3  O          4.9680    2.1620    1.4070 O.2     1  UNL1       -0.2520
      4  O          3.1920    1.3790    2.5760 O.3     1  UNL1       -0.4810
      5  H          3.1390    1.6550    3.5600 H       1  UNL1        0.2960
      6  C          6.5590    0.0650    1.7370 C.3     1  UNL1        0.0470
      7  C          7.0180   -0.6950    0.5760 C.2     1  UNL1       -0.0470
      8  C          6.6200   -0.3480   -0.6940 C.2     1  UNL1        0.0040
      9  C          7.8600   -1.7670    0.7650 C.2     1  UNL1        0.0040
     10  C          7.0990   -1.1180   -1.7570 C.2     1  UNL1        0.0000
     11  C          8.3310   -2.5270   -0.2860 C.2     1  UNL1        0.0000
     12  C          7.9370   -2.1870   -1.5620 C.2     1  UNL1        0.0000
@<TRIPOS>BOND
     1    10    12    2
     2    10     8    1
     3    12    11    1
     4     8     7    2
     5    11     9    2
     6     7     9    1
     7     7     6    1
     8     3     2    2
     9     6     1    1
    10     2     1    1
    11     2     4    1
    12     4     5    1
