@<TRIPOS>MOLECULE
/home/cewinharhar/GITHUB/reincatalyze/data/processed/docking_pred/2023-May-02-0947_maxeplen10_maxtrainstep1000_seadep32_gamma099_lrac9e-4_lrcr1e-3/13c3a96d7f073914410e4f6d6c0e2190084e407e_ligand_2.pdbqt
 12 12 0 0 0
SMALL
GASTEIGER

@<TRIPOS>ATOM
      1  C          8.4060   -0.6650   -2.0630 C.3     1  UNL1        0.1270
      2  C          8.3750   -1.9020   -2.8770 C.2     1  UNL1        0.3030
      3  O          7.2880   -2.4130   -3.2440 O.2     1  UNL1       -0.2520
      4  O          9.5490   -2.5320   -3.2570 O.3     1  UNL1       -0.4810
      5  H          9.5310   -3.5290   -3.4870 H       1  UNL1        0.2960
      6  C          7.0330   -0.0660   -2.0640 C.3     1  UNL1        0.0470
      7  C          6.4580    0.1050   -0.7300 C.2     1  UNL1       -0.0470
      8  C          5.8050    1.2660   -0.3890 C.2     1  UNL1        0.0040
      9  C          6.5740   -0.9150    0.1860 C.2     1  UNL1        0.0040
     10  C          5.2790    1.3590    0.9010 C.2     1  UNL1        0.0000
     11  C          6.0540   -0.8210    1.4620 C.2     1  UNL1        0.0000
     12  C          5.3990    0.3400    1.8120 C.2     1  UNL1        0.0000
@<TRIPOS>BOND
     1     5     4    1
     2     4     2    1
     3     3     2    2
     4     2     1    1
     5     6     1    1
     6     6     7    1
     7     7     8    2
     8     7     9    1
     9     8    10    1
    10     9    11    2
    11    10    12    2
    12    11    12    1
