@<TRIPOS>MOLECULE
/home/cewinharhar/GITHUB/reincatalyze/data/processed/docking_pred/2023-May-02-0947_maxeplen10_maxtrainstep1000_seadep32_gamma099_lrac9e-4_lrcr1e-3/141be626e2cd6ba8f6b8a46d6dbef4dd02701a2b_ligand_2.pdbqt
 12 12 0 0 0
SMALL
GASTEIGER

@<TRIPOS>ATOM
      1  C          8.4050   -0.6560   -2.0770 C.3     1  UNL1        0.1270
      2  C          8.3730   -1.9040   -2.8760 C.2     1  UNL1        0.3030
      3  O          7.2860   -2.4090   -3.2510 O.2     1  UNL1       -0.2520
      4  O          9.5460   -2.5490   -3.2310 O.3     1  UNL1       -0.4810
      5  H         10.2300   -2.0610   -3.8160 H       1  UNL1        0.2960
      6  C          7.0280   -0.0660   -2.0710 C.3     1  UNL1        0.0470
      7  C          6.4590    0.1030   -0.7340 C.2     1  UNL1       -0.0470
      8  C          5.8030    1.2630   -0.3910 C.2     1  UNL1        0.0040
      9  C          6.5850   -0.9150    0.1820 C.2     1  UNL1        0.0040
     10  C          5.2850    1.3550    0.9030 C.2     1  UNL1        0.0000
     11  C          6.0720   -0.8220    1.4610 C.2     1  UNL1        0.0000
     12  C          5.4140    0.3360    1.8130 C.2     1  UNL1        0.0000
@<TRIPOS>BOND
     1     5     4    1
     2     3     2    2
     3     4     2    1
     4     2     1    1
     5     1     6    1
     6     6     7    1
     7     7     8    2
     8     7     9    1
     9     8    10    1
    10     9    11    2
    11    10    12    2
    12    11    12    1
