@<TRIPOS>MOLECULE
/home/cewinharhar/GITHUB/reincatalyze/data/processed/docking_pred/2023-May-02-0947_maxeplen10_maxtrainstep1000_seadep32_gamma099_lrac9e-4_lrcr1e-3/141be626e2cd6ba8f6b8a46d6dbef4dd02701a2b_ligand_2.pdbqt
 12 12 0 0 0
SMALL
GASTEIGER

@<TRIPOS>ATOM
      1  C          5.0370    1.8230    0.6960 C.3     1  UNL1        0.1270
      2  C          4.5880    1.1880    1.9570 C.2     1  UNL1        0.3030
      3  O          5.2350    0.2450    2.4770 O.2     1  UNL1       -0.2520
      4  O          3.4400    1.6200    2.6010 O.3     1  UNL1       -0.4810
      5  H          3.4590    2.5000    3.1230 H       1  UNL1        0.2960
      6  C          6.5350    1.8550    0.6910 C.3     1  UNL1        0.0470
      7  C          7.1430    1.0610   -0.3750 C.2     1  UNL1       -0.0470
      8  C          6.3870    0.1810   -1.1150 C.2     1  UNL1        0.0040
      9  C          8.4860    1.2020   -0.6350 C.2     1  UNL1        0.0040
     10  C          7.0340   -0.5440   -2.1180 C.2     1  UNL1        0.0000
     11  C          9.1240    0.4840   -1.6270 C.2     1  UNL1        0.0000
     12  C          8.3750   -0.4000   -2.3720 C.2     1  UNL1        0.0000
@<TRIPOS>BOND
     1    12    10    2
     2    12    11    1
     3    10     8    1
     4    11     9    2
     5     8     7    2
     6     9     7    1
     7     7     6    1
     8     6     1    1
     9     1     2    1
    10     2     3    2
    11     2     4    1
    12     4     5    1
