@<TRIPOS>MOLECULE
/home/cewinharhar/GITHUB/reincatalyze/data/processed/docking_pred/2023-May-02-0947_maxeplen10_maxtrainstep1000_seadep32_gamma099_lrac9e-4_lrcr1e-3/1444e75be78da7e2931ed2b5f85ad252461f0798_ligand_2.pdbqt
 12 12 0 0 0
SMALL
GASTEIGER

@<TRIPOS>ATOM
      1  C          5.0380    1.6730    0.6660 C.3     1  UNL1        0.1270
      2  C          4.5730    1.0240    1.9150 C.2     1  UNL1        0.3030
      3  O          5.2740    0.1610    2.4990 O.2     1  UNL1       -0.2520
      4  O          3.3480    1.3520    2.4720 O.3     1  UNL1       -0.4810
      5  H          2.6670    1.8750    1.9140 H       1  UNL1        0.2960
      6  C          6.5360    1.7140    0.6870 C.3     1  UNL1        0.0470
      7  C          7.1660    0.9370   -0.3790 C.2     1  UNL1       -0.0470
      8  C          8.4700    1.1760   -0.7460 C.2     1  UNL1        0.0040
      9  C          6.4400   -0.0440   -1.0140 C.2     1  UNL1        0.0040
     10  C          9.0080    0.3950   -1.7720 C.2     1  UNL1        0.0000
     11  C          6.9740   -0.8150   -2.0280 C.2     1  UNL1        0.0000
     12  C          8.2790   -0.5820   -2.4020 C.2     1  UNL1        0.0000
@<TRIPOS>BOND
     1    12    11    2
     2    12    10    1
     3    11     9    1
     4    10     8    2
     5     9     7    2
     6     8     7    1
     7     7     6    1
     8     1     6    1
     9     1     2    1
    10     5     4    1
    11     2     4    1
    12     2     3    2
