MODEL 1
REMARK VINA RESULT:      -7.2      0.000      0.000
REMARK SMILES O=C(O)CCc1ccccc1
REMARK SMILES IDX 4 1 2 2 1 3 3 4 5 6 6 7 7 8 11 9 8 10 10 11 9 12
REMARK H PARENT 3 5
REMARK Flexibility Score: inf
ROOT
ATOM      1  C   UNL     1       8.377  -0.702  -1.996  1.00  0.00     0.127 C 
ENDROOT
BRANCH   1   2
ATOM      2  C   UNL     1       8.350  -1.910  -2.853  1.00  0.00     0.303 C 
ATOM      3  O   UNL     1       7.265  -2.396  -3.259  1.00  0.00    -0.252 OA
BRANCH   2   4
ATOM      4  O   UNL     1       9.525  -2.539  -3.231  1.00  0.00    -0.481 OA
ATOM      5  H   UNL     1      10.273  -2.658  -2.542  1.00  0.00     0.296 HD
ENDBRANCH   2   4
ENDBRANCH   1   2
BRANCH   1   6
ATOM      6  C   UNL     1       7.019  -0.070  -2.030  1.00  0.00     0.047 C 
BRANCH   6   7
ATOM      7  C   UNL     1       6.406   0.093  -0.713  1.00  0.00    -0.047 A 
ATOM      8  C   UNL     1       5.744   1.253  -0.384  1.00  0.00     0.004 A 
ATOM      9  C   UNL     1       6.495  -0.932   0.200  1.00  0.00     0.004 A 
ATOM     10  C   UNL     1       5.181   1.339   0.892  1.00  0.00     0.000 A 
ATOM     11  C   UNL     1       5.939  -0.845   1.461  1.00  0.00     0.000 A 
ATOM     12  C   UNL     1       5.274   0.314   1.799  1.00  0.00     0.000 A 
ENDBRANCH   6   7
ENDBRANCH   1   6
TORSDOF 4
ENDMDL
MODEL 2
REMARK VINA RESULT:      -6.8      3.277      5.084
REMARK SMILES O=C(O)CCc1ccccc1
REMARK SMILES IDX 4 1 2 2 1 3 3 4 5 6 6 7 7 8 11 9 8 10 10 11 9 12
REMARK H PARENT 3 5
REMARK Flexibility Score: inf
ROOT
ATOM      1  C   UNL     1       5.038   1.673   0.666  1.00  0.00     0.127 C 
ENDROOT
BRANCH   1   2
ATOM      2  C   UNL     1       4.573   1.024   1.915  1.00  0.00     0.303 C 
ATOM      3  O   UNL     1       5.274   0.161   2.499  1.00  0.00    -0.252 OA
BRANCH   2   4
ATOM      4  O   UNL     1       3.348   1.352   2.472  1.00  0.00    -0.481 OA
ATOM      5  H   UNL     1       2.667   1.875   1.914  1.00  0.00     0.296 HD
ENDBRANCH   2   4
ENDBRANCH   1   2
BRANCH   1   6
ATOM      6  C   UNL     1       6.536   1.714   0.687  1.00  0.00     0.047 C 
BRANCH   6   7
ATOM      7  C   UNL     1       7.166   0.937  -0.379  1.00  0.00    -0.047 A 
ATOM      8  C   UNL     1       8.470   1.176  -0.746  1.00  0.00     0.004 A 
ATOM      9  C   UNL     1       6.440  -0.044  -1.014  1.00  0.00     0.004 A 
ATOM     10  C   UNL     1       9.008   0.395  -1.772  1.00  0.00     0.000 A 
ATOM     11  C   UNL     1       6.974  -0.815  -2.028  1.00  0.00     0.000 A 
ATOM     12  C   UNL     1       8.279  -0.582  -2.402  1.00  0.00     0.000 A 
ENDBRANCH   6   7
ENDBRANCH   1   6
TORSDOF 4
ENDMDL
