@<TRIPOS>MOLECULE
/home/cewinharhar/GITHUB/reincatalyze/data/processed/docking_pred/2023-May-02-0947_maxeplen10_maxtrainstep1000_seadep32_gamma099_lrac9e-4_lrcr1e-3/1444e75be78da7e2931ed2b5f85ad252461f0798_ligand_2.pdbqt
 12 12 0 0 0
SMALL
GASTEIGER

@<TRIPOS>ATOM
      1  C          8.3770   -0.7020   -1.9960 C.3     1  UNL1        0.1270
      2  C          8.3500   -1.9100   -2.8530 C.2     1  UNL1        0.3030
      3  O          7.2650   -2.3960   -3.2590 O.2     1  UNL1       -0.2520
      4  O          9.5250   -2.5390   -3.2310 O.3     1  UNL1       -0.4810
      5  H         10.2730   -2.6580   -2.5420 H       1  UNL1        0.2960
      6  C          7.0190   -0.0700   -2.0300 C.3     1  UNL1        0.0470
      7  C          6.4060    0.0930   -0.7130 C.2     1  UNL1       -0.0470
      8  C          5.7440    1.2530   -0.3840 C.2     1  UNL1        0.0040
      9  C          6.4950   -0.9320    0.2000 C.2     1  UNL1        0.0040
     10  C          5.1810    1.3390    0.8920 C.2     1  UNL1        0.0000
     11  C          5.9390   -0.8450    1.4610 C.2     1  UNL1        0.0000
     12  C          5.2740    0.3140    1.7990 C.2     1  UNL1        0.0000
@<TRIPOS>BOND
     1     3     2    2
     2     4     2    1
     3     4     5    1
     4     2     1    1
     5     6     1    1
     6     6     7    1
     7     7     8    2
     8     7     9    1
     9     8    10    1
    10     9    11    2
    11    10    12    2
    12    11    12    1
