@<TRIPOS>MOLECULE
/home/cewinharhar/GITHUB/reincatalyze/data/processed/docking_pred/2023-May-02-0947_maxeplen10_maxtrainstep1000_seadep32_gamma099_lrac9e-4_lrcr1e-3/16519f8051380dc2329c6f51dcb24a8f5dfeda31_ligand_2.pdbqt
 12 12 0 0 0
SMALL
GASTEIGER

@<TRIPOS>ATOM
      1  C          8.4020   -0.6590   -2.0710 C.3     1  UNL1        0.1270
      2  C          8.3710   -1.9060   -2.8730 C.2     1  UNL1        0.3030
      3  O          7.2850   -2.4080   -3.2540 O.2     1  UNL1       -0.2520
      4  O          9.5450   -2.5520   -3.2250 O.3     1  UNL1       -0.4810
      5  H         10.4080   -2.3340   -2.7190 H       1  UNL1        0.2960
      6  C          7.0240   -0.0700   -2.0650 C.3     1  UNL1        0.0470
      7  C          6.4570    0.1020   -0.7290 C.2     1  UNL1       -0.0470
      8  C          5.8030    1.2620   -0.3860 C.2     1  UNL1        0.0040
      9  C          6.5820   -0.9150    0.1890 C.2     1  UNL1        0.0040
     10  C          5.2850    1.3570    0.9070 C.2     1  UNL1        0.0000
     11  C          6.0700   -0.8200    1.4680 C.2     1  UNL1        0.0000
     12  C          5.4140    0.3400    1.8190 C.2     1  UNL1        0.0000
@<TRIPOS>BOND
     1     3     2    2
     2     4     2    1
     3     4     5    1
     4     2     1    1
     5     1     6    1
     6     6     7    1
     7     7     8    2
     8     7     9    1
     9     8    10    1
    10     9    11    2
    11    10    12    2
    12    11    12    1
