MODEL 1
REMARK VINA RESULT:      -7.4      0.000      0.000
REMARK SMILES O=C(O)CCc1ccccc1
REMARK SMILES IDX 4 1 2 2 1 3 3 4 5 6 6 7 7 8 11 9 8 10 10 11 9 12
REMARK H PARENT 3 5
REMARK Flexibility Score: inf
ROOT
ATOM      1  C   UNL     1       8.440  -0.632  -2.154  1.00  0.00     0.127 C 
ENDROOT
BRANCH   1   2
ATOM      2  C   UNL     1       8.480  -1.905  -2.911  1.00  0.00     0.303 C 
ATOM      3  O   UNL     1       9.558  -2.525  -3.085  1.00  0.00    -0.252 OA
BRANCH   2   4
ATOM      4  O   UNL     1       7.324  -2.447  -3.450  1.00  0.00    -0.481 OA
ATOM      5  H   UNL     1       6.474  -1.878  -3.486  1.00  0.00     0.296 HD
ENDBRANCH   2   4
ENDBRANCH   1   2
BRANCH   1   6
ATOM      6  C   UNL     1       7.025  -0.138  -2.137  1.00  0.00     0.047 C 
BRANCH   6   7
ATOM      7  C   UNL     1       6.481   0.061  -0.795  1.00  0.00    -0.047 A 
ATOM      8  C   UNL     1       5.843   1.233  -0.461  1.00  0.00     0.004 A 
ATOM      9  C   UNL     1       6.613  -0.941   0.139  1.00  0.00     0.004 A 
ATOM     10  C   UNL     1       5.347   1.354   0.839  1.00  0.00     0.000 A 
ATOM     11  C   UNL     1       6.122  -0.819   1.424  1.00  0.00     0.000 A 
ATOM     12  C   UNL     1       5.482   0.352   1.766  1.00  0.00     0.000 A 
ENDBRANCH   6   7
ENDBRANCH   1   6
TORSDOF 4
ENDMDL
