@<TRIPOS>MOLECULE
/home/cewinharhar/GITHUB/reincatalyze/data/processed/docking_pred/2023-May-02-0947_maxeplen10_maxtrainstep1000_seadep32_gamma099_lrac9e-4_lrcr1e-3/1a0a4210c7fbec369f44508687af2363e72d8760_ligand_2.pdbqt
 12 12 0 0 0
SMALL
GASTEIGER

@<TRIPOS>ATOM
      1  C          8.4400   -0.6320   -2.1540 C.3     1  UNL1        0.1270
      2  C          8.4800   -1.9050   -2.9110 C.2     1  UNL1        0.3030
      3  O          9.5580   -2.5250   -3.0850 O.2     1  UNL1       -0.2520
      4  O          7.3240   -2.4470   -3.4500 O.3     1  UNL1       -0.4810
      5  H          6.4740   -1.8780   -3.4860 H       1  UNL1        0.2960
      6  C          7.0250   -0.1380   -2.1370 C.3     1  UNL1        0.0470
      7  C          6.4810    0.0610   -0.7950 C.2     1  UNL1       -0.0470
      8  C          5.8430    1.2330   -0.4610 C.2     1  UNL1        0.0040
      9  C          6.6130   -0.9410    0.1390 C.2     1  UNL1        0.0040
     10  C          5.3470    1.3540    0.8390 C.2     1  UNL1        0.0000
     11  C          6.1220   -0.8190    1.4240 C.2     1  UNL1        0.0000
     12  C          5.4820    0.3520    1.7660 C.2     1  UNL1        0.0000
@<TRIPOS>BOND
     1     5     4    1
     2     4     2    1
     3     3     2    2
     4     2     1    1
     5     1     6    1
     6     6     7    1
     7     7     8    2
     8     7     9    1
     9     8    10    1
    10     9    11    2
    11    10    12    2
    12    11    12    1
