@<TRIPOS>MOLECULE
/home/cewinharhar/GITHUB/reincatalyze/data/processed/docking_pred/2023-May-02-0947_maxeplen10_maxtrainstep1000_seadep32_gamma099_lrac9e-4_lrcr1e-3/1c0c8a91d3eae7937fa2398dc61f909c50ab5738_ligand_2.pdbqt
 12 12 0 0 0
SMALL
GASTEIGER

@<TRIPOS>ATOM
      1  C          5.9410   -0.8880    1.7710 C.3     1  UNL1        0.1270
      2  C          5.3710    0.4520    2.0470 C.2     1  UNL1        0.3030
      3  O          4.1960    0.5850    2.4680 O.2     1  UNL1       -0.2520
      4  O          6.1230    1.5990    1.8460 O.3     1  UNL1       -0.4810
      5  H          6.9590    1.7550    2.4150 H       1  UNL1        0.2960
      6  C          7.4020   -0.7270    1.4800 C.3     1  UNL1        0.0470
      7  C          7.7190   -0.6410    0.0550 C.2     1  UNL1       -0.0470
      8  C          8.8580   -0.0020   -0.3750 C.2     1  UNL1        0.0040
      9  C          6.8630   -1.2120   -0.8580 C.2     1  UNL1        0.0040
     10  C          9.0980    0.0400   -1.7500 C.2     1  UNL1        0.0000
     11  C          7.1010   -1.1690   -2.2180 C.2     1  UNL1        0.0000
     12  C          8.2400   -0.5290   -2.6570 C.2     1  UNL1        0.0000
@<TRIPOS>BOND
     1    12    11    2
     2    12    10    1
     3    11     9    1
     4    10     8    2
     5     9     7    2
     6     8     7    1
     7     7     6    1
     8     6     1    1
     9     1     2    1
    10     4     2    1
    11     4     5    1
    12     2     3    2
