@<TRIPOS>MOLECULE
/home/cewinharhar/GITHUB/reincatalyze/data/processed/docking_pred/2023-May-02-0947_maxeplen10_maxtrainstep1000_seadep32_gamma099_lrac9e-4_lrcr1e-3/1c0c8a91d3eae7937fa2398dc61f909c50ab5738_ligand_2.pdbqt
 12 12 0 0 0
SMALL
GASTEIGER

@<TRIPOS>ATOM
      1  C          8.4040   -0.6520   -2.0820 C.3     1  UNL1        0.1270
      2  C          8.3730   -1.9020   -2.8780 C.2     1  UNL1        0.3030
      3  O          7.2870   -2.4100   -3.2500 O.2     1  UNL1       -0.2520
      4  O          9.5480   -2.5460   -3.2330 O.3     1  UNL1       -0.4810
      5  H          9.6620   -2.8860   -4.1920 H       1  UNL1        0.2960
      6  C          7.0250   -0.0660   -2.0740 C.3     1  UNL1        0.0470
      7  C          6.4580    0.1010   -0.7370 C.2     1  UNL1       -0.0470
      8  C          5.8030    1.2600   -0.3900 C.2     1  UNL1        0.0040
      9  C          6.5830   -0.9190    0.1780 C.2     1  UNL1        0.0040
     10  C          5.2850    1.3500    0.9040 C.2     1  UNL1        0.0000
     11  C          6.0710   -0.8280    1.4570 C.2     1  UNL1        0.0000
     12  C          5.4140    0.3300    1.8130 C.2     1  UNL1        0.0000
@<TRIPOS>BOND
     1     5     4    1
     2     3     2    2
     3     4     2    1
     4     2     1    1
     5     1     6    1
     6     6     7    1
     7     7     8    2
     8     7     9    1
     9     8    10    1
    10     9    11    2
    11    10    12    2
    12    11    12    1
