@<TRIPOS>MOLECULE
/home/cewinharhar/GITHUB/reincatalyze/data/processed/docking_pred/2023-May-02-0947_maxeplen10_maxtrainstep1000_seadep32_gamma099_lrac9e-4_lrcr1e-3/1c86ade130d2cc9f902dffb19ba95248752a952e_ligand_2.pdbqt
 12 12 0 0 0
SMALL
GASTEIGER

@<TRIPOS>ATOM
      1  C          5.5330    2.8790   -0.0510 C.3     1  UNL1        0.1270
      2  C          6.2770    3.8580    0.7770 C.2     1  UNL1        0.3030
      3  O          6.9540    4.7750    0.2490 O.2     1  UNL1       -0.2520
      4  O          6.2440    3.7880    2.1600 O.3     1  UNL1       -0.4810
      5  H          6.4510    2.8980    2.6220 H       1  UNL1        0.2960
      6  C          4.9600    1.8340    0.8580 C.3     1  UNL1        0.0470
      7  C          5.7290    0.5910    0.8940 C.2     1  UNL1       -0.0470
      8  C          6.3970    0.1440   -0.2220 C.2     1  UNL1        0.0040
      9  C          5.7810   -0.1310    2.0640 C.2     1  UNL1        0.0040
     10  C          7.1120   -1.0510   -0.1140 C.2     1  UNL1        0.0000
     11  C          6.4890   -1.3120    2.1690 C.2     1  UNL1        0.0000
     12  C          7.1600   -1.7680    1.0550 C.2     1  UNL1        0.0000
@<TRIPOS>BOND
     1     8    10    1
     2     8     7    2
     3    10    12    2
     4     1     2    1
     5     1     6    1
     6     3     2    2
     7     2     4    1
     8     6     7    1
     9     7     9    1
    10    12    11    1
    11     9    11    2
    12     4     5    1
