@<TRIPOS>MOLECULE
/home/cewinharhar/GITHUB/reincatalyze/data/processed/docking_pred/2023-May-02-0947_maxeplen10_maxtrainstep1000_seadep32_gamma099_lrac9e-4_lrcr1e-3/1c86ade130d2cc9f902dffb19ba95248752a952e_ligand_2.pdbqt
 12 12 0 0 0
SMALL
GASTEIGER

@<TRIPOS>ATOM
      1  C          7.3210   -1.2090   -2.2000 C.3     1  UNL1        0.1270
      2  C          8.7820   -1.2430   -2.4510 C.2     1  UNL1        0.3030
      3  O          9.3080   -2.1750   -3.1080 O.2     1  UNL1       -0.2520
      4  O          9.6090   -0.2430   -1.9650 O.3     1  UNL1       -0.4810
      5  H         10.6240   -0.3550   -2.0330 H       1  UNL1        0.2960
      6  C          7.0930   -1.3850   -0.7290 C.3     1  UNL1        0.0470
      7  C          6.3600   -0.2850   -0.1060 C.2     1  UNL1       -0.0470
      8  C          5.9370   -0.3720    1.2000 C.2     1  UNL1        0.0040
      9  C          6.0960    0.8480   -0.8410 C.2     1  UNL1        0.0040
     10  C          5.2430    0.7180    1.7310 C.2     1  UNL1        0.0000
     11  C          5.4100    1.9240   -0.3150 C.2     1  UNL1        0.0000
     12  C          4.9820    1.8440    0.9930 C.2     1  UNL1        0.0000
@<TRIPOS>BOND
     1     3     2    2
     2     2     1    1
     3     2     4    1
     4     1     6    1
     5     5     4    1
     6     9    11    1
     7     9     7    2
     8     6     7    1
     9    11    12    2
    10     7     8    1
    11    12    10    1
    12     8    10    2
