MODEL 1
REMARK VINA RESULT:      -7.3      0.000      0.000
REMARK SMILES O=C(O)CCc1ccccc1
REMARK SMILES IDX 4 1 2 2 1 3 3 4 5 6 6 7 7 8 11 9 8 10 10 11 9 12
REMARK H PARENT 3 5
REMARK Flexibility Score: inf
ROOT
ATOM      1  C   UNL     1       8.407  -0.664  -2.067  1.00  0.00     0.127 C 
ENDROOT
BRANCH   1   2
ATOM      2  C   UNL     1       8.376  -1.905  -2.876  1.00  0.00     0.303 C 
ATOM      3  O   UNL     1       7.289  -2.413  -3.248  1.00  0.00    -0.252 OA
BRANCH   2   4
ATOM      4  O   UNL     1       9.550  -2.541  -3.246  1.00  0.00    -0.481 OA
ATOM      5  H   UNL     1      10.075  -2.194  -4.054  1.00  0.00     0.296 HD
ENDBRANCH   2   4
ENDBRANCH   1   2
BRANCH   1   6
ATOM      6  C   UNL     1       7.033  -0.068  -2.067  1.00  0.00     0.047 C 
BRANCH   6   7
ATOM      7  C   UNL     1       6.458   0.100  -0.733  1.00  0.00    -0.047 A 
ATOM      8  C   UNL     1       5.801   1.259  -0.391  1.00  0.00     0.004 A 
ATOM      9  C   UNL     1       6.578  -0.919   0.183  1.00  0.00     0.004 A 
ATOM     10  C   UNL     1       5.276   1.351   0.900  1.00  0.00     0.000 A 
ATOM     11  C   UNL     1       6.059  -0.827   1.459  1.00  0.00     0.000 A 
ATOM     12  C   UNL     1       5.400   0.331   1.810  1.00  0.00     0.000 A 
ENDBRANCH   6   7
ENDBRANCH   1   6
TORSDOF 4
ENDMDL
