MODEL 1
REMARK VINA RESULT:      -7.1      0.000      0.000
REMARK SMILES O=C(O)CCc1ccccc1
REMARK SMILES IDX 4 1 2 2 1 3 3 4 5 6 6 7 7 8 11 9 8 10 10 11 9 12
REMARK H PARENT 3 5
REMARK Flexibility Score: inf
ROOT
ATOM      1  C   UNL     1       8.452  -0.649  -2.105  1.00  0.00     0.127 C 
ENDROOT
BRANCH   1   2
ATOM      2  C   UNL     1       8.467  -1.908  -2.887  1.00  0.00     0.303 C 
ATOM      3  O   UNL     1       9.536  -2.536  -3.089  1.00  0.00    -0.252 OA
BRANCH   2   4
ATOM      4  O   UNL     1       7.298  -2.427  -3.419  1.00  0.00    -0.481 OA
ATOM      5  H   UNL     1       6.454  -1.849  -3.432  1.00  0.00     0.296 HD
ENDBRANCH   2   4
ENDBRANCH   1   2
BRANCH   1   6
ATOM      6  C   UNL     1       7.047  -0.129  -2.078  1.00  0.00     0.047 C 
BRANCH   6   7
ATOM      7  C   UNL     1       6.488   0.005  -0.733  1.00  0.00    -0.047 A 
ATOM      8  C   UNL     1       6.604  -1.017   0.181  1.00  0.00     0.004 A 
ATOM      9  C   UNL     1       5.843   1.169  -0.387  1.00  0.00     0.004 A 
ATOM     10  C   UNL     1       6.047  -0.820   1.447  1.00  0.00     0.000 A 
ATOM     11  C   UNL     1       5.293   1.362   0.864  1.00  0.00     0.000 A 
ATOM     12  C   UNL     1       5.404   0.344   1.786  1.00  0.00     0.000 A 
ENDBRANCH   6   7
ENDBRANCH   1   6
TORSDOF 4
ENDMDL
MODEL 2
REMARK VINA RESULT:      -6.6      1.381      2.222
REMARK SMILES O=C(O)CCc1ccccc1
REMARK SMILES IDX 4 1 2 2 1 3 3 4 5 6 6 7 7 8 11 9 8 10 10 11 9 12
REMARK H PARENT 3 5
REMARK Flexibility Score: inf
ROOT
ATOM      1  C   UNL     1       8.291  -0.574  -2.137  1.00  0.00     0.127 C 
ENDROOT
BRANCH   1   2
ATOM      2  C   UNL     1       8.310  -1.840  -2.907  1.00  0.00     0.303 C 
ATOM      3  O   UNL     1       7.246  -2.388  -3.286  1.00  0.00    -0.252 OA
BRANCH   2   4
ATOM      4  O   UNL     1       9.509  -2.455  -3.231  1.00  0.00    -0.481 OA
ATOM      5  H   UNL     1       9.697  -3.400  -2.884  1.00  0.00     0.296 HD
ENDBRANCH   2   4
ENDBRANCH   1   2
BRANCH   1   6
ATOM      6  C   UNL     1       6.974  -0.475  -1.427  1.00  0.00     0.047 C 
BRANCH   6   7
ATOM      7  C   UNL     1       6.792   0.770  -0.684  1.00  0.00    -0.047 A 
ATOM      8  C   UNL     1       5.557   1.371  -0.610  1.00  0.00     0.004 A 
ATOM      9  C   UNL     1       7.873   1.339  -0.052  1.00  0.00     0.004 A 
ATOM     10  C   UNL     1       5.456   2.558   0.119  1.00  0.00     0.000 A 
ATOM     11  C   UNL     1       7.772   2.513   0.668  1.00  0.00     0.000 A 
ATOM     12  C   UNL     1       6.538   3.122   0.746  1.00  0.00     0.000 A 
ENDBRANCH   6   7
ENDBRANCH   1   6
TORSDOF 4
ENDMDL
