@<TRIPOS>MOLECULE
/home/cewinharhar/GITHUB/reincatalyze/data/processed/docking_pred/2023-May-02-0947_maxeplen10_maxtrainstep1000_seadep32_gamma099_lrac9e-4_lrcr1e-3/1caf15995fa8372ea76f1cb48e36fe3c815c3a18_ligand_2.pdbqt
 12 12 0 0 0
SMALL
GASTEIGER

@<TRIPOS>ATOM
      1  C          8.2910   -0.5740   -2.1370 C.3     1  UNL1        0.1270
      2  C          8.3100   -1.8400   -2.9070 C.2     1  UNL1        0.3030
      3  O          7.2460   -2.3880   -3.2860 O.2     1  UNL1       -0.2520
      4  O          9.5090   -2.4550   -3.2310 O.3     1  UNL1       -0.4810
      5  H          9.6970   -3.4000   -2.8840 H       1  UNL1        0.2960
      6  C          6.9740   -0.4750   -1.4270 C.3     1  UNL1        0.0470
      7  C          6.7920    0.7700   -0.6840 C.2     1  UNL1       -0.0470
      8  C          5.5570    1.3710   -0.6100 C.2     1  UNL1        0.0040
      9  C          7.8730    1.3390   -0.0520 C.2     1  UNL1        0.0040
     10  C          5.4560    2.5580    0.1190 C.2     1  UNL1        0.0000
     11  C          7.7720    2.5130    0.6680 C.2     1  UNL1        0.0000
     12  C          6.5380    3.1220    0.7460 C.2     1  UNL1        0.0000
@<TRIPOS>BOND
     1     3     2    2
     2     4     2    1
     3     4     5    1
     4     2     1    1
     5     1     6    1
     6     6     7    1
     7     7     8    2
     8     7     9    1
     9     8    10    1
    10     9    11    2
    11    10    12    2
    12    11    12    1
