MODEL 1
REMARK VINA RESULT:      -6.7      0.000      0.000
REMARK SMILES O=C(O)CCc1ccccc1
REMARK SMILES IDX 4 1 2 2 1 3 3 4 5 6 6 7 7 8 11 9 8 10 10 11 9 12
REMARK H PARENT 3 5
REMARK Flexibility Score: inf
ROOT
ATOM      1  C   UNL     1       8.351  -0.382  -2.137  1.00  0.00     0.127 C 
ENDROOT
BRANCH   1   2
ATOM      2  C   UNL     1       8.459  -1.696  -2.815  1.00  0.00     0.303 C 
ATOM      3  O   UNL     1       9.568  -2.269  -2.950  1.00  0.00    -0.252 OA
BRANCH   2   4
ATOM      4  O   UNL     1       7.335  -2.329  -3.320  1.00  0.00    -0.481 OA
ATOM      5  H   UNL     1       6.457  -1.808  -3.392  1.00  0.00     0.296 HD
ENDBRANCH   2   4
ENDBRANCH   1   2
BRANCH   1   6
ATOM      6  C   UNL     1       6.903  -0.004  -2.072  1.00  0.00     0.047 C 
BRANCH   6   7
ATOM      7  C   UNL     1       6.387   0.138  -0.711  1.00  0.00    -0.047 A 
ATOM      8  C   UNL     1       5.756   1.294  -0.316  1.00  0.00     0.004 A 
ATOM      9  C   UNL     1       6.536  -0.903   0.176  1.00  0.00     0.004 A 
ATOM     10  C   UNL     1       5.287   1.360   0.998  1.00  0.00     0.000 A 
ATOM     11  C   UNL     1       6.072  -0.836   1.474  1.00  0.00     0.000 A 
ATOM     12  C   UNL     1       5.440   0.319   1.879  1.00  0.00     0.000 A 
ENDBRANCH   6   7
ENDBRANCH   1   6
TORSDOF 4
ENDMDL
MODEL 2
REMARK VINA RESULT:      -6.6      3.693      4.881
REMARK SMILES O=C(O)CCc1ccccc1
REMARK SMILES IDX 4 1 2 2 1 3 3 4 5 6 6 7 7 8 11 9 8 10 10 11 9 12
REMARK H PARENT 3 5
REMARK Flexibility Score: inf
ROOT
ATOM      1  C   UNL     1       5.409   2.902   0.021  1.00  0.00     0.127 C 
ENDROOT
BRANCH   1   2
ATOM      2  C   UNL     1       6.205   3.885   0.793  1.00  0.00     0.303 C 
ATOM      3  O   UNL     1       6.896   4.761   0.216  1.00  0.00    -0.252 OA
BRANCH   2   4
ATOM      4  O   UNL     1       6.208   3.864   2.179  1.00  0.00    -0.481 OA
ATOM      5  H   UNL     1       5.595   4.504   2.691  1.00  0.00     0.296 HD
ENDBRANCH   2   4
ENDBRANCH   1   2
BRANCH   1   6
ATOM      6  C   UNL     1       4.945   1.831   0.959  1.00  0.00     0.047 C 
BRANCH   6   7
ATOM      7  C   UNL     1       5.741   0.605   0.903  1.00  0.00    -0.047 A 
ATOM      8  C   UNL     1       5.844  -0.217   2.000  1.00  0.00     0.004 A 
ATOM      9  C   UNL     1       6.388   0.279  -0.266  1.00  0.00     0.004 A 
ATOM     10  C   UNL     1       6.620  -1.372   1.874  1.00  0.00     0.000 A 
ATOM     11  C   UNL     1       7.155  -0.863  -0.389  1.00  0.00     0.000 A 
ATOM     12  C   UNL     1       7.264  -1.692   0.706  1.00  0.00     0.000 A 
ENDBRANCH   6   7
ENDBRANCH   1   6
TORSDOF 4
ENDMDL
