@<TRIPOS>MOLECULE
/home/cewinharhar/GITHUB/reincatalyze/data/processed/docking_pred/2023-May-02-0947_maxeplen10_maxtrainstep1000_seadep32_gamma099_lrac9e-4_lrcr1e-3/1e16add1d5649bf0b13dd0d86c7d3fc630d89625_ligand_2.pdbqt
 12 12 0 0 0
SMALL
GASTEIGER

@<TRIPOS>ATOM
      1  C          5.4090    2.9020    0.0210 C.3     1  UNL1        0.1270
      2  C          6.2050    3.8850    0.7930 C.2     1  UNL1        0.3030
      3  O          6.8960    4.7610    0.2160 O.2     1  UNL1       -0.2520
      4  O          6.2080    3.8640    2.1790 O.3     1  UNL1       -0.4810
      5  H          5.5950    4.5040    2.6910 H       1  UNL1        0.2960
      6  C          4.9450    1.8310    0.9590 C.3     1  UNL1        0.0470
      7  C          5.7410    0.6050    0.9030 C.2     1  UNL1       -0.0470
      8  C          5.8440   -0.2170    2.0000 C.2     1  UNL1        0.0040
      9  C          6.3880    0.2790   -0.2660 C.2     1  UNL1        0.0040
     10  C          6.6200   -1.3720    1.8740 C.2     1  UNL1        0.0000
     11  C          7.1550   -0.8630   -0.3890 C.2     1  UNL1        0.0000
     12  C          7.2640   -1.6920    0.7060 C.2     1  UNL1        0.0000
@<TRIPOS>BOND
     1    11     9    1
     2    11    12    2
     3     9     7    2
     4     1     2    1
     5     1     6    1
     6     3     2    2
     7    12    10    1
     8     2     4    1
     9     7     6    1
    10     7     8    1
    11    10     8    2
    12     4     5    1
