@<TRIPOS>MOLECULE
/home/cewinharhar/GITHUB/reincatalyze/data/processed/docking_pred/2023-May-02-0947_maxeplen10_maxtrainstep1000_seadep32_gamma099_lrac9e-4_lrcr1e-3/1e16add1d5649bf0b13dd0d86c7d3fc630d89625_ligand_2.pdbqt
 12 12 0 0 0
SMALL
GASTEIGER

@<TRIPOS>ATOM
      1  C          5.0490    1.7320    0.6900 C.3     1  UNL1        0.1270
      2  C          4.5930    1.0400    1.9190 C.2     1  UNL1        0.3030
      3  O          5.3080    0.1750    2.4820 O.2     1  UNL1       -0.2520
      4  O          3.3600    1.3290    2.4810 O.3     1  UNL1       -0.4810
      5  H          3.3120    1.6220    3.4600 H       1  UNL1        0.2960
      6  C          6.5460    1.7890    0.7100 C.3     1  UNL1        0.0470
      7  C          7.1840    1.0290   -0.3630 C.2     1  UNL1       -0.0470
      8  C          8.5180    1.2020   -0.6500 C.2     1  UNL1        0.0040
      9  C          6.4340    0.1320   -1.0880 C.2     1  UNL1        0.0040
     10  C          9.0620    0.4410   -1.6880 C.2     1  UNL1        0.0000
     11  C          6.9730   -0.6190   -2.1140 C.2     1  UNL1        0.0000
     12  C          8.3090   -0.4520   -2.4080 C.2     1  UNL1        0.0000
@<TRIPOS>BOND
     1    12    11    2
     2    12    10    1
     3    11     9    1
     4    10     8    2
     5     9     7    2
     6     8     7    1
     7     7     6    1
     8     1     6    1
     9     1     2    1
    10     2     4    1
    11     2     3    2
    12     4     5    1
