@<TRIPOS>MOLECULE
/home/cewinharhar/GITHUB/reincatalyze/data/processed/docking_pred/2023-May-02-0947_maxeplen10_maxtrainstep1000_seadep32_gamma099_lrac9e-4_lrcr1e-3/1e16add1d5649bf0b13dd0d86c7d3fc630d89625_ligand_2.pdbqt
 12 12 0 0 0
SMALL
GASTEIGER

@<TRIPOS>ATOM
      1  C          8.3510   -0.3820   -2.1370 C.3     1  UNL1        0.1270
      2  C          8.4590   -1.6960   -2.8150 C.2     1  UNL1        0.3030
      3  O          9.5680   -2.2690   -2.9500 O.2     1  UNL1       -0.2520
      4  O          7.3350   -2.3290   -3.3200 O.3     1  UNL1       -0.4810
      5  H          6.4570   -1.8080   -3.3920 H       1  UNL1        0.2960
      6  C          6.9030   -0.0040   -2.0720 C.3     1  UNL1        0.0470
      7  C          6.3870    0.1380   -0.7110 C.2     1  UNL1       -0.0470
      8  C          5.7560    1.2940   -0.3160 C.2     1  UNL1        0.0040
      9  C          6.5360   -0.9030    0.1760 C.2     1  UNL1        0.0040
     10  C          5.2870    1.3600    0.9980 C.2     1  UNL1        0.0000
     11  C          6.0720   -0.8360    1.4740 C.2     1  UNL1        0.0000
     12  C          5.4400    0.3190    1.8790 C.2     1  UNL1        0.0000
@<TRIPOS>BOND
     1     5     4    1
     2     4     2    1
     3     3     2    2
     4     2     1    1
     5     1     6    1
     6     6     7    1
     7     7     8    2
     8     7     9    1
     9     8    10    1
    10     9    11    2
    11    10    12    2
    12    11    12    1
