@<TRIPOS>MOLECULE
/home/cewinharhar/GITHUB/reincatalyze/data/processed/docking_pred/2023-May-02-0947_maxeplen10_maxtrainstep1000_seadep32_gamma099_lrac9e-4_lrcr1e-3/1e20ac6c45a20644dde897fa0fc5711864bcd284_ligand_2.pdbqt
 12 12 0 0 0
SMALL
GASTEIGER

@<TRIPOS>ATOM
      1  C          8.2340   -0.4720   -2.3620 C.3     1  UNL1        0.1270
      2  C          8.3690   -1.8170   -2.9690 C.2     1  UNL1        0.3030
      3  O          9.4870   -2.3820   -3.0560 O.2     1  UNL1       -0.2520
      4  O          7.2610   -2.4890   -3.4590 O.3     1  UNL1       -0.4810
      5  H          7.0630   -3.4380   -3.1290 H       1  UNL1        0.2960
      6  C          7.0140   -0.4680   -1.4920 C.3     1  UNL1        0.0470
      7  C          6.8340    0.7640   -0.7250 C.2     1  UNL1       -0.0470
      8  C          7.8980    1.3560   -0.0860 C.2     1  UNL1        0.0040
      9  C          5.5830    1.3310   -0.6500 C.2     1  UNL1        0.0040
     10  C          7.6530    2.5320    0.6270 C.2     1  UNL1        0.0000
     11  C          5.3420    2.4930    0.0560 C.2     1  UNL1        0.0000
     12  C          6.4030    3.0920    0.7000 C.2     1  UNL1        0.0000
@<TRIPOS>BOND
     1     4     5    1
     2     4     2    1
     3     3     2    2
     4     2     1    1
     5     1     6    1
     6     6     7    1
     7     7     9    2
     8     7     8    1
     9     9    11    1
    10     8    10    2
    11    11    12    2
    12    10    12    1
