MODEL 1
REMARK VINA RESULT:      -7.0      0.000      0.000
REMARK SMILES O=C(O)CCc1ccccc1
REMARK SMILES IDX 4 1 2 2 1 3 3 4 5 6 6 7 7 8 11 9 8 10 10 11 9 12
REMARK H PARENT 3 5
REMARK Flexibility Score: inf
ROOT
ATOM      1  C   UNL     1       8.405  -0.647  -2.081  1.00  0.00     0.127 C 
ENDROOT
BRANCH   1   2
ATOM      2  C   UNL     1       8.378  -1.894  -2.881  1.00  0.00     0.303 C 
ATOM      3  O   UNL     1       7.292  -2.413  -3.241  1.00  0.00    -0.252 OA
BRANCH   2   4
ATOM      4  O   UNL     1       9.554  -2.524  -3.254  1.00  0.00    -0.481 OA
ATOM      5  H   UNL     1       9.669  -3.524  -3.065  1.00  0.00     0.296 HD
ENDBRANCH   2   4
ENDBRANCH   1   2
BRANCH   1   6
ATOM      6  C   UNL     1       7.027  -0.060  -2.078  1.00  0.00     0.047 C 
BRANCH   6   7
ATOM      7  C   UNL     1       6.454   0.106  -0.743  1.00  0.00    -0.047 A 
ATOM      8  C   UNL     1       5.800   1.265  -0.397  1.00  0.00     0.004 A 
ATOM      9  C   UNL     1       6.573  -0.917   0.170  1.00  0.00     0.004 A 
ATOM     10  C   UNL     1       5.277   1.354   0.895  1.00  0.00     0.000 A 
ATOM     11  C   UNL     1       6.055  -0.828   1.447  1.00  0.00     0.000 A 
ATOM     12  C   UNL     1       5.400   0.331   1.802  1.00  0.00     0.000 A 
ENDBRANCH   6   7
ENDBRANCH   1   6
TORSDOF 4
ENDMDL
MODEL 2
REMARK VINA RESULT:      -6.8      1.399      2.195
REMARK SMILES O=C(O)CCc1ccccc1
REMARK SMILES IDX 4 1 2 2 1 3 3 4 5 6 6 7 7 8 11 9 8 10 10 11 9 12
REMARK H PARENT 3 5
REMARK Flexibility Score: inf
ROOT
ATOM      1  C   UNL     1       8.234  -0.472  -2.362  1.00  0.00     0.127 C 
ENDROOT
BRANCH   1   2
ATOM      2  C   UNL     1       8.369  -1.817  -2.969  1.00  0.00     0.303 C 
ATOM      3  O   UNL     1       9.487  -2.382  -3.056  1.00  0.00    -0.252 OA
BRANCH   2   4
ATOM      4  O   UNL     1       7.261  -2.489  -3.459  1.00  0.00    -0.481 OA
ATOM      5  H   UNL     1       7.063  -3.438  -3.129  1.00  0.00     0.296 HD
ENDBRANCH   2   4
ENDBRANCH   1   2
BRANCH   1   6
ATOM      6  C   UNL     1       7.014  -0.468  -1.492  1.00  0.00     0.047 C 
BRANCH   6   7
ATOM      7  C   UNL     1       6.834   0.764  -0.725  1.00  0.00    -0.047 A 
ATOM      8  C   UNL     1       7.898   1.356  -0.086  1.00  0.00     0.004 A 
ATOM      9  C   UNL     1       5.583   1.331  -0.650  1.00  0.00     0.004 A 
ATOM     10  C   UNL     1       7.653   2.532   0.627  1.00  0.00     0.000 A 
ATOM     11  C   UNL     1       5.342   2.493   0.056  1.00  0.00     0.000 A 
ATOM     12  C   UNL     1       6.403   3.092   0.700  1.00  0.00     0.000 A 
ENDBRANCH   6   7
ENDBRANCH   1   6
TORSDOF 4
ENDMDL
