@<TRIPOS>MOLECULE
/home/cewinharhar/GITHUB/reincatalyze/data/processed/docking_pred/2023-May-02-0947_maxeplen10_maxtrainstep1000_seadep32_gamma099_lrac9e-4_lrcr1e-3/1e20ac6c45a20644dde897fa0fc5711864bcd284_ligand_2.pdbqt
 12 12 0 0 0
SMALL
GASTEIGER

@<TRIPOS>ATOM
      1  C          8.4050   -0.6470   -2.0810 C.3     1  UNL1        0.1270
      2  C          8.3780   -1.8940   -2.8810 C.2     1  UNL1        0.3030
      3  O          7.2920   -2.4130   -3.2410 O.2     1  UNL1       -0.2520
      4  O          9.5540   -2.5240   -3.2540 O.3     1  UNL1       -0.4810
      5  H          9.6690   -3.5240   -3.0650 H       1  UNL1        0.2960
      6  C          7.0270   -0.0600   -2.0780 C.3     1  UNL1        0.0470
      7  C          6.4540    0.1060   -0.7430 C.2     1  UNL1       -0.0470
      8  C          5.8000    1.2650   -0.3970 C.2     1  UNL1        0.0040
      9  C          6.5730   -0.9170    0.1700 C.2     1  UNL1        0.0040
     10  C          5.2770    1.3540    0.8950 C.2     1  UNL1        0.0000
     11  C          6.0550   -0.8280    1.4470 C.2     1  UNL1        0.0000
     12  C          5.4000    0.3310    1.8020 C.2     1  UNL1        0.0000
@<TRIPOS>BOND
     1     4     5    1
     2     4     2    1
     3     3     2    2
     4     2     1    1
     5     1     6    1
     6     6     7    1
     7     7     8    2
     8     7     9    1
     9     8    10    1
    10     9    11    2
    11    10    12    2
    12    11    12    1
