@<TRIPOS>MOLECULE
/home/cewinharhar/GITHUB/reincatalyze/data/processed/docking_pred/2023-May-02-0947_maxeplen10_maxtrainstep1000_seadep32_gamma099_lrac9e-4_lrcr1e-3/1e8ffecbec14ce573bf52adb8829230239be76a8_ligand_2.pdbqt
 12 12 0 0 0
SMALL
GASTEIGER

@<TRIPOS>ATOM
      1  C          8.9570   -1.5250    0.3370 C.3     1  UNL1        0.1270
      2  C          9.2700   -2.9720    0.4030 C.2     1  UNL1        0.3030
      3  O         10.4190   -3.3760    0.7080 O.2     1  UNL1       -0.2520
      4  O          8.2990   -3.9220    0.1300 O.3     1  UNL1       -0.4810
      5  H          8.4140   -4.8740    0.4870 H       1  UNL1        0.2960
      6  C          7.7530   -1.3430   -0.5360 C.3     1  UNL1        0.0470
      7  C          6.8080   -0.3420   -0.0430 C.2     1  UNL1       -0.0470
      8  C          6.3980    0.6940   -0.8500 C.2     1  UNL1        0.0040
      9  C          6.3260   -0.4480    1.2410 C.2     1  UNL1        0.0040
     10  C          5.4930    1.6130   -0.3140 C.2     1  UNL1        0.0000
     11  C          5.4320    0.4620    1.7690 C.2     1  UNL1        0.0000
     12  C          5.0170    1.5040    0.9680 C.2     1  UNL1        0.0000
@<TRIPOS>BOND
     1     8    10    1
     2     8     7    2
     3     6     7    1
     4     6     1    1
     5    10    12    2
     6     7     9    1
     7     4     2    1
     8     4     5    1
     9     1     2    1
    10     2     3    2
    11    12    11    1
    12     9    11    2
