@<TRIPOS>MOLECULE
/home/cewinharhar/GITHUB/reincatalyze/data/processed/docking_pred/2023-May-02-0947_maxeplen10_maxtrainstep1000_seadep32_gamma099_lrac9e-4_lrcr1e-3/1e8ffecbec14ce573bf52adb8829230239be76a8_ligand_2.pdbqt
 12 12 0 0 0
SMALL
GASTEIGER

@<TRIPOS>ATOM
      1  C          8.2970    0.2690   -2.2850 C.3     1  UNL1        0.1270
      2  C          9.5180   -0.0030   -1.4910 C.2     1  UNL1        0.3030
      3  O          9.8180   -1.1700   -1.1380 O.2     1  UNL1       -0.2520
      4  O         10.3640    1.0280   -1.1130 O.3     1  UNL1       -0.4810
      5  H         10.4190    1.2950   -0.1270 H       1  UNL1        0.2960
      6  C          7.2050   -0.6320   -1.7940 C.3     1  UNL1        0.0470
      7  C          6.5240   -0.1430   -0.5960 C.2     1  UNL1       -0.0470
      8  C          5.9340    1.0990   -0.5810 C.2     1  UNL1        0.0040
      9  C          6.4770   -0.9420    0.5220 C.2     1  UNL1        0.0040
     10  C          5.3000    1.5010    0.5970 C.2     1  UNL1        0.0000
     11  C          5.8500   -0.5440    1.6860 C.2     1  UNL1        0.0000
     12  C          5.2570    0.7000    1.7100 C.2     1  UNL1        0.0000
@<TRIPOS>BOND
     1     1     6    1
     2     1     2    1
     3     6     7    1
     4     2     3    2
     5     2     4    1
     6     4     5    1
     7     7     8    2
     8     7     9    1
     9     8    10    1
    10     9    11    2
    11    10    12    2
    12    11    12    1
