MODEL 1
REMARK VINA RESULT:      -6.5      0.000      0.000
REMARK SMILES O=C(O)CCc1ccccc1
REMARK SMILES IDX 4 1 2 2 1 3 3 4 5 6 6 7 7 8 11 9 8 10 10 11 9 12
REMARK H PARENT 3 5
REMARK Flexibility Score: inf
ROOT
ATOM      1  C   UNL     1       8.297   0.269  -2.285  1.00  0.00     0.127 C 
ENDROOT
BRANCH   1   2
ATOM      2  C   UNL     1       9.518  -0.003  -1.491  1.00  0.00     0.303 C 
ATOM      3  O   UNL     1       9.818  -1.170  -1.138  1.00  0.00    -0.252 OA
BRANCH   2   4
ATOM      4  O   UNL     1      10.364   1.028  -1.113  1.00  0.00    -0.481 OA
ATOM      5  H   UNL     1      10.419   1.295  -0.127  1.00  0.00     0.296 HD
ENDBRANCH   2   4
ENDBRANCH   1   2
BRANCH   1   6
ATOM      6  C   UNL     1       7.205  -0.632  -1.794  1.00  0.00     0.047 C 
BRANCH   6   7
ATOM      7  C   UNL     1       6.524  -0.143  -0.596  1.00  0.00    -0.047 A 
ATOM      8  C   UNL     1       5.934   1.099  -0.581  1.00  0.00     0.004 A 
ATOM      9  C   UNL     1       6.477  -0.942   0.522  1.00  0.00     0.004 A 
ATOM     10  C   UNL     1       5.300   1.501   0.597  1.00  0.00     0.000 A 
ATOM     11  C   UNL     1       5.850  -0.544   1.686  1.00  0.00     0.000 A 
ATOM     12  C   UNL     1       5.257   0.700   1.710  1.00  0.00     0.000 A 
ENDBRANCH   6   7
ENDBRANCH   1   6
TORSDOF 4
ENDMDL
MODEL 2
REMARK VINA RESULT:      -6.5      1.219      2.159
REMARK SMILES O=C(O)CCc1ccccc1
REMARK SMILES IDX 4 1 2 2 1 3 3 4 5 6 6 7 7 8 11 9 8 10 10 11 9 12
REMARK H PARENT 3 5
REMARK Flexibility Score: inf
ROOT
ATOM      1  C   UNL     1       8.627  -0.286  -1.847  1.00  0.00     0.127 C 
ENDROOT
BRANCH   1   2
ATOM      2  C   UNL     1       8.938  -1.639  -2.365  1.00  0.00     0.303 C 
ATOM      3  O   UNL     1      10.124  -2.013  -2.538  1.00  0.00    -0.252 OA
BRANCH   2   4
ATOM      4  O   UNL     1       7.924  -2.531  -2.675  1.00  0.00    -0.481 OA
ATOM      5  H   UNL     1       8.154  -3.405  -3.156  1.00  0.00     0.296 HD
ENDBRANCH   2   4
ENDBRANCH   1   2
BRANCH   1   6
ATOM      6  C   UNL     1       7.147  -0.072  -1.945  1.00  0.00     0.047 C 
BRANCH   6   7
ATOM      7  C   UNL     1       6.491   0.143  -0.657  1.00  0.00    -0.047 A 
ATOM      8  C   UNL     1       6.562  -0.806   0.336  1.00  0.00     0.004 A 
ATOM      9  C   UNL     1       5.798   1.313  -0.444  1.00  0.00     0.004 A 
ATOM     10  C   UNL     1       5.912  -0.532   1.542  1.00  0.00     0.000 A 
ATOM     11  C   UNL     1       5.156   1.581   0.748  1.00  0.00     0.000 A 
ATOM     12  C   UNL     1       5.222   0.635   1.748  1.00  0.00     0.000 A 
ENDBRANCH   6   7
ENDBRANCH   1   6
TORSDOF 4
ENDMDL
MODEL 3
REMARK VINA RESULT:      -6.4      2.891      4.661
REMARK SMILES O=C(O)CCc1ccccc1
REMARK SMILES IDX 4 1 2 2 1 3 3 4 5 6 6 7 7 8 11 9 8 10 10 11 9 12
REMARK H PARENT 3 5
REMARK Flexibility Score: inf
ROOT
ATOM      1  C   UNL     1       5.764   1.028  -0.144  1.00  0.00     0.127 C 
ENDROOT
BRANCH   1   2
ATOM      2  C   UNL     1       5.321   1.535   1.176  1.00  0.00     0.303 C 
ATOM      3  O   UNL     1       5.295   2.766   1.425  1.00  0.00    -0.252 OA
BRANCH   2   4
ATOM      4  O   UNL     1       4.921   0.662   2.174  1.00  0.00    -0.481 OA
ATOM      5  H   UNL     1       4.819  -0.334   1.958  1.00  0.00     0.296 HD
ENDBRANCH   2   4
ENDBRANCH   1   2
BRANCH   1   6
ATOM      6  C   UNL     1       6.433  -0.296   0.061  1.00  0.00     0.047 C 
BRANCH   6   7
ATOM      7  C   UNL     1       7.888  -0.254  -0.074  1.00  0.00    -0.047 A 
ATOM      8  C   UNL     1       8.685  -1.139   0.615  1.00  0.00     0.004 A 
ATOM      9  C   UNL     1       8.459   0.683  -0.904  1.00  0.00     0.004 A 
ATOM     10  C   UNL     1      10.067  -1.042   0.437  1.00  0.00     0.000 A 
ATOM     11  C   UNL     1       9.825   0.778  -1.078  1.00  0.00     0.000 A 
ATOM     12  C   UNL     1      10.630  -0.104  -0.391  1.00  0.00     0.000 A 
ENDBRANCH   6   7
ENDBRANCH   1   6
TORSDOF 4
ENDMDL
MODEL 4
REMARK VINA RESULT:      -6.3      2.085      2.510
REMARK SMILES O=C(O)CCc1ccccc1
REMARK SMILES IDX 4 1 2 2 1 3 3 4 5 6 6 7 7 8 11 9 8 10 10 11 9 12
REMARK H PARENT 3 5
REMARK Flexibility Score: inf
ROOT
ATOM      1  C   UNL     1       8.957  -1.525   0.337  1.00  0.00     0.127 C 
ENDROOT
BRANCH   1   2
ATOM      2  C   UNL     1       9.270  -2.972   0.403  1.00  0.00     0.303 C 
ATOM      3  O   UNL     1      10.419  -3.376   0.708  1.00  0.00    -0.252 OA
BRANCH   2   4
ATOM      4  O   UNL     1       8.299  -3.922   0.130  1.00  0.00    -0.481 OA
ATOM      5  H   UNL     1       8.414  -4.874   0.487  1.00  0.00     0.296 HD
ENDBRANCH   2   4
ENDBRANCH   1   2
BRANCH   1   6
ATOM      6  C   UNL     1       7.753  -1.343  -0.536  1.00  0.00     0.047 C 
BRANCH   6   7
ATOM      7  C   UNL     1       6.808  -0.342  -0.043  1.00  0.00    -0.047 A 
ATOM      8  C   UNL     1       6.398   0.694  -0.850  1.00  0.00     0.004 A 
ATOM      9  C   UNL     1       6.326  -0.448   1.241  1.00  0.00     0.004 A 
ATOM     10  C   UNL     1       5.493   1.613  -0.314  1.00  0.00     0.000 A 
ATOM     11  C   UNL     1       5.432   0.462   1.769  1.00  0.00     0.000 A 
ATOM     12  C   UNL     1       5.017   1.504   0.968  1.00  0.00     0.000 A 
ENDBRANCH   6   7
ENDBRANCH   1   6
TORSDOF 4
ENDMDL
