@<TRIPOS>MOLECULE
/home/cewinharhar/GITHUB/reincatalyze/data/processed/docking_pred/2023-May-02-0947_maxeplen10_maxtrainstep1000_seadep32_gamma099_lrac9e-4_lrcr1e-3/1e8ffecbec14ce573bf52adb8829230239be76a8_ligand_2.pdbqt
 12 12 0 0 0
SMALL
GASTEIGER

@<TRIPOS>ATOM
      1  C          8.6270   -0.2860   -1.8470 C.3     1  UNL1        0.1270
      2  C          8.9380   -1.6390   -2.3650 C.2     1  UNL1        0.3030
      3  O         10.1240   -2.0130   -2.5380 O.2     1  UNL1       -0.2520
      4  O          7.9240   -2.5310   -2.6750 O.3     1  UNL1       -0.4810
      5  H          8.1540   -3.4050   -3.1560 H       1  UNL1        0.2960
      6  C          7.1470   -0.0720   -1.9450 C.3     1  UNL1        0.0470
      7  C          6.4910    0.1430   -0.6570 C.2     1  UNL1       -0.0470
      8  C          6.5620   -0.8060    0.3360 C.2     1  UNL1        0.0040
      9  C          5.7980    1.3130   -0.4440 C.2     1  UNL1        0.0040
     10  C          5.9120   -0.5320    1.5420 C.2     1  UNL1        0.0000
     11  C          5.1560    1.5810    0.7480 C.2     1  UNL1        0.0000
     12  C          5.2220    0.6350    1.7480 C.2     1  UNL1        0.0000
@<TRIPOS>BOND
     1     5     4    1
     2     4     2    1
     3     3     2    2
     4     2     1    1
     5     6     1    1
     6     6     7    1
     7     7     9    2
     8     7     8    1
     9     9    11    1
    10     8    10    2
    11    11    12    2
    12    10    12    1
