@<TRIPOS>MOLECULE
/home/cewinharhar/GITHUB/reincatalyze/data/processed/docking_pred/2023-May-02-0947_maxeplen10_maxtrainstep1000_seadep32_gamma099_lrac9e-4_lrcr1e-3/1e8ffecbec14ce573bf52adb8829230239be76a8_ligand_2.pdbqt
 12 12 0 0 0
SMALL
GASTEIGER

@<TRIPOS>ATOM
      1  C          5.7640    1.0280   -0.1440 C.3     1  UNL1        0.1270
      2  C          5.3210    1.5350    1.1760 C.2     1  UNL1        0.3030
      3  O          5.2950    2.7660    1.4250 O.2     1  UNL1       -0.2520
      4  O          4.9210    0.6620    2.1740 O.3     1  UNL1       -0.4810
      5  H          4.8190   -0.3340    1.9580 H       1  UNL1        0.2960
      6  C          6.4330   -0.2960    0.0610 C.3     1  UNL1        0.0470
      7  C          7.8880   -0.2540   -0.0740 C.2     1  UNL1       -0.0470
      8  C          8.6850   -1.1390    0.6150 C.2     1  UNL1        0.0040
      9  C          8.4590    0.6830   -0.9040 C.2     1  UNL1        0.0040
     10  C         10.0670   -1.0420    0.4370 C.2     1  UNL1        0.0000
     11  C          9.8250    0.7780   -1.0780 C.2     1  UNL1        0.0000
     12  C         10.6300   -0.1040   -0.3910 C.2     1  UNL1        0.0000
@<TRIPOS>BOND
     1    11     9    1
     2    11    12    2
     3     9     7    2
     4    12    10    1
     5     1     6    1
     6     1     2    1
     7     7     6    1
     8     7     8    1
     9    10     8    2
    10     2     3    2
    11     2     4    1
    12     5     4    1
