@<TRIPOS>MOLECULE
/home/cewinharhar/GITHUB/reincatalyze/data/processed/docking_pred/2023-May-02-0947_maxeplen10_maxtrainstep1000_seadep32_gamma099_lrac9e-4_lrcr1e-3/1ec3d4ded79b7f38a98788c4b0a5da992fc20b58_ligand_2.pdbqt
 12 12 0 0 0
SMALL
GASTEIGER

@<TRIPOS>ATOM
      1  C          8.4370   -0.6860   -2.0320 C.3     1  UNL1        0.1270
      2  C          8.4660   -1.9190   -2.8530 C.2     1  UNL1        0.3030
      3  O          9.5420   -2.5280   -3.0760 O.2     1  UNL1       -0.2520
      4  O          7.3020   -2.4340   -3.4010 O.3     1  UNL1       -0.4810
      5  H          7.2170   -2.5080   -4.4180 H       1  UNL1        0.2960
      6  C          7.0480   -0.1280   -2.0690 C.3     1  UNL1        0.0470
      7  C          6.4610    0.0960   -0.7490 C.2     1  UNL1       -0.0470
      8  C          6.5570   -0.8610    0.2350 C.2     1  UNL1        0.0040
      9  C          5.8090    1.2810   -0.4960 C.2     1  UNL1        0.0040
     10  C          5.9750   -0.5790    1.4730 C.2     1  UNL1        0.0000
     11  C          5.2330    1.5570    0.7280 C.2     1  UNL1        0.0000
     12  C          5.3250    0.6040    1.7190 C.2     1  UNL1        0.0000
@<TRIPOS>BOND
     1     5     4    1
     2     4     2    1
     3     3     2    2
     4     2     1    1
     5     6     1    1
     6     6     7    1
     7     7     9    2
     8     7     8    1
     9     9    11    1
    10     8    10    2
    11    11    12    2
    12    10    12    1
