@<TRIPOS>MOLECULE
/home/cewinharhar/GITHUB/reincatalyze/data/processed/docking_pred/2023-May-02-0947_maxeplen10_maxtrainstep1000_seadep32_gamma099_lrac9e-4_lrcr1e-3/1ec3d4ded79b7f38a98788c4b0a5da992fc20b58_ligand_2.pdbqt
 12 12 0 0 0
SMALL
GASTEIGER

@<TRIPOS>ATOM
      1  C          8.3640   -0.3970   -2.1290 C.3     1  UNL1        0.1270
      2  C          8.4660   -1.7040   -2.8200 C.2     1  UNL1        0.3030
      3  O          9.5740   -2.2790   -2.9660 O.2     1  UNL1       -0.2520
      4  O          7.3390   -2.3300   -3.3270 O.3     1  UNL1       -0.4810
      5  H          6.5020   -1.7730   -3.5220 H       1  UNL1        0.2960
      6  C          6.9190   -0.0090   -2.0680 C.3     1  UNL1        0.0470
      7  C          6.3980    0.1340   -0.7100 C.2     1  UNL1       -0.0470
      8  C          5.7550    1.2870   -0.3210 C.2     1  UNL1        0.0040
      9  C          6.5550   -0.9010    0.1820 C.2     1  UNL1        0.0040
     10  C          5.2830    1.3530    0.9920 C.2     1  UNL1        0.0000
     11  C          6.0880   -0.8330    1.4790 C.2     1  UNL1        0.0000
     12  C          5.4430    0.3180    1.8770 C.2     1  UNL1        0.0000
@<TRIPOS>BOND
     1     5     4    1
     2     4     2    1
     3     3     2    2
     4     2     1    1
     5     1     6    1
     6     6     7    1
     7     7     8    2
     8     7     9    1
     9     8    10    1
    10     9    11    2
    11    10    12    2
    12    11    12    1
