MODEL 1
REMARK VINA RESULT:      -7.3      0.000      0.000
REMARK SMILES O=C(O)CCc1ccccc1
REMARK SMILES IDX 4 1 2 2 1 3 3 4 5 6 6 7 7 8 11 9 8 10 10 11 9 12
REMARK H PARENT 3 5
REMARK Flexibility Score: inf
ROOT
ATOM      1  C   UNL     1       8.437  -0.686  -2.032  1.00  0.00     0.127 C 
ENDROOT
BRANCH   1   2
ATOM      2  C   UNL     1       8.466  -1.919  -2.853  1.00  0.00     0.303 C 
ATOM      3  O   UNL     1       9.542  -2.528  -3.076  1.00  0.00    -0.252 OA
BRANCH   2   4
ATOM      4  O   UNL     1       7.302  -2.434  -3.401  1.00  0.00    -0.481 OA
ATOM      5  H   UNL     1       7.217  -2.508  -4.418  1.00  0.00     0.296 HD
ENDBRANCH   2   4
ENDBRANCH   1   2
BRANCH   1   6
ATOM      6  C   UNL     1       7.048  -0.128  -2.069  1.00  0.00     0.047 C 
BRANCH   6   7
ATOM      7  C   UNL     1       6.461   0.096  -0.749  1.00  0.00    -0.047 A 
ATOM      8  C   UNL     1       6.557  -0.861   0.235  1.00  0.00     0.004 A 
ATOM      9  C   UNL     1       5.809   1.281  -0.496  1.00  0.00     0.004 A 
ATOM     10  C   UNL     1       5.975  -0.579   1.473  1.00  0.00     0.000 A 
ATOM     11  C   UNL     1       5.233   1.557   0.728  1.00  0.00     0.000 A 
ATOM     12  C   UNL     1       5.325   0.604   1.719  1.00  0.00     0.000 A 
ENDBRANCH   6   7
ENDBRANCH   1   6
TORSDOF 4
ENDMDL
