@<TRIPOS>MOLECULE
/home/cewinharhar/GITHUB/reincatalyze/data/processed/docking_pred/2023-May-02-0947_maxeplen10_maxtrainstep1000_seadep32_gamma099_lrac9e-4_lrcr1e-3/1f3204452a604bf2b5a1468570937d609aafa137_ligand_2.pdbqt
 12 12 0 0 0
SMALL
GASTEIGER

@<TRIPOS>ATOM
      1  C          8.4030   -0.6580   -2.0740 C.3     1  UNL1        0.1270
      2  C          8.3720   -1.9040   -2.8750 C.2     1  UNL1        0.3030
      3  O          7.2860   -2.4090   -3.2520 O.2     1  UNL1       -0.2520
      4  O          9.5460   -2.5490   -3.2310 O.3     1  UNL1       -0.4810
      5  H         10.3880   -1.9940   -3.4100 H       1  UNL1        0.2960
      6  C          7.0260   -0.0680   -2.0690 C.3     1  UNL1        0.0470
      7  C          6.4580    0.1020   -0.7320 C.2     1  UNL1       -0.0470
      8  C          5.8030    1.2620   -0.3890 C.2     1  UNL1        0.0040
      9  C          6.5820   -0.9160    0.1840 C.2     1  UNL1        0.0040
     10  C          5.2840    1.3550    0.9050 C.2     1  UNL1        0.0000
     11  C          6.0690   -0.8230    1.4630 C.2     1  UNL1        0.0000
     12  C          5.4120    0.3360    1.8150 C.2     1  UNL1        0.0000
@<TRIPOS>BOND
     1     5     4    1
     2     3     2    2
     3     4     2    1
     4     2     1    1
     5     1     6    1
     6     6     7    1
     7     7     8    2
     8     7     9    1
     9     8    10    1
    10     9    11    2
    11    10    12    2
    12    11    12    1
