@<TRIPOS>MOLECULE
/home/cewinharhar/GITHUB/reincatalyze/data/processed/docking_pred/2023-May-02-0947_maxeplen10_maxtrainstep1000_seadep32_gamma099_lrac9e-4_lrcr1e-3/1f3204452a604bf2b5a1468570937d609aafa137_ligand_2.pdbqt
 12 12 0 0 0
SMALL
GASTEIGER

@<TRIPOS>ATOM
      1  C          5.7540    0.9800   -0.1130 C.3     1  UNL1        0.1270
      2  C          5.3000    1.4860    1.2040 C.2     1  UNL1        0.3030
      3  O          5.2900    2.7160    1.4610 O.2     1  UNL1       -0.2520
      4  O          4.8720    0.6130    2.1910 O.3     1  UNL1       -0.4810
      5  H          4.2690    0.9620    2.9410 H       1  UNL1        0.2960
      6  C          6.4850   -0.3100    0.1050 C.3     1  UNL1        0.0470
      7  C          7.9310   -0.2130   -0.0870 C.2     1  UNL1       -0.0470
      8  C          8.4670    0.7350   -0.9270 C.2     1  UNL1        0.0040
      9  C          8.7570   -1.0850    0.5850 C.2     1  UNL1        0.0040
     10  C          9.8570    0.7700   -1.0620 C.2     1  UNL1        0.0000
     11  C         10.1300   -1.0490    0.4500 C.2     1  UNL1        0.0000
     12  C         10.6760   -0.1020   -0.3900 C.2     1  UNL1        0.0000
@<TRIPOS>BOND
     1    10     8    1
     2    10    12    2
     3     8     7    2
     4    12    11    1
     5     1     6    1
     6     1     2    1
     7     7     6    1
     8     7     9    1
     9    11     9    2
    10     2     3    2
    11     2     4    1
    12     4     5    1
