@<TRIPOS>MOLECULE
/home/cewinharhar/GITHUB/reincatalyze/data/processed/docking_pred/2023-May-02-0947_maxeplen10_maxtrainstep1000_seadep32_gamma099_lrac9e-4_lrcr1e-3/1f3204452a604bf2b5a1468570937d609aafa137_ligand_2.pdbqt
 12 12 0 0 0
SMALL
GASTEIGER

@<TRIPOS>ATOM
      1  C          8.2160    0.3210   -2.3610 C.3     1  UNL1        0.1270
      2  C          9.5210    0.0800   -1.7010 C.2     1  UNL1        0.3030
      3  O         10.0230   -1.0710   -1.6510 O.2     1  UNL1       -0.2520
      4  O         10.2250    1.1210   -1.1190 O.3     1  UNL1       -0.4810
      5  H          9.8890    2.0810   -1.2360 H       1  UNL1        0.2960
      6  C          7.2220   -0.6540   -1.8080 C.3     1  UNL1        0.0470
      7  C          6.5570   -0.1980   -0.5890 C.2     1  UNL1       -0.0470
      8  C          5.9780    1.0490   -0.5280 C.2     1  UNL1        0.0040
      9  C          6.5120   -1.0320    0.5040 C.2     1  UNL1        0.0040
     10  C          5.3580    1.4190    0.6680 C.2     1  UNL1        0.0000
     11  C          5.8990   -0.6640    1.6860 C.2     1  UNL1        0.0000
     12  C          5.3180    0.5830    1.7550 C.2     1  UNL1        0.0000
@<TRIPOS>BOND
     1     1     6    1
     2     1     2    1
     3     6     7    1
     4     2     3    2
     5     2     4    1
     6     5     4    1
     7     7     8    2
     8     7     9    1
     9     8    10    1
    10     9    11    2
    11    10    12    2
    12    11    12    1
