MODEL 1
REMARK VINA RESULT:      -7.3      0.000      0.000
REMARK SMILES O=C(O)CCc1ccccc1
REMARK SMILES IDX 4 1 2 2 1 3 3 4 5 6 6 7 7 8 11 9 8 10 10 11 9 12
REMARK H PARENT 3 5
REMARK Flexibility Score: inf
ROOT
ATOM      1  C   UNL     1       8.437  -0.640  -2.123  1.00  0.00     0.127 C 
ENDROOT
BRANCH   1   2
ATOM      2  C   UNL     1       8.473  -1.904  -2.896  1.00  0.00     0.303 C 
ATOM      3  O   UNL     1       9.551  -2.518  -3.088  1.00  0.00    -0.252 OA
BRANCH   2   4
ATOM      4  O   UNL     1       7.314  -2.443  -3.429  1.00  0.00    -0.481 OA
ATOM      5  H   UNL     1       6.830  -3.190  -2.924  1.00  0.00     0.296 HD
ENDBRANCH   2   4
ENDBRANCH   1   2
BRANCH   1   6
ATOM      6  C   UNL     1       7.027  -0.133  -2.116  1.00  0.00     0.047 C 
BRANCH   6   7
ATOM      7  C   UNL     1       6.471   0.061  -0.777  1.00  0.00    -0.047 A 
ATOM      8  C   UNL     1       5.836   1.234  -0.442  1.00  0.00     0.004 A 
ATOM      9  C   UNL     1       6.588  -0.949   0.150  1.00  0.00     0.004 A 
ATOM     10  C   UNL     1       5.328   1.349   0.854  1.00  0.00     0.000 A 
ATOM     11  C   UNL     1       6.086  -0.833   1.431  1.00  0.00     0.000 A 
ATOM     12  C   UNL     1       5.448   0.339   1.775  1.00  0.00     0.000 A 
ENDBRANCH   6   7
ENDBRANCH   1   6
TORSDOF 4
ENDMDL
MODEL 2
REMARK VINA RESULT:      -6.9      0.603      1.873
REMARK SMILES O=C(O)CCc1ccccc1
REMARK SMILES IDX 4 1 2 2 1 3 3 4 5 6 6 7 7 8 11 9 8 10 10 11 9 12
REMARK H PARENT 3 5
REMARK Flexibility Score: inf
ROOT
ATOM      1  C   UNL     1       8.035  -0.900  -1.952  1.00  0.00     0.127 C 
ENDROOT
BRANCH   1   2
ATOM      2  C   UNL     1       8.238  -1.991  -2.934  1.00  0.00     0.303 C 
ATOM      3  O   UNL     1       7.263  -2.582  -3.461  1.00  0.00    -0.252 OA
BRANCH   2   4
ATOM      4  O   UNL     1       9.513  -2.389  -3.300  1.00  0.00    -0.481 OA
ATOM      5  H   UNL     1       9.775  -3.375  -3.211  1.00  0.00     0.296 HD
ENDBRANCH   2   4
ENDBRANCH   1   2
BRANCH   1   6
ATOM      6  C   UNL     1       7.113  -1.397  -0.881  1.00  0.00     0.047 C 
BRANCH   6   7
ATOM      7  C   UNL     1       6.403  -0.335  -0.169  1.00  0.00    -0.047 A 
ATOM      8  C   UNL     1       5.995  -0.513   1.133  1.00  0.00     0.004 A 
ATOM      9  C   UNL     1       6.146   0.851  -0.816  1.00  0.00     0.004 A 
ATOM     10  C   UNL     1       5.322   0.544   1.751  1.00  0.00     0.000 A 
ATOM     11  C   UNL     1       5.480   1.895  -0.203  1.00  0.00     0.000 A 
ATOM     12  C   UNL     1       5.068   1.725   1.101  1.00  0.00     0.000 A 
ENDBRANCH   6   7
ENDBRANCH   1   6
TORSDOF 4
ENDMDL
