@<TRIPOS>MOLECULE
/home/cewinharhar/GITHUB/reincatalyze/data/processed/docking_pred/2023-May-02-0947_maxeplen10_maxtrainstep1000_seadep32_gamma099_lrac9e-4_lrcr1e-3/1f53ccdef65850680f3a99c865464637782ca6a5_ligand_2.pdbqt
 12 12 0 0 0
SMALL
GASTEIGER

@<TRIPOS>ATOM
      1  C          8.2720   -1.2920   -1.9450 C.3     1  UNL1        0.1270
      2  C          8.9130    0.0420   -2.0210 C.2     1  UNL1        0.3030
      3  O          8.3930    0.9760   -2.6800 O.2     1  UNL1       -0.2520
      4  O         10.1060    0.2940   -1.3650 O.3     1  UNL1       -0.4810
      5  H         10.9190    0.6040   -1.9050 H       1  UNL1        0.2960
      6  C          6.8220   -1.1000   -1.6190 C.3     1  UNL1        0.0470
      7  C          6.5560   -0.8850   -0.1980 C.2     1  UNL1       -0.0470
      8  C          5.8320    0.2050    0.2250 C.2     1  UNL1        0.0040
      9  C          7.0370   -1.7910    0.7200 C.2     1  UNL1        0.0040
     10  C          5.6150    0.3470    1.5970 C.2     1  UNL1        0.0000
     11  C          6.8210   -1.6490    2.0760 C.2     1  UNL1        0.0000
     12  C          6.0980   -0.5590    2.5080 C.2     1  UNL1        0.0000
@<TRIPOS>BOND
     1     3     2    2
     2     2     1    1
     3     2     4    1
     4     1     6    1
     5     5     4    1
     6     6     7    1
     7     7     8    2
     8     7     9    1
     9     8    10    1
    10     9    11    2
    11    10    12    2
    12    11    12    1
