@<TRIPOS>MOLECULE
/home/cewinharhar/GITHUB/reincatalyze/data/processed/docking_pred/2023-May-02-0947_maxeplen10_maxtrainstep1000_seadep32_gamma099_lrac9e-4_lrcr1e-3/1f53ccdef65850680f3a99c865464637782ca6a5_ligand_2.pdbqt
 12 12 0 0 0
SMALL
GASTEIGER

@<TRIPOS>ATOM
      1  C          8.4370   -0.6400   -2.1230 C.3     1  UNL1        0.1270
      2  C          8.4730   -1.9040   -2.8960 C.2     1  UNL1        0.3030
      3  O          9.5510   -2.5180   -3.0880 O.2     1  UNL1       -0.2520
      4  O          7.3140   -2.4430   -3.4290 O.3     1  UNL1       -0.4810
      5  H          6.8300   -3.1900   -2.9240 H       1  UNL1        0.2960
      6  C          7.0270   -0.1330   -2.1160 C.3     1  UNL1        0.0470
      7  C          6.4710    0.0610   -0.7770 C.2     1  UNL1       -0.0470
      8  C          5.8360    1.2340   -0.4420 C.2     1  UNL1        0.0040
      9  C          6.5880   -0.9490    0.1500 C.2     1  UNL1        0.0040
     10  C          5.3280    1.3490    0.8540 C.2     1  UNL1        0.0000
     11  C          6.0860   -0.8330    1.4310 C.2     1  UNL1        0.0000
     12  C          5.4480    0.3390    1.7750 C.2     1  UNL1        0.0000
@<TRIPOS>BOND
     1     4     5    1
     2     4     2    1
     3     3     2    2
     4     2     1    1
     5     1     6    1
     6     6     7    1
     7     7     8    2
     8     7     9    1
     9     8    10    1
    10     9    11    2
    11    10    12    2
    12    11    12    1
