@<TRIPOS>MOLECULE
/home/cewinharhar/GITHUB/reincatalyze/data/processed/docking_pred/2023-May-02-0947_maxeplen10_maxtrainstep1000_seadep32_gamma099_lrac9e-4_lrcr1e-3/1f53ccdef65850680f3a99c865464637782ca6a5_ligand_2.pdbqt
 12 12 0 0 0
SMALL
GASTEIGER

@<TRIPOS>ATOM
      1  C          8.0350   -0.9000   -1.9520 C.3     1  UNL1        0.1270
      2  C          8.2380   -1.9910   -2.9340 C.2     1  UNL1        0.3030
      3  O          7.2630   -2.5820   -3.4610 O.2     1  UNL1       -0.2520
      4  O          9.5130   -2.3890   -3.3000 O.3     1  UNL1       -0.4810
      5  H          9.7750   -3.3750   -3.2110 H       1  UNL1        0.2960
      6  C          7.1130   -1.3970   -0.8810 C.3     1  UNL1        0.0470
      7  C          6.4030   -0.3350   -0.1690 C.2     1  UNL1       -0.0470
      8  C          5.9950   -0.5130    1.1330 C.2     1  UNL1        0.0040
      9  C          6.1460    0.8510   -0.8160 C.2     1  UNL1        0.0040
     10  C          5.3220    0.5440    1.7510 C.2     1  UNL1        0.0000
     11  C          5.4800    1.8950   -0.2030 C.2     1  UNL1        0.0000
     12  C          5.0680    1.7250    1.1010 C.2     1  UNL1        0.0000
@<TRIPOS>BOND
     1     3     2    2
     2     4     5    1
     3     4     2    1
     4     2     1    1
     5     1     6    1
     6     6     7    1
     7     9    11    1
     8     9     7    2
     9    11    12    2
    10     7     8    1
    11    12    10    1
    12     8    10    2
