@<TRIPOS>MOLECULE
/home/cewinharhar/GITHUB/reincatalyze/data/processed/docking_pred/2023-May-02-0947_maxeplen10_maxtrainstep1000_seadep32_gamma099_lrac9e-4_lrcr1e-3/1f53ccdef65850680f3a99c865464637782ca6a5_ligand_2.pdbqt
 12 12 0 0 0
SMALL
GASTEIGER

@<TRIPOS>ATOM
      1  C          5.0140   -0.1150    1.9900 C.3     1  UNL1        0.1270
      2  C          4.3480    1.2080    1.9470 C.2     1  UNL1        0.3030
      3  O          4.8580    2.1740    1.3270 O.2     1  UNL1       -0.2520
      4  O          3.1390    1.4160    2.5930 O.3     1  UNL1       -0.4810
      5  H          2.2790    1.4650    2.0410 H       1  UNL1        0.2960
      6  C          6.4730    0.0840    1.7110 C.3     1  UNL1        0.0470
      7  C          6.9740   -0.7010    0.5840 C.2     1  UNL1       -0.0470
      8  C          6.6430   -0.3680   -0.7080 C.2     1  UNL1        0.0040
      9  C          7.7880   -1.7830    0.8290 C.2     1  UNL1        0.0040
     10  C          7.1580   -1.1620   -1.7350 C.2     1  UNL1        0.0000
     11  C          8.2970   -2.5670   -0.1870 C.2     1  UNL1        0.0000
     12  C          7.9690   -2.2400   -1.4850 C.2     1  UNL1        0.0000
@<TRIPOS>BOND
     1    10    12    2
     2    10     8    1
     3    12    11    1
     4     8     7    2
     5    11     9    2
     6     7     9    1
     7     7     6    1
     8     3     2    2
     9     6     1    1
    10     2     1    1
    11     2     4    1
    12     5     4    1
