@<TRIPOS>MOLECULE
/home/cewinharhar/GITHUB/reincatalyze/data/processed/docking_pred/2023-May-02-0947_maxeplen10_maxtrainstep1000_seadep32_gamma099_lrac9e-4_lrcr1e-3/1f774135605f6656ff2aa9e322f53f2a679c664c_ligand_2.pdbqt
 12 12 0 0 0
SMALL
GASTEIGER

@<TRIPOS>ATOM
      1  C          8.4040   -0.6660   -2.0640 C.3     1  UNL1        0.1270
      2  C          8.3740   -1.9050   -2.8770 C.2     1  UNL1        0.3030
      3  O          7.2870   -2.4130   -3.2480 O.2     1  UNL1       -0.2520
      4  O          9.5480   -2.5380   -3.2500 O.3     1  UNL1       -0.4810
      5  H          9.9190   -3.2910   -2.6640 H       1  UNL1        0.2960
      6  C          7.0300   -0.0700   -2.0630 C.3     1  UNL1        0.0470
      7  C          6.4560    0.0990   -0.7290 C.2     1  UNL1       -0.0470
      8  C          5.8040    1.2610   -0.3860 C.2     1  UNL1        0.0040
      9  C          6.5710   -0.9220    0.1860 C.2     1  UNL1        0.0040
     10  C          5.2800    1.3530    0.9060 C.2     1  UNL1        0.0000
     11  C          6.0530   -0.8290    1.4620 C.2     1  UNL1        0.0000
     12  C          5.3990    0.3320    1.8140 C.2     1  UNL1        0.0000
@<TRIPOS>BOND
     1     4     2    1
     2     4     5    1
     3     3     2    2
     4     2     1    1
     5     1     6    1
     6     6     7    1
     7     7     8    2
     8     7     9    1
     9     8    10    1
    10     9    11    2
    11    10    12    2
    12    11    12    1
