@<TRIPOS>MOLECULE
/home/cewinharhar/GITHUB/reincatalyze/data/processed/docking_pred/2023-May-02-0947_maxeplen10_maxtrainstep1000_seadep32_gamma099_lrac9e-4_lrcr1e-3/1fd5ec6d4a6889d2560636754963a08404c0587d_ligand_2.pdbqt
 12 12 0 0 0
SMALL
GASTEIGER

@<TRIPOS>ATOM
      1  C          8.3990   -0.6480   -2.0860 C.3     1  UNL1        0.1270
      2  C          8.3690   -1.9000   -2.8770 C.2     1  UNL1        0.3030
      3  O          7.2830   -2.4070   -3.2530 O.2     1  UNL1       -0.2520
      4  O          9.5430   -2.5490   -3.2240 O.3     1  UNL1       -0.4810
      5  H          9.8850   -2.4850   -4.1870 H       1  UNL1        0.2960
      6  C          7.0180   -0.0650   -2.0750 C.3     1  UNL1        0.0470
      7  C          6.4550    0.1040   -0.7370 C.2     1  UNL1       -0.0470
      8  C          5.7970    1.2620   -0.3920 C.2     1  UNL1        0.0040
      9  C          6.5860   -0.9120    0.1800 C.2     1  UNL1        0.0040
     10  C          5.2830    1.3550    0.9030 C.2     1  UNL1        0.0000
     11  C          6.0770   -0.8190    1.4600 C.2     1  UNL1        0.0000
     12  C          5.4180    0.3380    1.8140 C.2     1  UNL1        0.0000
@<TRIPOS>BOND
     1     5     4    1
     2     3     2    2
     3     4     2    1
     4     2     1    1
     5     1     6    1
     6     6     7    1
     7     7     8    2
     8     7     9    1
     9     8    10    1
    10     9    11    2
    11    10    12    2
    12    11    12    1
