@<TRIPOS>MOLECULE
/home/cewinharhar/GITHUB/reincatalyze/data/processed/docking_pred/2023-May-02-0947_maxeplen10_maxtrainstep1000_seadep32_gamma099_lrac9e-4_lrcr1e-3/1fd5ec6d4a6889d2560636754963a08404c0587d_ligand_2.pdbqt
 12 12 0 0 0
SMALL
GASTEIGER

@<TRIPOS>ATOM
      1  C          7.8990   -1.5230    2.3480 C.3     1  UNL1        0.1270
      2  C          8.8140   -2.4470    1.6370 C.2     1  UNL1        0.3030
      3  O         10.0280   -2.5280    1.9490 O.2     1  UNL1       -0.2520
      4  O          8.3540   -3.2490    0.6060 O.3     1  UNL1       -0.4810
      5  H          8.6560   -3.0550   -0.3530 H       1  UNL1        0.2960
      6  C          6.5500   -1.6060    1.7000 C.3     1  UNL1        0.0470
      7  C          6.1640   -0.3970    0.9740 C.2     1  UNL1       -0.0470
      8  C          6.5380   -0.2140   -0.3370 C.2     1  UNL1        0.0040
      9  C          5.4150    0.5610    1.6170 C.2     1  UNL1        0.0040
     10  C          6.1330    0.9640   -0.9680 C.2     1  UNL1        0.0000
     11  C          5.0150    1.7250    0.9910 C.2     1  UNL1        0.0000
     12  C          5.3870    1.9170   -0.3220 C.2     1  UNL1        0.0000
@<TRIPOS>BOND
     1    10     8    1
     2    10    12    2
     3     5     4    1
     4     8     7    2
     5    12    11    1
     6     4     2    1
     7     7     9    1
     8     7     6    1
     9    11     9    2
    10     2     3    2
    11     2     1    1
    12     6     1    1
