@<TRIPOS>MOLECULE
/home/cewinharhar/GITHUB/reincatalyze/data/processed/docking_pred/2023-May-02-0947_maxeplen10_maxtrainstep1000_seadep32_gamma099_lrac9e-4_lrcr1e-3/2037f81c995398ea407fbfc0a5ecaefc5001139a_ligand_2.pdbqt
 12 12 0 0 0
SMALL
GASTEIGER

@<TRIPOS>ATOM
      1  C          8.2600    0.2800   -2.2130 C.3     1  UNL1        0.1270
      2  C          9.5120    0.0010   -1.4720 C.2     1  UNL1        0.3030
      3  O          9.8090   -1.1650   -1.1120 O.2     1  UNL1       -0.2520
      4  O         10.3920    1.0230   -1.1540 O.3     1  UNL1       -0.4810
      5  H         11.2630    1.1170   -1.6840 H       1  UNL1        0.2960
      6  C          7.1960   -0.6450   -1.7050 C.3     1  UNL1        0.0470
      7  C          6.4980   -0.1530   -0.5180 C.2     1  UNL1       -0.0470
      8  C          5.9110    1.0910   -0.5130 C.2     1  UNL1        0.0040
      9  C          6.4310   -0.9510    0.6000 C.2     1  UNL1        0.0040
     10  C          5.2600    1.4950    0.6550 C.2     1  UNL1        0.0000
     11  C          5.7870   -0.5500    1.7540 C.2     1  UNL1        0.0000
     12  C          5.1970    0.6960    1.7680 C.2     1  UNL1        0.0000
@<TRIPOS>BOND
     1     1     6    1
     2     1     2    1
     3     6     7    1
     4     5     4    1
     5     2     4    1
     6     2     3    2
     7     7     8    2
     8     7     9    1
     9     8    10    1
    10     9    11    2
    11    10    12    2
    12    11    12    1
