@<TRIPOS>MOLECULE
/home/cewinharhar/GITHUB/reincatalyze/data/processed/docking_pred/2023-May-02-0947_maxeplen10_maxtrainstep1000_seadep32_gamma099_lrac9e-4_lrcr1e-3/21195065f8807259401ec3420f3b6dd683f2acc0_ligand_2.pdbqt
 12 12 0 0 0
SMALL
GASTEIGER

@<TRIPOS>ATOM
      1  C          8.5510   -0.5940   -2.2750 C.3     1  UNL1        0.1270
      2  C          8.5450   -1.9130   -2.9510 C.2     1  UNL1        0.3030
      3  O          9.6070   -2.5610   -3.1240 O.2     1  UNL1       -0.2520
      4  O          7.3630   -2.4680   -3.4130 O.3     1  UNL1       -0.4810
      5  H          7.1310   -3.4330   -3.1630 H       1  UNL1        0.2960
      6  C          7.1370   -0.1090   -2.1770 C.3     1  UNL1        0.0470
      7  C          6.7280    0.2590   -0.8220 C.2     1  UNL1       -0.0470
      8  C          5.7560    1.2100   -0.6150 C.2     1  UNL1        0.0040
      9  C          7.3250   -0.3610    0.2510 C.2     1  UNL1        0.0040
     10  C          5.4140    1.5110    0.7050 C.2     1  UNL1        0.0000
     11  C          6.9850   -0.0620    1.5560 C.2     1  UNL1        0.0000
     12  C          6.0140    0.8900    1.7720 C.2     1  UNL1        0.0000
@<TRIPOS>BOND
     1     4     5    1
     2     4     2    1
     3     3     2    2
     4     2     1    1
     5     1     6    1
     6     6     7    1
     7     7     8    2
     8     7     9    1
     9     8    10    1
    10     9    11    2
    11    10    12    2
    12    11    12    1
