@<TRIPOS>MOLECULE
/home/cewinharhar/GITHUB/reincatalyze/data/processed/docking_pred/2023-May-02-0947_maxeplen10_maxtrainstep1000_seadep32_gamma099_lrac9e-4_lrcr1e-3/21195065f8807259401ec3420f3b6dd683f2acc0_ligand_2.pdbqt
 12 12 0 0 0
SMALL
GASTEIGER

@<TRIPOS>ATOM
      1  C          5.0270    1.7770    0.6530 C.3     1  UNL1        0.1270
      2  C          4.5760    1.1170    1.9010 C.2     1  UNL1        0.3030
      3  O          3.4530    1.3710    2.4030 O.2     1  UNL1       -0.2520
      4  O          5.3850    0.1990    2.5510 O.3     1  UNL1       -0.4810
      5  H          4.9980   -0.7110    2.8160 H       1  UNL1        0.2960
      6  C          6.5240    1.8480    0.6720 C.3     1  UNL1        0.0470
      7  C          7.1690    1.0610   -0.3770 C.2     1  UNL1       -0.0470
      8  C          8.5010    1.2400   -0.6720 C.2     1  UNL1        0.0040
      9  C          6.4290    0.1320   -1.0710 C.2     1  UNL1        0.0040
     10  C          9.0520    0.4530   -1.6860 C.2     1  UNL1        0.0000
     11  C          6.9750   -0.6450   -2.0730 C.2     1  UNL1        0.0000
     12  C          8.3080   -0.4720   -2.3750 C.2     1  UNL1        0.0000
@<TRIPOS>BOND
     1    12    11    2
     2    12    10    1
     3    11     9    1
     4    10     8    2
     5     9     7    2
     6     8     7    1
     7     7     6    1
     8     1     6    1
     9     1     2    1
    10     2     3    2
    11     2     4    1
    12     4     5    1
