MODEL 1
REMARK VINA RESULT:      -7.2      0.000      0.000
REMARK SMILES O=C(O)CCc1ccccc1
REMARK SMILES IDX 4 1 2 2 1 3 3 4 5 6 6 7 7 8 11 9 8 10 10 11 9 12
REMARK H PARENT 3 5
REMARK Flexibility Score: inf
ROOT
ATOM      1  C   UNL     1       8.551  -0.594  -2.275  1.00  0.00     0.127 C 
ENDROOT
BRANCH   1   2
ATOM      2  C   UNL     1       8.545  -1.913  -2.951  1.00  0.00     0.303 C 
ATOM      3  O   UNL     1       9.607  -2.561  -3.124  1.00  0.00    -0.252 OA
BRANCH   2   4
ATOM      4  O   UNL     1       7.363  -2.468  -3.413  1.00  0.00    -0.481 OA
ATOM      5  H   UNL     1       7.131  -3.433  -3.163  1.00  0.00     0.296 HD
ENDBRANCH   2   4
ENDBRANCH   1   2
BRANCH   1   6
ATOM      6  C   UNL     1       7.137  -0.109  -2.177  1.00  0.00     0.047 C 
BRANCH   6   7
ATOM      7  C   UNL     1       6.728   0.259  -0.822  1.00  0.00    -0.047 A 
ATOM      8  C   UNL     1       5.756   1.210  -0.615  1.00  0.00     0.004 A 
ATOM      9  C   UNL     1       7.325  -0.361   0.251  1.00  0.00     0.004 A 
ATOM     10  C   UNL     1       5.414   1.511   0.705  1.00  0.00     0.000 A 
ATOM     11  C   UNL     1       6.985  -0.062   1.556  1.00  0.00     0.000 A 
ATOM     12  C   UNL     1       6.014   0.890   1.772  1.00  0.00     0.000 A 
ENDBRANCH   6   7
ENDBRANCH   1   6
TORSDOF 4
ENDMDL
MODEL 2
REMARK VINA RESULT:      -6.9      3.325      5.109
REMARK SMILES O=C(O)CCc1ccccc1
REMARK SMILES IDX 4 1 2 2 1 3 3 4 5 6 6 7 7 8 11 9 8 10 10 11 9 12
REMARK H PARENT 3 5
REMARK Flexibility Score: inf
ROOT
ATOM      1  C   UNL     1       5.027   1.777   0.653  1.00  0.00     0.127 C 
ENDROOT
BRANCH   1   2
ATOM      2  C   UNL     1       4.576   1.117   1.901  1.00  0.00     0.303 C 
ATOM      3  O   UNL     1       3.453   1.371   2.403  1.00  0.00    -0.252 OA
BRANCH   2   4
ATOM      4  O   UNL     1       5.385   0.199   2.551  1.00  0.00    -0.481 OA
ATOM      5  H   UNL     1       4.998  -0.711   2.816  1.00  0.00     0.296 HD
ENDBRANCH   2   4
ENDBRANCH   1   2
BRANCH   1   6
ATOM      6  C   UNL     1       6.524   1.848   0.672  1.00  0.00     0.047 C 
BRANCH   6   7
ATOM      7  C   UNL     1       7.169   1.061  -0.377  1.00  0.00    -0.047 A 
ATOM      8  C   UNL     1       8.501   1.240  -0.672  1.00  0.00     0.004 A 
ATOM      9  C   UNL     1       6.429   0.132  -1.071  1.00  0.00     0.004 A 
ATOM     10  C   UNL     1       9.052   0.453  -1.686  1.00  0.00     0.000 A 
ATOM     11  C   UNL     1       6.975  -0.645  -2.073  1.00  0.00     0.000 A 
ATOM     12  C   UNL     1       8.308  -0.472  -2.375  1.00  0.00     0.000 A 
ENDBRANCH   6   7
ENDBRANCH   1   6
TORSDOF 4
ENDMDL
