@<TRIPOS>MOLECULE
/home/cewinharhar/GITHUB/reincatalyze/data/processed/docking_pred/2023-May-02-0947_maxeplen10_maxtrainstep1000_seadep32_gamma099_lrac9e-4_lrcr1e-3/22478e644e92021fed45641255b53d2cc77f0790_ligand_2.pdbqt
 12 12 0 0 0
SMALL
GASTEIGER

@<TRIPOS>ATOM
      1  C          7.3130   -1.2130   -2.1940 C.3     1  UNL1        0.1270
      2  C          8.7730   -1.2430   -2.4500 C.2     1  UNL1        0.3030
      3  O          9.2970   -2.1670   -3.1210 O.2     1  UNL1       -0.2520
      4  O          9.6010   -0.2500   -1.9540 O.3     1  UNL1       -0.4810
      5  H         10.4460   -0.5130   -1.4400 H       1  UNL1        0.2960
      6  C          7.0900   -1.3890   -0.7230 C.3     1  UNL1        0.0470
      7  C          6.3620   -0.2870   -0.0960 C.2     1  UNL1       -0.0470
      8  C          5.9440   -0.3730    1.2110 C.2     1  UNL1        0.0040
      9  C          6.0980    0.8470   -0.8300 C.2     1  UNL1        0.0040
     10  C          5.2540    0.7180    1.7450 C.2     1  UNL1        0.0000
     11  C          5.4160    1.9240   -0.3010 C.2     1  UNL1        0.0000
     12  C          4.9930    1.8450    1.0080 C.2     1  UNL1        0.0000
@<TRIPOS>BOND
     1     3     2    2
     2     2     1    1
     3     2     4    1
     4     1     6    1
     5     4     5    1
     6     9    11    1
     7     9     7    2
     8     6     7    1
     9    11    12    2
    10     7     8    1
    11    12    10    1
    12     8    10    2
