@<TRIPOS>MOLECULE
/home/cewinharhar/GITHUB/reincatalyze/data/processed/docking_pred/2023-May-02-0947_maxeplen10_maxtrainstep1000_seadep32_gamma099_lrac9e-4_lrcr1e-3/22478e644e92021fed45641255b53d2cc77f0790_ligand_2.pdbqt
 12 12 0 0 0
SMALL
GASTEIGER

@<TRIPOS>ATOM
      1  C          8.3980   -0.6510   -2.0810 C.3     1  UNL1        0.1270
      2  C          8.3680   -1.9010   -2.8760 C.2     1  UNL1        0.3030
      3  O          7.2830   -2.4070   -3.2550 O.2     1  UNL1       -0.2520
      4  O          9.5430   -2.5490   -3.2250 O.3     1  UNL1       -0.4810
      5  H          9.6310   -2.9580   -4.1590 H       1  UNL1        0.2960
      6  C          7.0180   -0.0670   -2.0720 C.3     1  UNL1        0.0470
      7  C          6.4530    0.1030   -0.7340 C.2     1  UNL1       -0.0470
      8  C          5.7970    1.2620   -0.3900 C.2     1  UNL1        0.0040
      9  C          6.5830   -0.9130    0.1840 C.2     1  UNL1        0.0040
     10  C          5.2810    1.3550    0.9050 C.2     1  UNL1        0.0000
     11  C          6.0740   -0.8190    1.4640 C.2     1  UNL1        0.0000
     12  C          5.4150    0.3380    1.8170 C.2     1  UNL1        0.0000
@<TRIPOS>BOND
     1     5     4    1
     2     3     2    2
     3     4     2    1
     4     2     1    1
     5     1     6    1
     6     6     7    1
     7     7     8    2
     8     7     9    1
     9     8    10    1
    10     9    11    2
    11    10    12    2
    12    11    12    1
