@<TRIPOS>MOLECULE
/home/cewinharhar/GITHUB/reincatalyze/data/processed/docking_pred/2023-May-02-0947_maxeplen10_maxtrainstep1000_seadep32_gamma099_lrac9e-4_lrcr1e-3/22478e644e92021fed45641255b53d2cc77f0790_ligand_2.pdbqt
 12 12 0 0 0
SMALL
GASTEIGER

@<TRIPOS>ATOM
      1  C          5.4250    2.9020   -0.0070 C.3     1  UNL1        0.1270
      2  C          6.2090    3.8820    0.7820 C.2     1  UNL1        0.3030
      3  O          6.8890    4.7750    0.2200 O.2     1  UNL1       -0.2520
      4  O          6.2120    3.8380    2.1670 O.3     1  UNL1       -0.4810
      5  H          7.0680    3.5670    2.6580 H       1  UNL1        0.2960
      6  C          4.9550    1.8210    0.9180 C.3     1  UNL1        0.0470
      7  C          5.7700    0.6080    0.8770 C.2     1  UNL1       -0.0470
      8  C          6.4900    0.2810   -0.2490 C.2     1  UNL1        0.0040
      9  C          5.8140   -0.2090    1.9830 C.2     1  UNL1        0.0040
     10  C          7.2470   -0.8920   -0.2160 C.2     1  UNL1        0.0000
     11  C          6.5630   -1.3680    2.0140 C.2     1  UNL1        0.0000
     12  C          7.2860   -1.7030    0.8890 C.2     1  UNL1        0.0000
@<TRIPOS>BOND
     1     8    10    1
     2     8     7    2
     3    10    12    2
     4     1     2    1
     5     1     6    1
     6     3     2    2
     7     2     4    1
     8     7     6    1
     9     7     9    1
    10    12    11    1
    11     9    11    2
    12     4     5    1
