MODEL 1
REMARK VINA RESULT:      -7.3      0.000      0.000
REMARK SMILES O=C(O)CCc1ccccc1
REMARK SMILES IDX 4 1 2 2 1 3 3 4 5 6 6 7 7 8 11 9 8 10 10 11 9 12
REMARK H PARENT 3 5
REMARK Flexibility Score: inf
ROOT
ATOM      1  C   UNL     1       8.398  -0.651  -2.081  1.00  0.00     0.127 C 
ENDROOT
BRANCH   1   2
ATOM      2  C   UNL     1       8.368  -1.901  -2.876  1.00  0.00     0.303 C 
ATOM      3  O   UNL     1       7.283  -2.407  -3.255  1.00  0.00    -0.252 OA
BRANCH   2   4
ATOM      4  O   UNL     1       9.543  -2.549  -3.225  1.00  0.00    -0.481 OA
ATOM      5  H   UNL     1       9.631  -2.958  -4.159  1.00  0.00     0.296 HD
ENDBRANCH   2   4
ENDBRANCH   1   2
BRANCH   1   6
ATOM      6  C   UNL     1       7.018  -0.067  -2.072  1.00  0.00     0.047 C 
BRANCH   6   7
ATOM      7  C   UNL     1       6.453   0.103  -0.734  1.00  0.00    -0.047 A 
ATOM      8  C   UNL     1       5.797   1.262  -0.390  1.00  0.00     0.004 A 
ATOM      9  C   UNL     1       6.583  -0.913   0.184  1.00  0.00     0.004 A 
ATOM     10  C   UNL     1       5.281   1.355   0.905  1.00  0.00     0.000 A 
ATOM     11  C   UNL     1       6.074  -0.819   1.464  1.00  0.00     0.000 A 
ATOM     12  C   UNL     1       5.415   0.338   1.817  1.00  0.00     0.000 A 
ENDBRANCH   6   7
ENDBRANCH   1   6
TORSDOF 4
ENDMDL
