@<TRIPOS>MOLECULE
/home/cewinharhar/GITHUB/reincatalyze/data/processed/docking_pred/2023-May-02-0947_maxeplen10_maxtrainstep1000_seadep32_gamma099_lrac9e-4_lrcr1e-3/225d7738cc918e3754e3779366d54ccb252183f1_ligand_2.pdbqt
 12 12 0 0 0
SMALL
GASTEIGER

@<TRIPOS>ATOM
      1  C          8.2060    0.3060   -2.3520 C.3     1  UNL1        0.1270
      2  C          9.5140    0.0630   -1.7000 C.2     1  UNL1        0.3030
      3  O         10.0130   -1.0890   -1.6500 O.2     1  UNL1       -0.2520
      4  O         10.2260    1.1040   -1.1240 O.3     1  UNL1       -0.4810
      5  H          9.7850    1.6660   -0.3910 H       1  UNL1        0.2960
      6  C          7.2140   -0.6680   -1.7950 C.3     1  UNL1        0.0470
      7  C          6.5390   -0.2030   -0.5840 C.2     1  UNL1       -0.0470
      8  C          5.9600    1.0440   -0.5370 C.2     1  UNL1        0.0040
      9  C          6.4870   -1.0290    0.5150 C.2     1  UNL1        0.0040
     10  C          5.3310    1.4220    0.6520 C.2     1  UNL1        0.0000
     11  C          5.8650   -0.6530    1.6890 C.2     1  UNL1        0.0000
     12  C          5.2830    0.5940    1.7450 C.2     1  UNL1        0.0000
@<TRIPOS>BOND
     1     1     6    1
     2     1     2    1
     3     6     7    1
     4     2     3    2
     5     2     4    1
     6     4     5    1
     7     7     8    2
     8     7     9    1
     9     8    10    1
    10     9    11    2
    11    10    12    2
    12    11    12    1
