@<TRIPOS>MOLECULE
/home/cewinharhar/GITHUB/reincatalyze/data/processed/docking_pred/2023-May-02-0947_maxeplen10_maxtrainstep1000_seadep32_gamma099_lrac9e-4_lrcr1e-3/2368d29bb7bbfa5e31d33bb3936e2ea89938fe66_ligand_2.pdbqt
 12 12 0 0 0
SMALL
GASTEIGER

@<TRIPOS>ATOM
      1  C          8.4060   -0.6590   -2.0730 C.3     1  UNL1        0.1270
      2  C          8.3760   -1.9040   -2.8760 C.2     1  UNL1        0.3030
      3  O          7.2890   -2.4130   -3.2470 O.2     1  UNL1       -0.2520
      4  O          9.5500   -2.5430   -3.2400 O.3     1  UNL1       -0.4810
      5  H          9.9400   -2.3810   -4.1730 H       1  UNL1        0.2960
      6  C          7.0300   -0.0670   -2.0690 C.3     1  UNL1        0.0470
      7  C          6.4590    0.1010   -0.7340 C.2     1  UNL1       -0.0470
      8  C          5.8060    1.2620   -0.3900 C.2     1  UNL1        0.0040
      9  C          6.5790   -0.9190    0.1810 C.2     1  UNL1        0.0040
     10  C          5.2840    1.3530    0.9030 C.2     1  UNL1        0.0000
     11  C          6.0640   -0.8270    1.4580 C.2     1  UNL1        0.0000
     12  C          5.4080    0.3330    1.8120 C.2     1  UNL1        0.0000
@<TRIPOS>BOND
     1     5     4    1
     2     3     2    2
     3     4     2    1
     4     2     1    1
     5     1     6    1
     6     6     7    1
     7     7     8    2
     8     7     9    1
     9     8    10    1
    10     9    11    2
    11    10    12    2
    12    11    12    1
