@<TRIPOS>MOLECULE
/home/cewinharhar/GITHUB/reincatalyze/data/processed/docking_pred/2023-May-02-0947_maxeplen10_maxtrainstep1000_seadep32_gamma099_lrac9e-4_lrcr1e-3/2368d29bb7bbfa5e31d33bb3936e2ea89938fe66_ligand_2.pdbqt
 12 12 0 0 0
SMALL
GASTEIGER

@<TRIPOS>ATOM
      1  C          5.4500    2.8030    0.0190 C.3     1  UNL1        0.1270
      2  C          6.1920    3.7950    0.8320 C.2     1  UNL1        0.3030
      3  O          6.1430    3.7760    2.0870 O.2     1  UNL1       -0.2520
      4  O          6.9620    4.7750    0.2270 O.3     1  UNL1       -0.4810
      5  H          7.9560    4.5970    0.0580 H       1  UNL1        0.2960
      6  C          4.9110    1.7490    0.9390 C.3     1  UNL1        0.0470
      7  C          5.7110    0.5270    0.9760 C.2     1  UNL1       -0.0470
      8  C          5.7560   -0.2510    2.1100 C.2     1  UNL1        0.0040
      9  C          6.4230    0.1560   -0.1420 C.2     1  UNL1        0.0040
     10  C          6.5400   -1.4060    2.0730 C.2     1  UNL1        0.0000
     11  C          7.1990   -0.9860   -0.1760 C.2     1  UNL1        0.0000
     12  C          7.2490   -1.7700    0.9560 C.2     1  UNL1        0.0000
@<TRIPOS>BOND
     1    11     9    1
     2    11    12    2
     3     9     7    2
     4     1     2    1
     5     1     6    1
     6     5     4    1
     7     4     2    1
     8     2     3    2
     9     6     7    1
    10    12    10    1
    11     7     8    1
    12    10     8    2
