@<TRIPOS>MOLECULE
/home/cewinharhar/GITHUB/reincatalyze/data/processed/docking_pred/2023-May-02-0947_maxeplen10_maxtrainstep1000_seadep32_gamma099_lrac9e-4_lrcr1e-3/24731d809f1a519c36ca3c9a2574e1987901b3bd_ligand_2.pdbqt
 12 12 0 0 0
SMALL
GASTEIGER

@<TRIPOS>ATOM
      1  C          8.4570   -0.6370   -2.1160 C.3     1  UNL1        0.1270
      2  C          8.4840   -1.9050   -2.8840 C.2     1  UNL1        0.3030
      3  O          9.5600   -2.5240   -3.0790 O.2     1  UNL1       -0.2520
      4  O          7.3200   -2.4420   -3.4090 O.3     1  UNL1       -0.4810
      5  H          7.1880   -2.4560   -4.4240 H       1  UNL1        0.2960
      6  C          7.0470   -0.1310   -2.0950 C.3     1  UNL1        0.0470
      7  C          6.4860    0.0110   -0.7530 C.2     1  UNL1       -0.0470
      8  C          6.6090   -1.0010    0.1710 C.2     1  UNL1        0.0040
      9  C          5.8310    1.1730   -0.4180 C.2     1  UNL1        0.0040
     10  C          6.0490   -0.7970    1.4340 C.2     1  UNL1        0.0000
     11  C          5.2780    1.3730    0.8320 C.2     1  UNL1        0.0000
     12  C          5.3960    0.3640    1.7630 C.2     1  UNL1        0.0000
@<TRIPOS>BOND
     1     5     4    1
     2     4     2    1
     3     3     2    2
     4     2     1    1
     5     1     6    1
     6     6     7    1
     7     7     9    2
     8     7     8    1
     9     9    11    1
    10     8    10    2
    11    11    12    2
    12    10    12    1
