MODEL 1
REMARK VINA RESULT:      -7.1      0.000      0.000
REMARK SMILES O=C(O)CCc1ccccc1
REMARK SMILES IDX 4 1 2 2 1 3 3 4 5 6 6 7 7 8 11 9 8 10 10 11 9 12
REMARK H PARENT 3 5
REMARK Flexibility Score: inf
ROOT
ATOM      1  C   UNL     1       8.457  -0.637  -2.116  1.00  0.00     0.127 C 
ENDROOT
BRANCH   1   2
ATOM      2  C   UNL     1       8.484  -1.905  -2.884  1.00  0.00     0.303 C 
ATOM      3  O   UNL     1       9.560  -2.524  -3.079  1.00  0.00    -0.252 OA
BRANCH   2   4
ATOM      4  O   UNL     1       7.320  -2.442  -3.409  1.00  0.00    -0.481 OA
ATOM      5  H   UNL     1       7.188  -2.456  -4.424  1.00  0.00     0.296 HD
ENDBRANCH   2   4
ENDBRANCH   1   2
BRANCH   1   6
ATOM      6  C   UNL     1       7.047  -0.131  -2.095  1.00  0.00     0.047 C 
BRANCH   6   7
ATOM      7  C   UNL     1       6.486   0.011  -0.753  1.00  0.00    -0.047 A 
ATOM      8  C   UNL     1       6.609  -1.001   0.171  1.00  0.00     0.004 A 
ATOM      9  C   UNL     1       5.831   1.173  -0.418  1.00  0.00     0.004 A 
ATOM     10  C   UNL     1       6.049  -0.797   1.434  1.00  0.00     0.000 A 
ATOM     11  C   UNL     1       5.278   1.373   0.832  1.00  0.00     0.000 A 
ATOM     12  C   UNL     1       5.396   0.364   1.763  1.00  0.00     0.000 A 
ENDBRANCH   6   7
ENDBRANCH   1   6
TORSDOF 4
ENDMDL
MODEL 2
REMARK VINA RESULT:      -6.6      1.375      2.215
REMARK SMILES O=C(O)CCc1ccccc1
REMARK SMILES IDX 4 1 2 2 1 3 3 4 5 6 6 7 7 8 11 9 8 10 10 11 9 12
REMARK H PARENT 3 5
REMARK Flexibility Score: inf
ROOT
ATOM      1  C   UNL     1       8.302  -0.580  -2.160  1.00  0.00     0.127 C 
ENDROOT
BRANCH   1   2
ATOM      2  C   UNL     1       8.329  -1.853  -2.918  1.00  0.00     0.303 C 
ATOM      3  O   UNL     1       7.267  -2.413  -3.287  1.00  0.00    -0.252 OA
BRANCH   2   4
ATOM      4  O   UNL     1       9.531  -2.461  -3.241  1.00  0.00    -0.481 OA
ATOM      5  H   UNL     1       9.535  -3.447  -3.517  1.00  0.00     0.296 HD
ENDBRANCH   2   4
ENDBRANCH   1   2
BRANCH   1   6
ATOM      6  C   UNL     1       6.978  -0.472  -1.468  1.00  0.00     0.047 C 
BRANCH   6   7
ATOM      7  C   UNL     1       6.799   0.769  -0.717  1.00  0.00    -0.047 A 
ATOM      8  C   UNL     1       5.560   1.360  -0.619  1.00  0.00     0.004 A 
ATOM      9  C   UNL     1       7.886   1.345  -0.102  1.00  0.00     0.004 A 
ATOM     10  C   UNL     1       5.462   2.544   0.115  1.00  0.00     0.000 A 
ATOM     11  C   UNL     1       7.788   2.516   0.623  1.00  0.00     0.000 A 
ATOM     12  C   UNL     1       6.551   3.114   0.725  1.00  0.00     0.000 A 
ENDBRANCH   6   7
ENDBRANCH   1   6
TORSDOF 4
ENDMDL
