@<TRIPOS>MOLECULE
/home/cewinharhar/GITHUB/reincatalyze/data/processed/docking_pred/2023-May-02-0947_maxeplen10_maxtrainstep1000_seadep32_gamma099_lrac9e-4_lrcr1e-3/24731d809f1a519c36ca3c9a2574e1987901b3bd_ligand_2.pdbqt
 12 12 0 0 0
SMALL
GASTEIGER

@<TRIPOS>ATOM
      1  C          8.3020   -0.5800   -2.1600 C.3     1  UNL1        0.1270
      2  C          8.3290   -1.8530   -2.9180 C.2     1  UNL1        0.3030
      3  O          7.2670   -2.4130   -3.2870 O.2     1  UNL1       -0.2520
      4  O          9.5310   -2.4610   -3.2410 O.3     1  UNL1       -0.4810
      5  H          9.5350   -3.4470   -3.5170 H       1  UNL1        0.2960
      6  C          6.9780   -0.4720   -1.4680 C.3     1  UNL1        0.0470
      7  C          6.7990    0.7690   -0.7170 C.2     1  UNL1       -0.0470
      8  C          5.5600    1.3600   -0.6190 C.2     1  UNL1        0.0040
      9  C          7.8860    1.3450   -0.1020 C.2     1  UNL1        0.0040
     10  C          5.4620    2.5440    0.1150 C.2     1  UNL1        0.0000
     11  C          7.7880    2.5160    0.6230 C.2     1  UNL1        0.0000
     12  C          6.5510    3.1140    0.7250 C.2     1  UNL1        0.0000
@<TRIPOS>BOND
     1     5     4    1
     2     3     2    2
     3     4     2    1
     4     2     1    1
     5     1     6    1
     6     6     7    1
     7     7     8    2
     8     7     9    1
     9     8    10    1
    10     9    11    2
    11    10    12    2
    12    11    12    1
