@<TRIPOS>MOLECULE
/home/cewinharhar/GITHUB/reincatalyze/data/processed/docking_pred/2023-May-02-0947_maxeplen10_maxtrainstep1000_seadep32_gamma099_lrac9e-4_lrcr1e-3/2481e5cfc04dcfc4c7035fb6b8b96c3a7d203934_ligand_2.pdbqt
 12 12 0 0 0
SMALL
GASTEIGER

@<TRIPOS>ATOM
      1  C          8.4020   -0.6580   -2.0740 C.3     1  UNL1        0.1270
      2  C          8.3710   -1.9050   -2.8740 C.2     1  UNL1        0.3030
      3  O          7.2850   -2.4080   -3.2530 O.2     1  UNL1       -0.2520
      4  O          9.5450   -2.5520   -3.2260 O.3     1  UNL1       -0.4810
      5  H         10.3880   -1.9990   -3.4040 H       1  UNL1        0.2960
      6  C          7.0250   -0.0680   -2.0670 C.3     1  UNL1        0.0470
      7  C          6.4580    0.1030   -0.7310 C.2     1  UNL1       -0.0470
      8  C          5.8030    1.2630   -0.3880 C.2     1  UNL1        0.0040
      9  C          6.5830   -0.9140    0.1870 C.2     1  UNL1        0.0040
     10  C          5.2850    1.3570    0.9060 C.2     1  UNL1        0.0000
     11  C          6.0710   -0.8200    1.4660 C.2     1  UNL1        0.0000
     12  C          5.4150    0.3400    1.8180 C.2     1  UNL1        0.0000
@<TRIPOS>BOND
     1     5     4    1
     2     3     2    2
     3     4     2    1
     4     2     1    1
     5     1     6    1
     6     6     7    1
     7     7     8    2
     8     7     9    1
     9     8    10    1
    10     9    11    2
    11    10    12    2
    12    11    12    1
