@<TRIPOS>MOLECULE
/home/cewinharhar/GITHUB/reincatalyze/data/processed/docking_pred/2023-May-02-0947_maxeplen10_maxtrainstep1000_seadep32_gamma099_lrac9e-4_lrcr1e-3/25ea22f039de2039e6eb222be1b9c38742a73e8b_ligand_2.pdbqt
 12 12 0 0 0
SMALL
GASTEIGER

@<TRIPOS>ATOM
      1  C          5.7220    1.4210   -0.2630 C.3     1  UNL1        0.1270
      2  C          5.2170    2.1480    0.9260 C.2     1  UNL1        0.3030
      3  O          4.3190    1.6590    1.6550 O.2     1  UNL1       -0.2520
      4  O          5.7260    3.3910    1.2670 O.3     1  UNL1       -0.4810
      5  H          5.0980    4.1990    1.2910 H       1  UNL1        0.2960
      6  C          6.2930    0.1130    0.1920 C.3     1  UNL1        0.0470
      7  C          7.7370   -0.0050   -0.0020 C.2     1  UNL1       -0.0470
      8  C          8.4590   -0.9710    0.6600 C.2     1  UNL1        0.0040
      9  C          8.3720    0.8620   -0.8600 C.2     1  UNL1        0.0040
     10  C          9.8350   -1.0270    0.4250 C.2     1  UNL1        0.0000
     11  C          9.7320    0.8060   -1.0910 C.2     1  UNL1        0.0000
     12  C         10.4630   -0.1580   -0.4310 C.2     1  UNL1        0.0000
@<TRIPOS>BOND
     1    11     9    1
     2    11    12    2
     3     9     7    2
     4    12    10    1
     5     1     6    1
     6     1     2    1
     7     7     6    1
     8     7     8    1
     9    10     8    2
    10     2     4    1
    11     2     3    2
    12     4     5    1
