@<TRIPOS>MOLECULE
/home/cewinharhar/GITHUB/reincatalyze/data/processed/docking_pred/2023-May-02-0947_maxeplen10_maxtrainstep1000_seadep32_gamma099_lrac9e-4_lrcr1e-3/25ea22f039de2039e6eb222be1b9c38742a73e8b_ligand_2.pdbqt
 12 12 0 0 0
SMALL
GASTEIGER

@<TRIPOS>ATOM
      1  C          8.6650    0.6290   -1.7610 C.3     1  UNL1        0.1270
      2  C          9.8090   -0.1270   -1.1980 C.2     1  UNL1        0.3030
      3  O          9.7550   -1.3720   -1.0470 O.2     1  UNL1       -0.2520
      4  O         10.9730    0.5240   -0.8220 O.3     1  UNL1       -0.4810
      5  H         11.6070    0.8740   -1.5450 H       1  UNL1        0.2960
      6  C          7.4350   -0.2180   -1.6370 C.3     1  UNL1        0.0470
      7  C          6.6410    0.0590   -0.4410 C.2     1  UNL1       -0.0470
      8  C          6.5810   -0.8510    0.5890 C.2     1  UNL1        0.0040
      9  C          5.9520    1.2460   -0.3520 C.2     1  UNL1        0.0040
     10  C          5.8040   -0.5200    1.7020 C.2     1  UNL1        0.0000
     11  C          5.1840    1.5720    0.7480 C.2     1  UNL1        0.0000
     12  C          5.1170    0.6650    1.7840 C.2     1  UNL1        0.0000
@<TRIPOS>BOND
     1     1     6    1
     2     1     2    1
     3     6     7    1
     4     5     4    1
     5     2     3    2
     6     2     4    1
     7     7     9    2
     8     7     8    1
     9     9    11    1
    10     8    10    2
    11    11    12    2
    12    10    12    1
