@<TRIPOS>MOLECULE
/home/cewinharhar/GITHUB/reincatalyze/data/processed/docking_pred/2023-May-02-0947_maxeplen10_maxtrainstep1000_seadep32_gamma099_lrac9e-4_lrcr1e-3/25f547df8c587039729a955c6f4cb3c83005f49c_ligand_2.pdbqt
 12 12 0 0 0
SMALL
GASTEIGER

@<TRIPOS>ATOM
      1  C          5.0500    1.8190    0.7000 C.3     1  UNL1        0.1270
      2  C          4.6020    1.1820    1.9610 C.2     1  UNL1        0.3030
      3  O          5.2420    0.2320    2.4740 O.2     1  UNL1       -0.2520
      4  O          3.4590    1.6210    2.6100 O.3     1  UNL1       -0.4810
      5  H          3.1300    2.5780    2.4540 H       1  UNL1        0.2960
      6  C          6.5480    1.8530    0.6980 C.3     1  UNL1        0.0470
      7  C          7.1590    1.0560   -0.3650 C.2     1  UNL1       -0.0470
      8  C          6.4080    0.1670   -1.0980 C.2     1  UNL1        0.0040
      9  C          8.5010    1.2060   -0.6300 C.2     1  UNL1        0.0040
     10  C          7.0570   -0.5600   -2.0980 C.2     1  UNL1        0.0000
     11  C          9.1410    0.4870   -1.6200 C.2     1  UNL1        0.0000
     12  C          8.3960   -0.4070   -2.3570 C.2     1  UNL1        0.0000
@<TRIPOS>BOND
     1    12    10    2
     2    12    11    1
     3    10     8    1
     4    11     9    2
     5     8     7    2
     6     9     7    1
     7     7     6    1
     8     6     1    1
     9     1     2    1
    10     2     3    2
    11     2     4    1
    12     5     4    1
