@<TRIPOS>MOLECULE
/home/cewinharhar/GITHUB/reincatalyze/data/processed/docking_pred/2023-May-02-0947_maxeplen10_maxtrainstep1000_seadep32_gamma099_lrac9e-4_lrcr1e-3/25f547df8c587039729a955c6f4cb3c83005f49c_ligand_2.pdbqt
 12 12 0 0 0
SMALL
GASTEIGER

@<TRIPOS>ATOM
      1  C          8.4080   -0.6630   -2.0640 C.3     1  UNL1        0.1270
      2  C          8.3760   -1.9010   -2.8770 C.2     1  UNL1        0.3030
      3  O          7.2890   -2.4130   -3.2410 O.2     1  UNL1       -0.2520
      4  O          9.5500   -2.5300   -3.2580 O.3     1  UNL1       -0.4810
      5  H          9.8770   -2.4390   -4.2240 H       1  UNL1        0.2960
      6  C          7.0340   -0.0640   -2.0650 C.3     1  UNL1        0.0470
      7  C          6.4590    0.1070   -0.7320 C.2     1  UNL1       -0.0470
      8  C          5.8060    1.2690   -0.3920 C.2     1  UNL1        0.0040
      9  C          6.5750   -0.9110    0.1850 C.2     1  UNL1        0.0040
     10  C          5.2800    1.3630    0.8980 C.2     1  UNL1        0.0000
     11  C          6.0550   -0.8160    1.4610 C.2     1  UNL1        0.0000
     12  C          5.4000    0.3450    1.8100 C.2     1  UNL1        0.0000
@<TRIPOS>BOND
     1     5     4    1
     2     4     2    1
     3     3     2    2
     4     2     1    1
     5     6     1    1
     6     6     7    1
     7     7     8    2
     8     7     9    1
     9     8    10    1
    10     9    11    2
    11    10    12    2
    12    11    12    1
