@<TRIPOS>MOLECULE
/home/cewinharhar/GITHUB/reincatalyze/data/processed/docking_pred/2023-May-02-0947_maxeplen10_maxtrainstep1000_seadep32_gamma099_lrac9e-4_lrcr1e-3/287d700aa29cdd08db1558ad291e1b5912b75232_ligand_2.pdbqt
 12 12 0 0 0
SMALL
GASTEIGER

@<TRIPOS>ATOM
      1  C          5.4670    2.8990   -0.0030 C.3     1  UNL1        0.1270
      2  C          6.2500    3.8680    0.7990 C.2     1  UNL1        0.3030
      3  O          6.9230    4.7750    0.2480 O.2     1  UNL1       -0.2520
      4  O          6.2630    3.7990    2.1820 O.3     1  UNL1       -0.4810
      5  H          7.1000    3.4530    2.6590 H       1  UNL1        0.2960
      6  C          4.9290    1.8490    0.9210 C.3     1  UNL1        0.0470
      7  C          5.7050    0.6100    0.9280 C.2     1  UNL1       -0.0470
      8  C          6.3650    0.1870   -0.2020 C.2     1  UNL1        0.0040
      9  C          5.7710   -0.1340    2.0840 C.2     1  UNL1        0.0040
     10  C          7.0870   -1.0060   -0.1220 C.2     1  UNL1        0.0000
     11  C          6.4850   -1.3130    2.1610 C.2     1  UNL1        0.0000
     12  C          7.1490   -1.7440    1.0330 C.2     1  UNL1        0.0000
@<TRIPOS>BOND
     1     8    10    1
     2     8     7    2
     3    10    12    2
     4     1     2    1
     5     1     6    1
     6     3     2    2
     7     2     4    1
     8     6     7    1
     9     7     9    1
    10    12    11    1
    11     9    11    2
    12     4     5    1
