@<TRIPOS>MOLECULE
/home/cewinharhar/GITHUB/reincatalyze/data/processed/docking_pred/2023-May-02-0947_maxeplen10_maxtrainstep1000_seadep32_gamma099_lrac9e-4_lrcr1e-3/2b606219d5526e18d91eeb9dfd7a568ae4147191_ligand_2.pdbqt
 12 12 0 0 0
SMALL
GASTEIGER

@<TRIPOS>ATOM
      1  C          7.3210   -1.2060   -2.2020 C.3     1  UNL1        0.1270
      2  C          8.7810   -1.2400   -2.4530 C.2     1  UNL1        0.3030
      3  O          9.3070   -2.1710   -3.1110 O.2     1  UNL1       -0.2520
      4  O          9.6090   -0.2410   -1.9660 O.3     1  UNL1       -0.4810
      5  H          9.8870    0.5250   -2.5850 H       1  UNL1        0.2960
      6  C          7.0910   -1.3840   -0.7320 C.3     1  UNL1        0.0470
      7  C          6.3620   -0.2820   -0.1070 C.2     1  UNL1       -0.0470
      8  C          5.9440   -0.3680    1.2010 C.2     1  UNL1        0.0040
      9  C          6.0970    0.8500   -0.8410 C.2     1  UNL1        0.0040
     10  C          5.2540    0.7230    1.7340 C.2     1  UNL1        0.0000
     11  C          5.4130    1.9280   -0.3130 C.2     1  UNL1        0.0000
     12  C          4.9910    1.8490    0.9960 C.2     1  UNL1        0.0000
@<TRIPOS>BOND
     1     3     2    2
     2     5     4    1
     3     2     1    1
     4     2     4    1
     5     1     6    1
     6     9    11    1
     7     9     7    2
     8     6     7    1
     9    11    12    2
    10     7     8    1
    11    12    10    1
    12     8    10    2
