@<TRIPOS>MOLECULE
/home/cewinharhar/GITHUB/reincatalyze/data/processed/docking_pred/2023-May-02-0947_maxeplen10_maxtrainstep1000_seadep32_gamma099_lrac9e-4_lrcr1e-3/2b606219d5526e18d91eeb9dfd7a568ae4147191_ligand_2.pdbqt
 12 12 0 0 0
SMALL
GASTEIGER

@<TRIPOS>ATOM
      1  C          5.4160    2.8980   -0.0080 C.3     1  UNL1        0.1270
      2  C          6.2180    3.8620    0.7820 C.2     1  UNL1        0.3030
      3  O          6.8740    4.7750    0.2220 O.2     1  UNL1       -0.2520
      4  O          6.2640    3.7820    2.1640 O.3     1  UNL1       -0.4810
      5  H          5.8980    2.9480    2.6300 H       1  UNL1        0.2960
      6  C          4.9140    1.8330    0.9190 C.3     1  UNL1        0.0470
      7  C          5.7150    0.6100    0.9070 C.2     1  UNL1       -0.0470
      8  C          6.4050    0.2310   -0.2210 C.2     1  UNL1        0.0040
      9  C          5.7750   -0.1640    2.0430 C.2     1  UNL1        0.0040
     10  C          7.1500   -0.9490   -0.1590 C.2     1  UNL1        0.0000
     11  C          6.5110   -1.3300    2.1020 C.2     1  UNL1        0.0000
     12  C          7.2050   -1.7170    0.9760 C.2     1  UNL1        0.0000
@<TRIPOS>BOND
     1     8    10    1
     2     8     7    2
     3    10    12    2
     4     1     2    1
     5     1     6    1
     6     3     2    2
     7     2     4    1
     8     7     6    1
     9     7     9    1
    10    12    11    1
    11     9    11    2
    12     4     5    1
