MODEL 1
REMARK VINA RESULT:      -7.3      0.000      0.000
REMARK SMILES O=C(O)CCc1ccccc1
REMARK SMILES IDX 4 1 2 2 1 3 3 4 5 6 6 7 7 8 11 9 8 10 10 11 9 12
REMARK H PARENT 3 5
REMARK Flexibility Score: inf
ROOT
ATOM      1  C   UNL     1       8.435  -0.635  -2.136  1.00  0.00     0.127 C 
ENDROOT
BRANCH   1   2
ATOM      2  C   UNL     1       8.471  -1.899  -2.908  1.00  0.00     0.303 C 
ATOM      3  O   UNL     1       9.549  -2.515  -3.099  1.00  0.00    -0.252 OA
BRANCH   2   4
ATOM      4  O   UNL     1       7.311  -2.438  -3.442  1.00  0.00    -0.481 OA
ATOM      5  H   UNL     1       6.884  -3.252  -2.991  1.00  0.00     0.296 HD
ENDBRANCH   2   4
ENDBRANCH   1   2
BRANCH   1   6
ATOM      6  C   UNL     1       7.023  -0.133  -2.120  1.00  0.00     0.047 C 
BRANCH   6   7
ATOM      7  C   UNL     1       6.473   0.053  -0.779  1.00  0.00    -0.047 A 
ATOM      8  C   UNL     1       5.841   1.225  -0.434  1.00  0.00     0.004 A 
ATOM      9  C   UNL     1       6.593  -0.962   0.142  1.00  0.00     0.004 A 
ATOM     10  C   UNL     1       5.339   1.333   0.865  1.00  0.00     0.000 A 
ATOM     11  C   UNL     1       6.096  -0.854   1.426  1.00  0.00     0.000 A 
ATOM     12  C   UNL     1       5.462   0.317   1.780  1.00  0.00     0.000 A 
ENDBRANCH   6   7
ENDBRANCH   1   6
TORSDOF 4
ENDMDL
