@<TRIPOS>MOLECULE
/home/cewinharhar/GITHUB/reincatalyze/data/processed/docking_pred/2023-May-02-0947_maxeplen10_maxtrainstep1000_seadep32_gamma099_lrac9e-4_lrcr1e-3/2b611616233e02901686b2fc0a6dd8ec9c570ff2_ligand_2.pdbqt
 12 12 0 0 0
SMALL
GASTEIGER

@<TRIPOS>ATOM
      1  C          8.4350   -0.6350   -2.1360 C.3     1  UNL1        0.1270
      2  C          8.4710   -1.8990   -2.9080 C.2     1  UNL1        0.3030
      3  O          9.5490   -2.5150   -3.0990 O.2     1  UNL1       -0.2520
      4  O          7.3110   -2.4380   -3.4420 O.3     1  UNL1       -0.4810
      5  H          6.8840   -3.2520   -2.9910 H       1  UNL1        0.2960
      6  C          7.0230   -0.1330   -2.1200 C.3     1  UNL1        0.0470
      7  C          6.4730    0.0530   -0.7790 C.2     1  UNL1       -0.0470
      8  C          5.8410    1.2250   -0.4340 C.2     1  UNL1        0.0040
      9  C          6.5930   -0.9620    0.1420 C.2     1  UNL1        0.0040
     10  C          5.3390    1.3330    0.8650 C.2     1  UNL1        0.0000
     11  C          6.0960   -0.8540    1.4260 C.2     1  UNL1        0.0000
     12  C          5.4620    0.3170    1.7800 C.2     1  UNL1        0.0000
@<TRIPOS>BOND
     1     4     5    1
     2     4     2    1
     3     3     2    2
     4     2     1    1
     5     1     6    1
     6     6     7    1
     7     7     8    2
     8     7     9    1
     9     8    10    1
    10     9    11    2
    11    10    12    2
    12    11    12    1
