MODEL 1
REMARK VINA RESULT:      -7.3      0.000      0.000
REMARK SMILES O=C(O)CCc1ccccc1
REMARK SMILES IDX 4 1 2 2 1 3 3 4 5 6 6 7 7 8 11 9 8 10 10 11 9 12
REMARK H PARENT 3 5
REMARK Flexibility Score: inf
ROOT
ATOM      1  C   UNL     1       8.405  -0.655  -2.078  1.00  0.00     0.127 C 
ENDROOT
BRANCH   1   2
ATOM      2  C   UNL     1       8.373  -1.904  -2.876  1.00  0.00     0.303 C 
ATOM      3  O   UNL     1       7.286  -2.409  -3.251  1.00  0.00    -0.252 OA
BRANCH   2   4
ATOM      4  O   UNL     1       9.547  -2.550  -3.229  1.00  0.00    -0.481 OA
ATOM      5  H   UNL     1       9.634  -2.951  -4.167  1.00  0.00     0.296 HD
ENDBRANCH   2   4
ENDBRANCH   1   2
BRANCH   1   6
ATOM      6  C   UNL     1       7.027  -0.066  -2.071  1.00  0.00     0.047 C 
BRANCH   6   7
ATOM      7  C   UNL     1       6.460   0.103  -0.734  1.00  0.00    -0.047 A 
ATOM      8  C   UNL     1       5.807   1.263  -0.388  1.00  0.00     0.004 A 
ATOM      9  C   UNL     1       6.585  -0.916   0.182  1.00  0.00     0.004 A 
ATOM     10  C   UNL     1       5.289   1.354   0.906  1.00  0.00     0.000 A 
ATOM     11  C   UNL     1       6.073  -0.824   1.461  1.00  0.00     0.000 A 
ATOM     12  C   UNL     1       5.418   0.335   1.815  1.00  0.00     0.000 A 
ENDBRANCH   6   7
ENDBRANCH   1   6
TORSDOF 4
ENDMDL
