@<TRIPOS>MOLECULE
/home/cewinharhar/GITHUB/reincatalyze/data/processed/docking_pred/2023-May-02-0947_maxeplen10_maxtrainstep1000_seadep32_gamma099_lrac9e-4_lrcr1e-3/2d2d9026ea33a6842fa37a74e1533968fe9c5ac5_ligand_2.pdbqt
 12 12 0 0 0
SMALL
GASTEIGER

@<TRIPOS>ATOM
      1  C          8.4010   -0.6520   -2.0810 C.3     1  UNL1        0.1270
      2  C          8.3710   -1.9020   -2.8770 C.2     1  UNL1        0.3030
      3  O          7.2850   -2.4090   -3.2520 O.2     1  UNL1       -0.2520
      4  O          9.5460   -2.5470   -3.2300 O.3     1  UNL1       -0.4810
      5  H          9.9740   -3.2030   -2.5720 H       1  UNL1        0.2960
      6  C          7.0220   -0.0660   -2.0730 C.3     1  UNL1        0.0470
      7  C          6.4560    0.1030   -0.7360 C.2     1  UNL1       -0.0470
      8  C          5.8000    1.2620   -0.3910 C.2     1  UNL1        0.0040
      9  C          6.5830   -0.9150    0.1810 C.2     1  UNL1        0.0040
     10  C          5.2830    1.3540    0.9030 C.2     1  UNL1        0.0000
     11  C          6.0720   -0.8220    1.4600 C.2     1  UNL1        0.0000
     12  C          5.4140    0.3360    1.8140 C.2     1  UNL1        0.0000
@<TRIPOS>BOND
     1     3     2    2
     2     4     2    1
     3     4     5    1
     4     2     1    1
     5     1     6    1
     6     6     7    1
     7     7     8    2
     8     7     9    1
     9     8    10    1
    10     9    11    2
    11    10    12    2
    12    11    12    1
