@<TRIPOS>MOLECULE
/home/cewinharhar/GITHUB/reincatalyze/data/processed/docking_pred/2023-May-02-0947_maxeplen10_maxtrainstep1000_seadep32_gamma099_lrac9e-4_lrcr1e-3/2f41e52dfc6618f39d2325611a45b0a1c53476a0_ligand_2.pdbqt
 12 12 0 0 0
SMALL
GASTEIGER

@<TRIPOS>ATOM
      1  C          8.4080   -0.6630   -2.0680 C.3     1  UNL1        0.1270
      2  C          8.3770   -1.9050   -2.8760 C.2     1  UNL1        0.3030
      3  O          7.2900   -2.4120   -3.2480 O.2     1  UNL1       -0.2520
      4  O          9.5510   -2.5420   -3.2440 O.3     1  UNL1       -0.4810
      5  H         10.3810   -2.4420   -2.6530 H       1  UNL1        0.2960
      6  C          7.0330   -0.0680   -2.0670 C.3     1  UNL1        0.0470
      7  C          6.4580    0.1000   -0.7340 C.2     1  UNL1       -0.0470
      8  C          5.8020    1.2600   -0.3920 C.2     1  UNL1        0.0040
      9  C          6.5780   -0.9190    0.1820 C.2     1  UNL1        0.0040
     10  C          5.2770    1.3510    0.8990 C.2     1  UNL1        0.0000
     11  C          6.0590   -0.8270    1.4580 C.2     1  UNL1        0.0000
     12  C          5.4000    0.3310    1.8090 C.2     1  UNL1        0.0000
@<TRIPOS>BOND
     1     3     2    2
     2     4     2    1
     3     4     5    1
     4     2     1    1
     5     1     6    1
     6     6     7    1
     7     7     8    2
     8     7     9    1
     9     8    10    1
    10     9    11    2
    11    10    12    2
    12    11    12    1
