@<TRIPOS>MOLECULE
/home/cewinharhar/GITHUB/reincatalyze/data/processed/docking_pred/2023-May-02-0947_maxeplen10_maxtrainstep1000_seadep32_gamma099_lrac9e-4_lrcr1e-3/30246d56752cb6be0208f58fab85103c625ac011_ligand_2.pdbqt
 12 12 0 0 0
SMALL
GASTEIGER

@<TRIPOS>ATOM
      1  C          5.0210    1.7720    0.6540 C.3     1  UNL1        0.1270
      2  C          4.5680    1.1140    1.9020 C.2     1  UNL1        0.3030
      3  O          3.4440    1.3700    2.4010 O.2     1  UNL1       -0.2520
      4  O          5.3750    0.1960    2.5540 O.3     1  UNL1       -0.4810
      5  H          5.0340   -0.2540    3.4080 H       1  UNL1        0.2960
      6  C          6.5180    1.8430    0.6760 C.3     1  UNL1        0.0470
      7  C          7.1660    1.0580   -0.3740 C.2     1  UNL1       -0.0470
      8  C          8.4970    1.2400   -0.6670 C.2     1  UNL1        0.0040
      9  C          6.4280    0.1290   -1.0690 C.2     1  UNL1        0.0040
     10  C          9.0510    0.4550   -1.6810 C.2     1  UNL1        0.0000
     11  C          6.9760   -0.6460   -2.0720 C.2     1  UNL1        0.0000
     12  C          8.3100   -0.4700   -2.3720 C.2     1  UNL1        0.0000
@<TRIPOS>BOND
     1    12    11    2
     2    12    10    1
     3    11     9    1
     4    10     8    2
     5     9     7    2
     6     8     7    1
     7     7     6    1
     8     1     6    1
     9     1     2    1
    10     2     3    2
    11     2     4    1
    12     4     5    1
