MODEL 1
REMARK VINA RESULT:      -7.2      0.000      0.000
REMARK SMILES O=C(O)CCc1ccccc1
REMARK SMILES IDX 4 1 2 2 1 3 3 4 5 6 6 7 7 8 11 9 8 10 10 11 9 12
REMARK H PARENT 3 5
REMARK Flexibility Score: inf
ROOT
ATOM      1  C   UNL     1       8.557  -0.597  -2.274  1.00  0.00     0.127 C 
ENDROOT
BRANCH   1   2
ATOM      2  C   UNL     1       8.548  -1.914  -2.955  1.00  0.00     0.303 C 
ATOM      3  O   UNL     1       9.609  -2.562  -3.132  1.00  0.00    -0.252 OA
BRANCH   2   4
ATOM      4  O   UNL     1       7.364  -2.466  -3.416  1.00  0.00    -0.481 OA
ATOM      5  H   UNL     1       7.372  -3.019  -4.277  1.00  0.00     0.296 HD
ENDBRANCH   2   4
ENDBRANCH   1   2
BRANCH   1   6
ATOM      6  C   UNL     1       7.144  -0.110  -2.173  1.00  0.00     0.047 C 
BRANCH   6   7
ATOM      7  C   UNL     1       6.735   0.250  -0.816  1.00  0.00    -0.047 A 
ATOM      8  C   UNL     1       5.760   1.196  -0.603  1.00  0.00     0.004 A 
ATOM      9  C   UNL     1       7.336  -0.373   0.254  1.00  0.00     0.004 A 
ATOM     10  C   UNL     1       5.419   1.489   0.720  1.00  0.00     0.000 A 
ATOM     11  C   UNL     1       6.998  -0.082   1.560  1.00  0.00     0.000 A 
ATOM     12  C   UNL     1       6.023   0.866   1.783  1.00  0.00     0.000 A 
ENDBRANCH   6   7
ENDBRANCH   1   6
TORSDOF 4
ENDMDL
MODEL 2
REMARK VINA RESULT:      -6.9      3.327      5.113
REMARK SMILES O=C(O)CCc1ccccc1
REMARK SMILES IDX 4 1 2 2 1 3 3 4 5 6 6 7 7 8 11 9 8 10 10 11 9 12
REMARK H PARENT 3 5
REMARK Flexibility Score: inf
ROOT
ATOM      1  C   UNL     1       5.021   1.772   0.654  1.00  0.00     0.127 C 
ENDROOT
BRANCH   1   2
ATOM      2  C   UNL     1       4.568   1.114   1.902  1.00  0.00     0.303 C 
ATOM      3  O   UNL     1       3.444   1.370   2.401  1.00  0.00    -0.252 OA
BRANCH   2   4
ATOM      4  O   UNL     1       5.375   0.196   2.554  1.00  0.00    -0.481 OA
ATOM      5  H   UNL     1       5.034  -0.254   3.408  1.00  0.00     0.296 HD
ENDBRANCH   2   4
ENDBRANCH   1   2
BRANCH   1   6
ATOM      6  C   UNL     1       6.518   1.843   0.676  1.00  0.00     0.047 C 
BRANCH   6   7
ATOM      7  C   UNL     1       7.166   1.058  -0.374  1.00  0.00    -0.047 A 
ATOM      8  C   UNL     1       8.497   1.240  -0.667  1.00  0.00     0.004 A 
ATOM      9  C   UNL     1       6.428   0.129  -1.069  1.00  0.00     0.004 A 
ATOM     10  C   UNL     1       9.051   0.455  -1.681  1.00  0.00     0.000 A 
ATOM     11  C   UNL     1       6.976  -0.646  -2.072  1.00  0.00     0.000 A 
ATOM     12  C   UNL     1       8.310  -0.470  -2.372  1.00  0.00     0.000 A 
ENDBRANCH   6   7
ENDBRANCH   1   6
TORSDOF 4
ENDMDL
