@<TRIPOS>MOLECULE
/home/cewinharhar/GITHUB/reincatalyze/data/processed/docking_pred/2023-May-02-0947_maxeplen10_maxtrainstep1000_seadep32_gamma099_lrac9e-4_lrcr1e-3/30246d56752cb6be0208f58fab85103c625ac011_ligand_2.pdbqt
 12 12 0 0 0
SMALL
GASTEIGER

@<TRIPOS>ATOM
      1  C          8.5570   -0.5970   -2.2740 C.3     1  UNL1        0.1270
      2  C          8.5480   -1.9140   -2.9550 C.2     1  UNL1        0.3030
      3  O          9.6090   -2.5620   -3.1320 O.2     1  UNL1       -0.2520
      4  O          7.3640   -2.4660   -3.4160 O.3     1  UNL1       -0.4810
      5  H          7.3720   -3.0190   -4.2770 H       1  UNL1        0.2960
      6  C          7.1440   -0.1100   -2.1730 C.3     1  UNL1        0.0470
      7  C          6.7350    0.2500   -0.8160 C.2     1  UNL1       -0.0470
      8  C          5.7600    1.1960   -0.6030 C.2     1  UNL1        0.0040
      9  C          7.3360   -0.3730    0.2540 C.2     1  UNL1        0.0040
     10  C          5.4190    1.4890    0.7200 C.2     1  UNL1        0.0000
     11  C          6.9980   -0.0820    1.5600 C.2     1  UNL1        0.0000
     12  C          6.0230    0.8660    1.7830 C.2     1  UNL1        0.0000
@<TRIPOS>BOND
     1     5     4    1
     2     4     2    1
     3     3     2    2
     4     2     1    1
     5     1     6    1
     6     6     7    1
     7     7     8    2
     8     7     9    1
     9     8    10    1
    10     9    11    2
    11    10    12    2
    12    11    12    1
