MODEL 1
REMARK VINA RESULT:      -7.3      0.000      0.000
REMARK SMILES O=C(O)CCc1ccccc1
REMARK SMILES IDX 4 1 2 2 1 3 3 4 5 6 6 7 7 8 11 9 8 10 10 11 9 12
REMARK H PARENT 3 5
REMARK Flexibility Score: inf
ROOT
ATOM      1  C   UNL     1       8.401  -0.645  -2.090  1.00  0.00     0.127 C 
ENDROOT
BRANCH   1   2
ATOM      2  C   UNL     1       8.371  -1.898  -2.880  1.00  0.00     0.303 C 
ATOM      3  O   UNL     1       7.285  -2.409  -3.249  1.00  0.00    -0.252 OA
BRANCH   2   4
ATOM      4  O   UNL     1       9.546  -2.542  -3.234  1.00  0.00    -0.481 OA
ATOM      5  H   UNL     1      10.371  -1.985  -3.469  1.00  0.00     0.296 HD
ENDBRANCH   2   4
ENDBRANCH   1   2
BRANCH   1   6
ATOM      6  C   UNL     1       7.020  -0.063  -2.078  1.00  0.00     0.047 C 
BRANCH   6   7
ATOM      7  C   UNL     1       6.456   0.103  -0.740  1.00  0.00    -0.047 A 
ATOM      8  C   UNL     1       5.800   1.261  -0.392  1.00  0.00     0.004 A 
ATOM      9  C   UNL     1       6.584  -0.917   0.174  1.00  0.00     0.004 A 
ATOM     10  C   UNL     1       5.285   1.350   0.904  1.00  0.00     0.000 A 
ATOM     11  C   UNL     1       6.075  -0.828   1.454  1.00  0.00     0.000 A 
ATOM     12  C   UNL     1       5.418   0.330   1.811  1.00  0.00     0.000 A 
ENDBRANCH   6   7
ENDBRANCH   1   6
TORSDOF 4
ENDMDL
