@<TRIPOS>MOLECULE
/home/cewinharhar/GITHUB/reincatalyze/data/processed/docking_pred/2023-May-02-0947_maxeplen10_maxtrainstep1000_seadep32_gamma099_lrac9e-4_lrcr1e-3/3109bb1a4c888d48ff6ee722b945383cff227a99_ligand_2.pdbqt
 12 12 0 0 0
SMALL
GASTEIGER

@<TRIPOS>ATOM
      1  C          5.0390    1.7740    0.6530 C.3     1  UNL1        0.1270
      2  C          4.5820    1.1140    1.8990 C.2     1  UNL1        0.3030
      3  O          3.4590    1.3720    2.3980 O.2     1  UNL1       -0.2520
      4  O          5.3860    0.1920    2.5500 O.3     1  UNL1       -0.4810
      5  H          5.9340    0.4900    3.3620 H       1  UNL1        0.2960
      6  C          6.5360    1.8360    0.6750 C.3     1  UNL1        0.0470
      7  C          7.1790    1.0490   -0.3760 C.2     1  UNL1       -0.0470
      8  C          8.5090    1.2290   -0.6760 C.2     1  UNL1        0.0040
      9  C          6.4370    0.1180   -1.0660 C.2     1  UNL1        0.0040
     10  C          9.0570    0.4420   -1.6910 C.2     1  UNL1        0.0000
     11  C          6.9800   -0.6590   -2.0700 C.2     1  UNL1        0.0000
     12  C          8.3120   -0.4850   -2.3770 C.2     1  UNL1        0.0000
@<TRIPOS>BOND
     1    12    11    2
     2    12    10    1
     3    11     9    1
     4    10     8    2
     5     9     7    2
     6     8     7    1
     7     7     6    1
     8     1     6    1
     9     1     2    1
    10     2     3    2
    11     2     4    1
    12     4     5    1
