@<TRIPOS>MOLECULE
/home/cewinharhar/GITHUB/reincatalyze/data/processed/docking_pred/2023-May-02-0947_maxeplen10_maxtrainstep1000_seadep32_gamma099_lrac9e-4_lrcr1e-3/3109bb1a4c888d48ff6ee722b945383cff227a99_ligand_2.pdbqt
 12 12 0 0 0
SMALL
GASTEIGER

@<TRIPOS>ATOM
      1  C          8.5650   -0.6060   -2.2640 C.3     1  UNL1        0.1270
      2  C          8.5380   -1.9120   -2.9640 C.2     1  UNL1        0.3030
      3  O          9.5870   -2.5830   -3.1300 O.2     1  UNL1       -0.2520
      4  O          7.3510   -2.4290   -3.4570 O.3     1  UNL1       -0.4810
      5  H          6.8540   -3.1440   -2.9180 H       1  UNL1        0.2960
      6  C          7.1580   -0.1030   -2.1530 C.3     1  UNL1        0.0470
      7  C          6.7540    0.2390   -0.7900 C.2     1  UNL1       -0.0470
      8  C          5.7740    1.1770   -0.5610 C.2     1  UNL1        0.0040
      9  C          7.3650   -0.3910    0.2690 C.2     1  UNL1        0.0040
     10  C          5.4390    1.4530    0.7660 C.2     1  UNL1        0.0000
     11  C          7.0320   -0.1170    1.5810 C.2     1  UNL1        0.0000
     12  C          6.0520    0.8220    1.8190 C.2     1  UNL1        0.0000
@<TRIPOS>BOND
     1     4     2    1
     2     4     5    1
     3     3     2    2
     4     2     1    1
     5     1     6    1
     6     6     7    1
     7     7     8    2
     8     7     9    1
     9     8    10    1
    10     9    11    2
    11    10    12    2
    12    11    12    1
