MODEL 1
REMARK VINA RESULT:      -7.2      0.000      0.000
REMARK SMILES O=C(O)CCc1ccccc1
REMARK SMILES IDX 4 1 2 2 1 3 3 4 5 6 6 7 7 8 11 9 8 10 10 11 9 12
REMARK H PARENT 3 5
REMARK Flexibility Score: inf
ROOT
ATOM      1  C   UNL     1       8.565  -0.606  -2.264  1.00  0.00     0.127 C 
ENDROOT
BRANCH   1   2
ATOM      2  C   UNL     1       8.538  -1.912  -2.964  1.00  0.00     0.303 C 
ATOM      3  O   UNL     1       9.587  -2.583  -3.130  1.00  0.00    -0.252 OA
BRANCH   2   4
ATOM      4  O   UNL     1       7.351  -2.429  -3.457  1.00  0.00    -0.481 OA
ATOM      5  H   UNL     1       6.854  -3.144  -2.918  1.00  0.00     0.296 HD
ENDBRANCH   2   4
ENDBRANCH   1   2
BRANCH   1   6
ATOM      6  C   UNL     1       7.158  -0.103  -2.153  1.00  0.00     0.047 C 
BRANCH   6   7
ATOM      7  C   UNL     1       6.754   0.239  -0.790  1.00  0.00    -0.047 A 
ATOM      8  C   UNL     1       5.774   1.177  -0.561  1.00  0.00     0.004 A 
ATOM      9  C   UNL     1       7.365  -0.391   0.269  1.00  0.00     0.004 A 
ATOM     10  C   UNL     1       5.439   1.453   0.766  1.00  0.00     0.000 A 
ATOM     11  C   UNL     1       7.032  -0.117   1.581  1.00  0.00     0.000 A 
ATOM     12  C   UNL     1       6.052   0.822   1.819  1.00  0.00     0.000 A 
ENDBRANCH   6   7
ENDBRANCH   1   6
TORSDOF 4
ENDMDL
MODEL 2
REMARK VINA RESULT:      -6.9      3.328      5.111
REMARK SMILES O=C(O)CCc1ccccc1
REMARK SMILES IDX 4 1 2 2 1 3 3 4 5 6 6 7 7 8 11 9 8 10 10 11 9 12
REMARK H PARENT 3 5
REMARK Flexibility Score: inf
ROOT
ATOM      1  C   UNL     1       5.039   1.774   0.653  1.00  0.00     0.127 C 
ENDROOT
BRANCH   1   2
ATOM      2  C   UNL     1       4.582   1.114   1.899  1.00  0.00     0.303 C 
ATOM      3  O   UNL     1       3.459   1.372   2.398  1.00  0.00    -0.252 OA
BRANCH   2   4
ATOM      4  O   UNL     1       5.386   0.192   2.550  1.00  0.00    -0.481 OA
ATOM      5  H   UNL     1       5.934   0.490   3.362  1.00  0.00     0.296 HD
ENDBRANCH   2   4
ENDBRANCH   1   2
BRANCH   1   6
ATOM      6  C   UNL     1       6.536   1.836   0.675  1.00  0.00     0.047 C 
BRANCH   6   7
ATOM      7  C   UNL     1       7.179   1.049  -0.376  1.00  0.00    -0.047 A 
ATOM      8  C   UNL     1       8.509   1.229  -0.676  1.00  0.00     0.004 A 
ATOM      9  C   UNL     1       6.437   0.118  -1.066  1.00  0.00     0.004 A 
ATOM     10  C   UNL     1       9.057   0.442  -1.691  1.00  0.00     0.000 A 
ATOM     11  C   UNL     1       6.980  -0.659  -2.070  1.00  0.00     0.000 A 
ATOM     12  C   UNL     1       8.312  -0.485  -2.377  1.00  0.00     0.000 A 
ENDBRANCH   6   7
ENDBRANCH   1   6
TORSDOF 4
ENDMDL
