@<TRIPOS>MOLECULE
/home/cewinharhar/GITHUB/reincatalyze/data/processed/docking_pred/2023-May-02-0947_maxeplen10_maxtrainstep1000_seadep32_gamma099_lrac9e-4_lrcr1e-3/3162da3d825baae428df1736f889259fa2bb10a2_ligand_2.pdbqt
 12 12 0 0 0
SMALL
GASTEIGER

@<TRIPOS>ATOM
      1  C          8.4320   -0.6280   -2.1430 C.3     1  UNL1        0.1270
      2  C          8.4680   -1.8950   -2.9110 C.2     1  UNL1        0.3030
      3  O          9.5460   -2.5100   -3.1000 O.2     1  UNL1       -0.2520
      4  O          7.3080   -2.4370   -3.4420 O.3     1  UNL1       -0.4810
      5  H          6.7430   -3.0690   -2.8690 H       1  UNL1        0.2960
      6  C          7.0180   -0.1300   -2.1220 C.3     1  UNL1        0.0470
      7  C          6.4740    0.0560   -0.7790 C.2     1  UNL1       -0.0470
      8  C          5.8440    1.2290   -0.4320 C.2     1  UNL1        0.0040
      9  C          6.5950   -0.9590    0.1420 C.2     1  UNL1        0.0040
     10  C          5.3460    1.3370    0.8690 C.2     1  UNL1        0.0000
     11  C          6.1030   -0.8500    1.4270 C.2     1  UNL1        0.0000
     12  C          5.4710    0.3210    1.7830 C.2     1  UNL1        0.0000
@<TRIPOS>BOND
     1     4     2    1
     2     4     5    1
     3     3     2    2
     4     2     1    1
     5     1     6    1
     6     6     7    1
     7     7     8    2
     8     7     9    1
     9     8    10    1
    10     9    11    2
    11    10    12    2
    12    11    12    1
