MODEL 1
REMARK VINA RESULT:      -7.3      0.000      0.000
REMARK SMILES O=C(O)CCc1ccccc1
REMARK SMILES IDX 4 1 2 2 1 3 3 4 5 6 6 7 7 8 11 9 8 10 10 11 9 12
REMARK H PARENT 3 5
REMARK Flexibility Score: inf
ROOT
ATOM      1  C   UNL     1       8.435  -0.639  -2.126  1.00  0.00     0.127 C 
ENDROOT
BRANCH   1   2
ATOM      2  C   UNL     1       8.474  -1.903  -2.898  1.00  0.00     0.303 C 
ATOM      3  O   UNL     1       9.553  -2.516  -3.090  1.00  0.00    -0.252 OA
BRANCH   2   4
ATOM      4  O   UNL     1       7.315  -2.445  -3.432  1.00  0.00    -0.481 OA
ATOM      5  H   UNL     1       6.866  -1.982  -4.227  1.00  0.00     0.296 HD
ENDBRANCH   2   4
ENDBRANCH   1   2
BRANCH   1   6
ATOM      6  C   UNL     1       7.024  -0.135  -2.117  1.00  0.00     0.047 C 
BRANCH   6   7
ATOM      7  C   UNL     1       6.469   0.057  -0.779  1.00  0.00    -0.047 A 
ATOM      8  C   UNL     1       5.833   1.229  -0.443  1.00  0.00     0.004 A 
ATOM      9  C   UNL     1       6.589  -0.952   0.149  1.00  0.00     0.004 A 
ATOM     10  C   UNL     1       5.326   1.343   0.854  1.00  0.00     0.000 A 
ATOM     11  C   UNL     1       6.088  -0.838   1.430  1.00  0.00     0.000 A 
ATOM     12  C   UNL     1       5.449   0.334   1.775  1.00  0.00     0.000 A 
ENDBRANCH   6   7
ENDBRANCH   1   6
TORSDOF 4
ENDMDL
MODEL 2
REMARK VINA RESULT:      -6.4      0.776      1.495
REMARK SMILES O=C(O)CCc1ccccc1
REMARK SMILES IDX 4 1 2 2 1 3 3 4 5 6 6 7 7 8 11 9 8 10 10 11 9 12
REMARK H PARENT 3 5
REMARK Flexibility Score: inf
ROOT
ATOM      1  C   UNL     1       8.574  -1.076  -1.441  1.00  0.00     0.127 C 
ENDROOT
BRANCH   1   2
ATOM      2  C   UNL     1       8.297  -1.908  -2.635  1.00  0.00     0.303 C 
ATOM      3  O   UNL     1       7.121  -2.152  -3.000  1.00  0.00    -0.252 OA
BRANCH   2   4
ATOM      4  O   UNL     1       9.334  -2.441  -3.385  1.00  0.00    -0.481 OA
ATOM      5  H   UNL     1       9.145  -2.778  -4.333  1.00  0.00     0.296 HD
ENDBRANCH   2   4
ENDBRANCH   1   2
BRANCH   1   6
ATOM      6  C   UNL     1       7.776  -1.618  -0.294  1.00  0.00     0.047 C 
BRANCH   6   7
ATOM      7  C   UNL     1       6.823  -0.665   0.270  1.00  0.00    -0.047 A 
ATOM      8  C   UNL     1       6.509   0.496  -0.399  1.00  0.00     0.004 A 
ATOM      9  C   UNL     1       6.236  -0.941   1.484  1.00  0.00     0.004 A 
ATOM     10  C   UNL     1       5.589   1.360   0.200  1.00  0.00     0.000 A 
ATOM     11  C   UNL     1       5.327  -0.085   2.074  1.00  0.00     0.000 A 
ATOM     12  C   UNL     1       5.007   1.080   1.410  1.00  0.00     0.000 A 
ENDBRANCH   6   7
ENDBRANCH   1   6
TORSDOF 4
ENDMDL
