@<TRIPOS>MOLECULE
/home/cewinharhar/GITHUB/reincatalyze/data/processed/docking_pred/2023-May-02-0947_maxeplen10_maxtrainstep1000_seadep32_gamma099_lrac9e-4_lrcr1e-3/31de0aabf4a391366091aaa04775d5537fef7eaf_ligand_2.pdbqt
 12 12 0 0 0
SMALL
GASTEIGER

@<TRIPOS>ATOM
      1  C          8.4350   -0.6390   -2.1260 C.3     1  UNL1        0.1270
      2  C          8.4740   -1.9030   -2.8980 C.2     1  UNL1        0.3030
      3  O          9.5530   -2.5160   -3.0900 O.2     1  UNL1       -0.2520
      4  O          7.3150   -2.4450   -3.4320 O.3     1  UNL1       -0.4810
      5  H          6.8660   -1.9820   -4.2270 H       1  UNL1        0.2960
      6  C          7.0240   -0.1350   -2.1170 C.3     1  UNL1        0.0470
      7  C          6.4690    0.0570   -0.7790 C.2     1  UNL1       -0.0470
      8  C          5.8330    1.2290   -0.4430 C.2     1  UNL1        0.0040
      9  C          6.5890   -0.9520    0.1490 C.2     1  UNL1        0.0040
     10  C          5.3260    1.3430    0.8540 C.2     1  UNL1        0.0000
     11  C          6.0880   -0.8380    1.4300 C.2     1  UNL1        0.0000
     12  C          5.4490    0.3340    1.7750 C.2     1  UNL1        0.0000
@<TRIPOS>BOND
     1     5     4    1
     2     4     2    1
     3     3     2    2
     4     2     1    1
     5     1     6    1
     6     6     7    1
     7     7     8    2
     8     7     9    1
     9     8    10    1
    10     9    11    2
    11    10    12    2
    12    11    12    1
