@<TRIPOS>MOLECULE
/home/cewinharhar/GITHUB/reincatalyze/data/processed/docking_pred/2023-May-02-0947_maxeplen10_maxtrainstep1000_seadep32_gamma099_lrac9e-4_lrcr1e-3/31de0aabf4a391366091aaa04775d5537fef7eaf_ligand_2.pdbqt
 12 12 0 0 0
SMALL
GASTEIGER

@<TRIPOS>ATOM
      1  C          8.5740   -1.0760   -1.4410 C.3     1  UNL1        0.1270
      2  C          8.2970   -1.9080   -2.6350 C.2     1  UNL1        0.3030
      3  O          7.1210   -2.1520   -3.0000 O.2     1  UNL1       -0.2520
      4  O          9.3340   -2.4410   -3.3850 O.3     1  UNL1       -0.4810
      5  H          9.1450   -2.7780   -4.3330 H       1  UNL1        0.2960
      6  C          7.7760   -1.6180   -0.2940 C.3     1  UNL1        0.0470
      7  C          6.8230   -0.6650    0.2700 C.2     1  UNL1       -0.0470
      8  C          6.5090    0.4960   -0.3990 C.2     1  UNL1        0.0040
      9  C          6.2360   -0.9410    1.4840 C.2     1  UNL1        0.0040
     10  C          5.5890    1.3600    0.2000 C.2     1  UNL1        0.0000
     11  C          5.3270   -0.0850    2.0740 C.2     1  UNL1        0.0000
     12  C          5.0070    1.0800    1.4100 C.2     1  UNL1        0.0000
@<TRIPOS>BOND
     1     5     4    1
     2     4     2    1
     3     3     2    2
     4     2     1    1
     5     1     6    1
     6     8    10    1
     7     8     7    2
     8     6     7    1
     9    10    12    2
    10     7     9    1
    11    12    11    1
    12     9    11    2
