@<TRIPOS>MOLECULE
/home/cewinharhar/GITHUB/reincatalyze/data/processed/docking_pred/2023-May-02-0947_maxeplen10_maxtrainstep1000_seadep32_gamma099_lrac9e-4_lrcr1e-3/32925d028e6f827171d23f19599134de0355568e_ligand_2.pdbqt
 12 12 0 0 0
SMALL
GASTEIGER

@<TRIPOS>ATOM
      1  C          8.4000   -0.6480   -2.0850 C.3     1  UNL1        0.1270
      2  C          8.3710   -1.8990   -2.8790 C.2     1  UNL1        0.3030
      3  O          7.2850   -2.4080   -3.2520 O.2     1  UNL1       -0.2520
      4  O          9.5450   -2.5440   -3.2320 O.3     1  UNL1       -0.4810
      5  H         10.3690   -1.9870   -3.4760 H       1  UNL1        0.2960
      6  C          7.0200   -0.0640   -2.0750 C.3     1  UNL1        0.0470
      7  C          6.4550    0.1030   -0.7370 C.2     1  UNL1       -0.0470
      8  C          5.8000    1.2620   -0.3910 C.2     1  UNL1        0.0040
      9  C          6.5840   -0.9160    0.1780 C.2     1  UNL1        0.0040
     10  C          5.2850    1.3520    0.9040 C.2     1  UNL1        0.0000
     11  C          6.0740   -0.8250    1.4580 C.2     1  UNL1        0.0000
     12  C          5.4160    0.3330    1.8130 C.2     1  UNL1        0.0000
@<TRIPOS>BOND
     1     5     4    1
     2     3     2    2
     3     4     2    1
     4     2     1    1
     5     1     6    1
     6     6     7    1
     7     7     8    2
     8     7     9    1
     9     8    10    1
    10     9    11    2
    11    10    12    2
    12    11    12    1
