@<TRIPOS>MOLECULE
/home/cewinharhar/GITHUB/reincatalyze/data/processed/docking_pred/2023-May-02-0947_maxeplen10_maxtrainstep1000_seadep32_gamma099_lrac9e-4_lrcr1e-3/32925d028e6f827171d23f19599134de0355568e_ligand_2.pdbqt
 12 12 0 0 0
SMALL
GASTEIGER

@<TRIPOS>ATOM
      1  C          5.0390    1.7340    0.6620 C.3     1  UNL1        0.1270
      2  C          4.5900    1.0590    1.9020 C.2     1  UNL1        0.3030
      3  O          5.3120    0.2070    2.4770 O.2     1  UNL1       -0.2520
      4  O          3.3570    1.3500    2.4630 O.3     1  UNL1       -0.4810
      5  H          2.6210    0.6380    2.4520 H       1  UNL1        0.2960
      6  C          6.5360    1.8070    0.6810 C.3     1  UNL1        0.0470
      7  C          7.1820    1.0370   -0.3800 C.2     1  UNL1       -0.0470
      8  C          8.5190    1.2070   -0.6580 C.2     1  UNL1        0.0040
      9  C          6.4380    0.1340   -1.1030 C.2     1  UNL1        0.0040
     10  C          9.0700    0.4370   -1.6850 C.2     1  UNL1        0.0000
     11  C          6.9840   -0.6260   -2.1180 C.2     1  UNL1        0.0000
     12  C          8.3230   -0.4620   -2.4030 C.2     1  UNL1        0.0000
@<TRIPOS>BOND
     1    12    11    2
     2    12    10    1
     3    11     9    1
     4    10     8    2
     5     9     7    2
     6     8     7    1
     7     7     6    1
     8     1     6    1
     9     1     2    1
    10     2     4    1
    11     2     3    2
    12     5     4    1
