@<TRIPOS>MOLECULE
/home/cewinharhar/GITHUB/reincatalyze/data/processed/docking_pred/2023-May-02-0947_maxeplen10_maxtrainstep1000_seadep32_gamma099_lrac9e-4_lrcr1e-3/354626f0a3e222b5e9865005b72eb67019ec4e19_ligand_2.pdbqt
 12 12 0 0 0
SMALL
GASTEIGER

@<TRIPOS>ATOM
      1  C          8.3980   -0.6540   -2.0770 C.3     1  UNL1        0.1270
      2  C          8.3700   -1.9020   -2.8750 C.2     1  UNL1        0.3030
      3  O          7.2840   -2.4080   -3.2540 O.2     1  UNL1       -0.2520
      4  O          9.5440   -2.5480   -3.2260 O.3     1  UNL1       -0.4810
      5  H          9.5730   -3.1070   -4.0830 H       1  UNL1        0.2960
      6  C          7.0190   -0.0680   -2.0700 C.3     1  UNL1        0.0470
      7  C          6.4530    0.1030   -0.7330 C.2     1  UNL1       -0.0470
      8  C          5.7980    1.2620   -0.3890 C.2     1  UNL1        0.0040
      9  C          6.5810   -0.9140    0.1850 C.2     1  UNL1        0.0040
     10  C          5.2820    1.3560    0.9050 C.2     1  UNL1        0.0000
     11  C          6.0700   -0.8200    1.4640 C.2     1  UNL1        0.0000
     12  C          5.4130    0.3390    1.8170 C.2     1  UNL1        0.0000
@<TRIPOS>BOND
     1     5     4    1
     2     3     2    2
     3     4     2    1
     4     2     1    1
     5     1     6    1
     6     6     7    1
     7     7     8    2
     8     7     9    1
     9     8    10    1
    10     9    11    2
    11    10    12    2
    12    11    12    1
