@<TRIPOS>MOLECULE
/home/cewinharhar/GITHUB/reincatalyze/data/processed/docking_pred/2023-May-02-0947_maxeplen10_maxtrainstep1000_seadep32_gamma099_lrac9e-4_lrcr1e-3/36543b95c0c748273319382419c31c9b55863a9a_ligand_2.pdbqt
 12 12 0 0 0
SMALL
GASTEIGER

@<TRIPOS>ATOM
      1  C          8.4150   -0.5290   -2.0130 C.3     1  UNL1        0.1270
      2  C          8.4370   -1.7780   -2.8110 C.2     1  UNL1        0.3030
      3  O          7.3800   -2.2740   -3.2730 O.2     1  UNL1       -0.2520
      4  O          9.6300   -2.4330   -3.0710 O.3     1  UNL1       -0.4810
      5  H          9.6520   -3.4570   -3.0590 H       1  UNL1        0.2960
      6  C          7.0160    0.0090   -2.0200 C.3     1  UNL1        0.0470
      7  C          6.4320    0.1630   -0.6890 C.2     1  UNL1       -0.0470
      8  C          5.7660    1.3150   -0.3420 C.2     1  UNL1        0.0040
      9  C          6.5540   -0.8620    0.2210 C.2     1  UNL1        0.0040
     10  C          5.2320    1.3930    0.9460 C.2     1  UNL1        0.0000
     11  C          6.0260   -0.7840    1.4940 C.2     1  UNL1        0.0000
     12  C          5.3570    0.3670    1.8490 C.2     1  UNL1        0.0000
@<TRIPOS>BOND
     1     3     2    2
     2     4     5    1
     3     4     2    1
     4     2     1    1
     5     6     1    1
     6     6     7    1
     7     7     8    2
     8     7     9    1
     9     8    10    1
    10     9    11    2
    11    10    12    2
    12    11    12    1
