MODEL 1
REMARK VINA RESULT:      -6.8      0.000      0.000
REMARK SMILES O=C(O)CCc1ccccc1
REMARK SMILES IDX 4 1 2 2 1 3 3 4 5 6 6 7 7 8 11 9 8 10 10 11 9 12
REMARK H PARENT 3 5
REMARK Flexibility Score: inf
ROOT
ATOM      1  C   UNL     1       8.415  -0.529  -2.013  1.00  0.00     0.127 C 
ENDROOT
BRANCH   1   2
ATOM      2  C   UNL     1       8.437  -1.778  -2.811  1.00  0.00     0.303 C 
ATOM      3  O   UNL     1       7.380  -2.274  -3.273  1.00  0.00    -0.252 OA
BRANCH   2   4
ATOM      4  O   UNL     1       9.630  -2.433  -3.071  1.00  0.00    -0.481 OA
ATOM      5  H   UNL     1       9.652  -3.457  -3.059  1.00  0.00     0.296 HD
ENDBRANCH   2   4
ENDBRANCH   1   2
BRANCH   1   6
ATOM      6  C   UNL     1       7.016   0.009  -2.020  1.00  0.00     0.047 C 
BRANCH   6   7
ATOM      7  C   UNL     1       6.432   0.163  -0.689  1.00  0.00    -0.047 A 
ATOM      8  C   UNL     1       5.766   1.315  -0.342  1.00  0.00     0.004 A 
ATOM      9  C   UNL     1       6.554  -0.862   0.221  1.00  0.00     0.004 A 
ATOM     10  C   UNL     1       5.232   1.393   0.946  1.00  0.00     0.000 A 
ATOM     11  C   UNL     1       6.026  -0.784   1.494  1.00  0.00     0.000 A 
ATOM     12  C   UNL     1       5.357   0.367   1.849  1.00  0.00     0.000 A 
ENDBRANCH   6   7
ENDBRANCH   1   6
TORSDOF 4
ENDMDL
MODEL 2
REMARK VINA RESULT:      -6.8      3.306      5.133
REMARK SMILES O=C(O)CCc1ccccc1
REMARK SMILES IDX 4 1 2 2 1 3 3 4 5 6 6 7 7 8 11 9 8 10 10 11 9 12
REMARK H PARENT 3 5
REMARK Flexibility Score: inf
ROOT
ATOM      1  C   UNL     1       5.006   1.791   0.711  1.00  0.00     0.127 C 
ENDROOT
BRANCH   1   2
ATOM      2  C   UNL     1       4.483   1.110   1.919  1.00  0.00     0.303 C 
ATOM      3  O   UNL     1       5.137   0.201   2.487  1.00  0.00    -0.252 OA
BRANCH   2   4
ATOM      4  O   UNL     1       3.254   1.459   2.455  1.00  0.00    -0.481 OA
ATOM      5  H   UNL     1       2.673   2.148   1.969  1.00  0.00     0.296 HD
ENDBRANCH   2   4
ENDBRANCH   1   2
BRANCH   1   6
ATOM      6  C   UNL     1       6.503   1.759   0.763  1.00  0.00     0.047 C 
BRANCH   6   7
ATOM      7  C   UNL     1       7.120   1.008  -0.330  1.00  0.00    -0.047 A 
ATOM      8  C   UNL     1       6.392   0.089  -1.050  1.00  0.00     0.004 A 
ATOM      9  C   UNL     1       8.442   1.232  -0.635  1.00  0.00     0.004 A 
ATOM     10  C   UNL     1       7.046  -0.591  -2.081  1.00  0.00     0.000 A 
ATOM     11  C   UNL     1       9.087   0.559  -1.654  1.00  0.00     0.000 A 
ATOM     12  C   UNL     1       8.366  -0.364  -2.380  1.00  0.00     0.000 A 
ENDBRANCH   6   7
ENDBRANCH   1   6
TORSDOF 4
ENDMDL
MODEL 3
REMARK VINA RESULT:      -6.7      3.755      4.858
REMARK SMILES O=C(O)CCc1ccccc1
REMARK SMILES IDX 4 1 2 2 1 3 3 4 5 6 6 7 7 8 11 9 8 10 10 11 9 12
REMARK H PARENT 3 5
REMARK Flexibility Score: inf
ROOT
ATOM      1  C   UNL     1       5.474   2.897   0.005  1.00  0.00     0.127 C 
ENDROOT
BRANCH   1   2
ATOM      2  C   UNL     1       6.262   3.862   0.807  1.00  0.00     0.303 C 
ATOM      3  O   UNL     1       6.927   4.775   0.257  1.00  0.00    -0.252 OA
BRANCH   2   4
ATOM      4  O   UNL     1       6.287   3.784   2.190  1.00  0.00    -0.481 OA
ATOM      5  H   UNL     1       6.603   2.919   2.637  1.00  0.00     0.296 HD
ENDBRANCH   2   4
ENDBRANCH   1   2
BRANCH   1   6
ATOM      6  C   UNL     1       4.947   1.839   0.927  1.00  0.00     0.047 C 
BRANCH   6   7
ATOM      7  C   UNL     1       5.727   0.602   0.920  1.00  0.00    -0.047 A 
ATOM      8  C   UNL     1       6.386   0.193  -0.216  1.00  0.00     0.004 A 
ATOM      9  C   UNL     1       5.798  -0.153   2.067  1.00  0.00     0.004 A 
ATOM     10  C   UNL     1       7.112  -0.998  -0.150  1.00  0.00     0.000 A 
ATOM     11  C   UNL     1       6.516  -1.331   2.131  1.00  0.00     0.000 A 
ATOM     12  C   UNL     1       7.179  -1.748   0.997  1.00  0.00     0.000 A 
ENDBRANCH   6   7
ENDBRANCH   1   6
TORSDOF 4
ENDMDL
