@<TRIPOS>MOLECULE
/home/cewinharhar/GITHUB/reincatalyze/data/processed/docking_pred/2023-May-02-0947_maxeplen10_maxtrainstep1000_seadep32_gamma099_lrac9e-4_lrcr1e-3/36543b95c0c748273319382419c31c9b55863a9a_ligand_2.pdbqt
 12 12 0 0 0
SMALL
GASTEIGER

@<TRIPOS>ATOM
      1  C          5.4740    2.8970    0.0050 C.3     1  UNL1        0.1270
      2  C          6.2620    3.8620    0.8070 C.2     1  UNL1        0.3030
      3  O          6.9270    4.7750    0.2570 O.2     1  UNL1       -0.2520
      4  O          6.2870    3.7840    2.1900 O.3     1  UNL1       -0.4810
      5  H          6.6030    2.9190    2.6370 H       1  UNL1        0.2960
      6  C          4.9470    1.8390    0.9270 C.3     1  UNL1        0.0470
      7  C          5.7270    0.6020    0.9200 C.2     1  UNL1       -0.0470
      8  C          6.3860    0.1930   -0.2160 C.2     1  UNL1        0.0040
      9  C          5.7980   -0.1530    2.0670 C.2     1  UNL1        0.0040
     10  C          7.1120   -0.9980   -0.1500 C.2     1  UNL1        0.0000
     11  C          6.5160   -1.3310    2.1310 C.2     1  UNL1        0.0000
     12  C          7.1790   -1.7480    0.9970 C.2     1  UNL1        0.0000
@<TRIPOS>BOND
     1     8    10    1
     2     8     7    2
     3    10    12    2
     4     1     2    1
     5     1     6    1
     6     3     2    2
     7     2     4    1
     8     7     6    1
     9     7     9    1
    10    12    11    1
    11     9    11    2
    12     4     5    1
