@<TRIPOS>MOLECULE
/home/cewinharhar/GITHUB/reincatalyze/data/processed/docking_pred/2023-May-02-0947_maxeplen10_maxtrainstep1000_seadep32_gamma099_lrac9e-4_lrcr1e-3/36543b95c0c748273319382419c31c9b55863a9a_ligand_2.pdbqt
 12 12 0 0 0
SMALL
GASTEIGER

@<TRIPOS>ATOM
      1  C          5.0060    1.7910    0.7110 C.3     1  UNL1        0.1270
      2  C          4.4830    1.1100    1.9190 C.2     1  UNL1        0.3030
      3  O          5.1370    0.2010    2.4870 O.2     1  UNL1       -0.2520
      4  O          3.2540    1.4590    2.4550 O.3     1  UNL1       -0.4810
      5  H          2.6730    2.1480    1.9690 H       1  UNL1        0.2960
      6  C          6.5030    1.7590    0.7630 C.3     1  UNL1        0.0470
      7  C          7.1200    1.0080   -0.3300 C.2     1  UNL1       -0.0470
      8  C          6.3920    0.0890   -1.0500 C.2     1  UNL1        0.0040
      9  C          8.4420    1.2320   -0.6350 C.2     1  UNL1        0.0040
     10  C          7.0460   -0.5910   -2.0810 C.2     1  UNL1        0.0000
     11  C          9.0870    0.5590   -1.6540 C.2     1  UNL1        0.0000
     12  C          8.3660   -0.3640   -2.3800 C.2     1  UNL1        0.0000
@<TRIPOS>BOND
     1    12    10    2
     2    12    11    1
     3    10     8    1
     4    11     9    2
     5     8     7    2
     6     9     7    1
     7     7     6    1
     8     1     6    1
     9     1     2    1
    10     2     4    1
    11     2     3    2
    12     5     4    1
