MODEL 1
REMARK VINA RESULT:      -7.2      0.000      0.000
REMARK SMILES O=C(O)CCc1ccccc1
REMARK SMILES IDX 4 1 2 2 1 3 3 4 5 6 6 7 7 8 11 9 8 10 10 11 9 12
REMARK H PARENT 3 5
REMARK Flexibility Score: inf
ROOT
ATOM      1  C   UNL     1       8.547  -0.591  -2.282  1.00  0.00     0.127 C 
ENDROOT
BRANCH   1   2
ATOM      2  C   UNL     1       8.540  -1.910  -2.956  1.00  0.00     0.303 C 
ATOM      3  O   UNL     1       9.599  -2.565  -3.117  1.00  0.00    -0.252 OA
BRANCH   2   4
ATOM      4  O   UNL     1       7.359  -2.459  -3.429  1.00  0.00    -0.481 OA
ATOM      5  H   UNL     1       6.876  -3.167  -2.870  1.00  0.00     0.296 HD
ENDBRANCH   2   4
ENDBRANCH   1   2
BRANCH   1   6
ATOM      6  C   UNL     1       7.133  -0.110  -2.171  1.00  0.00     0.047 C 
BRANCH   6   7
ATOM      7  C   UNL     1       6.732   0.251  -0.812  1.00  0.00    -0.047 A 
ATOM      8  C   UNL     1       5.765   1.204  -0.594  1.00  0.00     0.004 A 
ATOM      9  C   UNL     1       7.334  -0.376   0.254  1.00  0.00     0.004 A 
ATOM     10  C   UNL     1       5.432   1.498   0.731  1.00  0.00     0.000 A 
ATOM     11  C   UNL     1       7.004  -0.084   1.563  1.00  0.00     0.000 A 
ATOM     12  C   UNL     1       6.036   0.870   1.790  1.00  0.00     0.000 A 
ENDBRANCH   6   7
ENDBRANCH   1   6
TORSDOF 4
ENDMDL
MODEL 2
REMARK VINA RESULT:      -6.9      3.330      5.110
REMARK SMILES O=C(O)CCc1ccccc1
REMARK SMILES IDX 4 1 2 2 1 3 3 4 5 6 6 7 7 8 11 9 8 10 10 11 9 12
REMARK H PARENT 3 5
REMARK Flexibility Score: inf
ROOT
ATOM      1  C   UNL     1       5.022   1.776   0.655  1.00  0.00     0.127 C 
ENDROOT
BRANCH   1   2
ATOM      2  C   UNL     1       4.571   1.116   1.903  1.00  0.00     0.303 C 
ATOM      3  O   UNL     1       3.448   1.371   2.405  1.00  0.00    -0.252 OA
BRANCH   2   4
ATOM      4  O   UNL     1       5.379   0.197   2.552  1.00  0.00    -0.481 OA
ATOM      5  H   UNL     1       6.325   0.025   2.200  1.00  0.00     0.296 HD
ENDBRANCH   2   4
ENDBRANCH   1   2
BRANCH   1   6
ATOM      6  C   UNL     1       6.518   1.848   0.676  1.00  0.00     0.047 C 
BRANCH   6   7
ATOM      7  C   UNL     1       7.166   1.063  -0.374  1.00  0.00    -0.047 A 
ATOM      8  C   UNL     1       8.499   1.240  -0.664  1.00  0.00     0.004 A 
ATOM      9  C   UNL     1       6.426   0.137  -1.073  1.00  0.00     0.004 A 
ATOM     10  C   UNL     1       9.051   0.454  -1.678  1.00  0.00     0.000 A 
ATOM     11  C   UNL     1       6.974  -0.638  -2.075  1.00  0.00     0.000 A 
ATOM     12  C   UNL     1       8.308  -0.467  -2.372  1.00  0.00     0.000 A 
ENDBRANCH   6   7
ENDBRANCH   1   6
TORSDOF 4
ENDMDL
