@<TRIPOS>MOLECULE
/home/cewinharhar/GITHUB/reincatalyze/data/processed/docking_pred/2023-May-02-0947_maxeplen10_maxtrainstep1000_seadep32_gamma099_lrac9e-4_lrcr1e-3/367438b83e07ec58543242b49c62b5ced391bd04_ligand_2.pdbqt
 12 12 0 0 0
SMALL
GASTEIGER

@<TRIPOS>ATOM
      1  C          5.0220    1.7760    0.6550 C.3     1  UNL1        0.1270
      2  C          4.5710    1.1160    1.9030 C.2     1  UNL1        0.3030
      3  O          3.4480    1.3710    2.4050 O.2     1  UNL1       -0.2520
      4  O          5.3790    0.1970    2.5520 O.3     1  UNL1       -0.4810
      5  H          6.3250    0.0250    2.2000 H       1  UNL1        0.2960
      6  C          6.5180    1.8480    0.6760 C.3     1  UNL1        0.0470
      7  C          7.1660    1.0630   -0.3740 C.2     1  UNL1       -0.0470
      8  C          8.4990    1.2400   -0.6640 C.2     1  UNL1        0.0040
      9  C          6.4260    0.1370   -1.0730 C.2     1  UNL1        0.0040
     10  C          9.0510    0.4540   -1.6780 C.2     1  UNL1        0.0000
     11  C          6.9740   -0.6380   -2.0750 C.2     1  UNL1        0.0000
     12  C          8.3080   -0.4670   -2.3720 C.2     1  UNL1        0.0000
@<TRIPOS>BOND
     1    12    11    2
     2    12    10    1
     3    11     9    1
     4    10     8    2
     5     9     7    2
     6     8     7    1
     7     7     6    1
     8     1     6    1
     9     1     2    1
    10     2     3    2
    11     2     4    1
    12     5     4    1
