@<TRIPOS>MOLECULE
/home/cewinharhar/GITHUB/reincatalyze/data/processed/docking_pred/2023-May-02-0947_maxeplen10_maxtrainstep1000_seadep32_gamma099_lrac9e-4_lrcr1e-3/37a8b72800122466266a4bb22cdda1f56f02b914_ligand_2.pdbqt
 12 12 0 0 0
SMALL
GASTEIGER

@<TRIPOS>ATOM
      1  C          8.4050   -0.6570   -2.0760 C.3     1  UNL1        0.1270
      2  C          8.3750   -1.9040   -2.8760 C.2     1  UNL1        0.3030
      3  O          7.2880   -2.4100   -3.2510 O.2     1  UNL1       -0.2520
      4  O          9.5480   -2.5480   -3.2320 O.3     1  UNL1       -0.4810
      5  H          9.8900   -2.4710   -4.1940 H       1  UNL1        0.2960
      6  C          7.0280   -0.0680   -2.0700 C.3     1  UNL1        0.0470
      7  C          6.4590    0.1000   -0.7340 C.2     1  UNL1       -0.0470
      8  C          5.8050    1.2600   -0.3880 C.2     1  UNL1        0.0040
      9  C          6.5820   -0.9200    0.1810 C.2     1  UNL1        0.0040
     10  C          5.2860    1.3510    0.9050 C.2     1  UNL1        0.0000
     11  C          6.0690   -0.8280    1.4600 C.2     1  UNL1        0.0000
     12  C          5.4130    0.3310    1.8140 C.2     1  UNL1        0.0000
@<TRIPOS>BOND
     1     5     4    1
     2     3     2    2
     3     4     2    1
     4     2     1    1
     5     1     6    1
     6     6     7    1
     7     7     8    2
     8     7     9    1
     9     8    10    1
    10     9    11    2
    11    10    12    2
    12    11    12    1
