@<TRIPOS>MOLECULE
/home/cewinharhar/GITHUB/reincatalyze/data/processed/docking_pred/2023-May-02-0947_maxeplen10_maxtrainstep1000_seadep32_gamma099_lrac9e-4_lrcr1e-3/37a8b72800122466266a4bb22cdda1f56f02b914_ligand_2.pdbqt
 12 12 0 0 0
SMALL
GASTEIGER

@<TRIPOS>ATOM
      1  C          8.4940    0.5950   -1.9690 C.3     1  UNL1        0.1270
      2  C          9.6590   -0.1250   -1.4030 C.2     1  UNL1        0.3030
      3  O          9.7070   -1.3800   -1.3930 O.2     1  UNL1       -0.2520
      4  O         10.7320    0.5700   -0.8660 O.3     1  UNL1       -0.4810
      5  H         11.5300    0.0480   -0.4930 H       1  UNL1        0.2960
      6  C          7.2730   -0.2480   -1.7610 C.3     1  UNL1        0.0470
      7  C          6.5260    0.0770   -0.5470 C.2     1  UNL1       -0.0470
      8  C          5.8520    1.2700   -0.4340 C.2     1  UNL1        0.0040
      9  C          6.5010   -0.8290    0.4880 C.2     1  UNL1        0.0040
     10  C          5.1590    1.5140    0.7540 C.2     1  UNL1        0.0000
     11  C          5.8150   -0.5870    1.6620 C.2     1  UNL1        0.0000
     12  C          5.1380    0.6070    1.7830 C.2     1  UNL1        0.0000
@<TRIPOS>BOND
     1     1     6    1
     2     1     2    1
     3     6     7    1
     4     2     3    2
     5     2     4    1
     6     4     5    1
     7     7     8    2
     8     7     9    1
     9     8    10    1
    10     9    11    2
    11    10    12    2
    12    11    12    1
