@<TRIPOS>MOLECULE
/home/cewinharhar/GITHUB/reincatalyze/data/processed/docking_pred/2023-May-02-0947_maxeplen10_maxtrainstep1000_seadep32_gamma099_lrac9e-4_lrcr1e-3/3b11ad51370e6150fddf32b3aa65dd5e24197163_ligand_2.pdbqt
 12 12 0 0 0
SMALL
GASTEIGER

@<TRIPOS>ATOM
      1  C          8.3980   -0.6490   -2.0620 C.3     1  UNL1        0.1270
      2  C          8.3940   -1.8650   -2.9090 C.2     1  UNL1        0.3030
      3  O          7.3210   -2.4380   -3.2200 O.2     1  UNL1       -0.2520
      4  O          9.5800   -2.4040   -3.3830 O.3     1  UNL1       -0.4810
      5  H         10.1190   -1.8890   -4.0840 H       1  UNL1        0.2960
      6  C          7.0170   -0.0680   -2.0660 C.3     1  UNL1        0.0470
      7  C          6.4450    0.1130   -0.7330 C.2     1  UNL1       -0.0470
      8  C          5.7940    1.2780   -0.3990 C.2     1  UNL1        0.0040
      9  C          6.5610   -0.9000    0.1910 C.2     1  UNL1        0.0040
     10  C          5.2700    1.3810    0.8920 C.2     1  UNL1        0.0000
     11  C          6.0430   -0.7960    1.4670 C.2     1  UNL1        0.0000
     12  C          5.3900    0.3680    1.8090 C.2     1  UNL1        0.0000
@<TRIPOS>BOND
     1     5     4    1
     2     4     2    1
     3     3     2    2
     4     2     1    1
     5     6     1    1
     6     6     7    1
     7     7     8    2
     8     7     9    1
     9     8    10    1
    10     9    11    2
    11    10    12    2
    12    11    12    1
