@<TRIPOS>MOLECULE
/home/cewinharhar/GITHUB/reincatalyze/data/processed/docking_pred/2023-May-02-0947_maxeplen10_maxtrainstep1000_seadep32_gamma099_lrac9e-4_lrcr1e-3/3b11ad51370e6150fddf32b3aa65dd5e24197163_ligand_2.pdbqt
 12 12 0 0 0
SMALL
GASTEIGER

@<TRIPOS>ATOM
      1  C          7.5360   -1.5200   -1.4820 C.3     1  UNL1        0.1270
      2  C          8.1940   -1.8910   -2.7570 C.2     1  UNL1        0.3030
      3  O          9.3690   -1.5300   -3.0120 O.2     1  UNL1       -0.2520
      4  O          7.5270   -2.6480   -3.7060 O.3     1  UNL1       -0.4810
      5  H          7.8830   -3.5770   -3.9470 H       1  UNL1        0.2960
      6  C          7.0380   -0.1120   -1.6010 C.3     1  UNL1        0.0470
      7  C          6.3110    0.3630   -0.4250 C.2     1  UNL1       -0.0470
      8  C          5.6630    1.5770   -0.4410 C.2     1  UNL1        0.0040
      9  C          6.2790   -0.4200    0.7060 C.2     1  UNL1        0.0040
     10  C          4.9880    1.9670    0.7170 C.2     1  UNL1        0.0000
     11  C          5.6110   -0.0320    1.8510 C.2     1  UNL1        0.0000
     12  C          4.9600    1.1820    1.8430 C.2     1  UNL1        0.0000
@<TRIPOS>BOND
     1     5     4    1
     2     4     2    1
     3     3     2    2
     4     2     1    1
     5     6     1    1
     6     6     7    1
     7     8     7    2
     8     8    10    1
     9     7     9    1
    10     9    11    2
    11    10    12    2
    12    12    11    1
