MODEL 1
REMARK VINA RESULT:      -7.1      0.000      0.000
REMARK SMILES O=C(O)CCc1ccccc1
REMARK SMILES IDX 4 1 2 2 1 3 3 4 5 6 6 7 7 8 11 9 8 10 10 11 9 12
REMARK H PARENT 3 5
REMARK Flexibility Score: inf
ROOT
ATOM      1  C   UNL     1       8.398  -0.649  -2.062  1.00  0.00     0.127 C 
ENDROOT
BRANCH   1   2
ATOM      2  C   UNL     1       8.394  -1.865  -2.909  1.00  0.00     0.303 C 
ATOM      3  O   UNL     1       7.321  -2.438  -3.220  1.00  0.00    -0.252 OA
BRANCH   2   4
ATOM      4  O   UNL     1       9.580  -2.404  -3.383  1.00  0.00    -0.481 OA
ATOM      5  H   UNL     1      10.119  -1.889  -4.084  1.00  0.00     0.296 HD
ENDBRANCH   2   4
ENDBRANCH   1   2
BRANCH   1   6
ATOM      6  C   UNL     1       7.017  -0.068  -2.066  1.00  0.00     0.047 C 
BRANCH   6   7
ATOM      7  C   UNL     1       6.445   0.113  -0.733  1.00  0.00    -0.047 A 
ATOM      8  C   UNL     1       5.794   1.278  -0.399  1.00  0.00     0.004 A 
ATOM      9  C   UNL     1       6.561  -0.900   0.191  1.00  0.00     0.004 A 
ATOM     10  C   UNL     1       5.270   1.381   0.892  1.00  0.00     0.000 A 
ATOM     11  C   UNL     1       6.043  -0.796   1.467  1.00  0.00     0.000 A 
ATOM     12  C   UNL     1       5.390   0.368   1.809  1.00  0.00     0.000 A 
ENDBRANCH   6   7
ENDBRANCH   1   6
TORSDOF 4
ENDMDL
