@<TRIPOS>MOLECULE
/home/cewinharhar/GITHUB/reincatalyze/data/processed/docking_pred/2023-May-02-0947_maxeplen10_maxtrainstep1000_seadep32_gamma099_lrac9e-4_lrcr1e-3/3b11ad51370e6150fddf32b3aa65dd5e24197163_ligand_2.pdbqt
 12 12 0 0 0
SMALL
GASTEIGER

@<TRIPOS>ATOM
      1  C          5.0640    1.8210    0.6800 C.3     1  UNL1        0.1270
      2  C          4.6250    1.2030    1.9530 C.2     1  UNL1        0.3030
      3  O          5.2850    0.2790    2.4900 O.2     1  UNL1       -0.2520
      4  O          3.4700    1.6300    2.5880 O.3     1  UNL1       -0.4810
      5  H          2.5660    1.4940    2.1270 H       1  UNL1        0.2960
      6  C          6.5620    1.8610    0.6680 C.3     1  UNL1        0.0470
      7  C          7.1700    1.0620   -0.3950 C.2     1  UNL1       -0.0470
      8  C          6.4130    0.1840   -1.1350 C.2     1  UNL1        0.0040
      9  C          8.5140    1.1990   -0.6530 C.2     1  UNL1        0.0040
     10  C          7.0600   -0.5460   -2.1350 C.2     1  UNL1        0.0000
     11  C          9.1520    0.4770   -1.6410 C.2     1  UNL1        0.0000
     12  C          8.4010   -0.4060   -2.3870 C.2     1  UNL1        0.0000
@<TRIPOS>BOND
     1    12    10    2
     2    12    11    1
     3    10     8    1
     4    11     9    2
     5     8     7    2
     6     9     7    1
     7     7     6    1
     8     6     1    1
     9     1     2    1
    10     2     3    2
    11     2     4    1
    12     5     4    1
