@<TRIPOS>MOLECULE
/home/cewinharhar/GITHUB/reincatalyze/data/processed/docking_pred/2023-May-02-0947_maxeplen10_maxtrainstep1000_seadep32_gamma099_lrac9e-4_lrcr1e-3/3b98b0574a09314ff34419eb6cee054edaec9098_ligand_2.pdbqt
 12 12 0 0 0
SMALL
GASTEIGER

@<TRIPOS>ATOM
      1  C          8.2740    0.2750   -2.2210 C.3     1  UNL1        0.1270
      2  C          9.5180   -0.0060   -1.4670 C.2     1  UNL1        0.3030
      3  O          9.8150   -1.1740   -1.1130 O.2     1  UNL1       -0.2520
      4  O         10.3910    1.0160   -1.1310 O.3     1  UNL1       -0.4810
      5  H         11.1530    0.8290   -0.4730 H       1  UNL1        0.2960
      6  C          7.2010   -0.6430   -1.7170 C.3     1  UNL1        0.0470
      7  C          6.5030   -0.1480   -0.5320 C.2     1  UNL1       -0.0470
      8  C          5.9180    1.0970   -0.5290 C.2     1  UNL1        0.0040
      9  C          6.4340   -0.9440    0.5870 C.2     1  UNL1        0.0040
     10  C          5.2670    1.5050    0.6380 C.2     1  UNL1        0.0000
     11  C          5.7900   -0.5400    1.7400 C.2     1  UNL1        0.0000
     12  C          5.2020    0.7060    1.7520 C.2     1  UNL1        0.0000
@<TRIPOS>BOND
     1     1     6    1
     2     1     2    1
     3     6     7    1
     4     2     4    1
     5     2     3    2
     6     4     5    1
     7     7     8    2
     8     7     9    1
     9     8    10    1
    10     9    11    2
    11    10    12    2
    12    11    12    1
