MODEL 1
REMARK VINA RESULT:      -7.0      0.000      0.000
REMARK SMILES O=C(O)CCc1ccccc1
REMARK SMILES IDX 4 1 2 2 1 3 3 4 5 6 6 7 7 8 11 9 8 10 10 11 9 12
REMARK H PARENT 3 5
REMARK Flexibility Score: inf
ROOT
ATOM      1  C   UNL     1       8.631  -0.693  -2.074  1.00  0.00     0.127 C 
ENDROOT
BRANCH   1   2
ATOM      2  C   UNL     1       8.686  -1.937  -2.878  1.00  0.00     0.303 C 
ATOM      3  O   UNL     1       9.780  -2.495  -3.140  1.00  0.00    -0.252 OA
BRANCH   2   4
ATOM      4  O   UNL     1       7.527  -2.519  -3.365  1.00  0.00    -0.481 OA
ATOM      5  H   UNL     1       7.545  -2.986  -4.275  1.00  0.00     0.296 HD
ENDBRANCH   2   4
ENDBRANCH   1   2
BRANCH   1   6
ATOM      6  C   UNL     1       7.227  -0.171  -2.109  1.00  0.00     0.047 C 
BRANCH   6   7
ATOM      7  C   UNL     1       6.620  -0.011  -0.789  1.00  0.00    -0.047 A 
ATOM      8  C   UNL     1       6.687  -1.020   0.144  1.00  0.00     0.004 A 
ATOM      9  C   UNL     1       5.978   1.167  -0.484  1.00  0.00     0.004 A 
ATOM     10  C   UNL     1       6.085  -0.798   1.384  1.00  0.00     0.000 A 
ATOM     11  C   UNL     1       5.383   1.385   0.743  1.00  0.00     0.000 A 
ATOM     12  C   UNL     1       5.445   0.379   1.683  1.00  0.00     0.000 A 
ENDBRANCH   6   7
ENDBRANCH   1   6
TORSDOF 4
ENDMDL
MODEL 2
REMARK VINA RESULT:      -6.6      1.553      2.382
REMARK SMILES O=C(O)CCc1ccccc1
REMARK SMILES IDX 4 1 2 2 1 3 3 4 5 6 6 7 7 8 11 9 8 10 10 11 9 12
REMARK H PARENT 3 5
REMARK Flexibility Score: inf
ROOT
ATOM      1  C   UNL     1       8.274   0.275  -2.221  1.00  0.00     0.127 C 
ENDROOT
BRANCH   1   2
ATOM      2  C   UNL     1       9.518  -0.006  -1.467  1.00  0.00     0.303 C 
ATOM      3  O   UNL     1       9.815  -1.174  -1.113  1.00  0.00    -0.252 OA
BRANCH   2   4
ATOM      4  O   UNL     1      10.391   1.016  -1.131  1.00  0.00    -0.481 OA
ATOM      5  H   UNL     1      11.153   0.829  -0.473  1.00  0.00     0.296 HD
ENDBRANCH   2   4
ENDBRANCH   1   2
BRANCH   1   6
ATOM      6  C   UNL     1       7.201  -0.643  -1.717  1.00  0.00     0.047 C 
BRANCH   6   7
ATOM      7  C   UNL     1       6.503  -0.148  -0.532  1.00  0.00    -0.047 A 
ATOM      8  C   UNL     1       5.918   1.097  -0.529  1.00  0.00     0.004 A 
ATOM      9  C   UNL     1       6.434  -0.944   0.587  1.00  0.00     0.004 A 
ATOM     10  C   UNL     1       5.267   1.505   0.638  1.00  0.00     0.000 A 
ATOM     11  C   UNL     1       5.790  -0.540   1.740  1.00  0.00     0.000 A 
ATOM     12  C   UNL     1       5.202   0.706   1.752  1.00  0.00     0.000 A 
ENDBRANCH   6   7
ENDBRANCH   1   6
TORSDOF 4
ENDMDL
