@<TRIPOS>MOLECULE
/home/cewinharhar/GITHUB/reincatalyze/data/processed/docking_pred/2023-May-02-0947_maxeplen10_maxtrainstep1000_seadep32_gamma099_lrac9e-4_lrcr1e-3/3b98b0574a09314ff34419eb6cee054edaec9098_ligand_2.pdbqt
 12 12 0 0 0
SMALL
GASTEIGER

@<TRIPOS>ATOM
      1  C          8.6310   -0.6930   -2.0740 C.3     1  UNL1        0.1270
      2  C          8.6860   -1.9370   -2.8780 C.2     1  UNL1        0.3030
      3  O          9.7800   -2.4950   -3.1400 O.2     1  UNL1       -0.2520
      4  O          7.5270   -2.5190   -3.3650 O.3     1  UNL1       -0.4810
      5  H          7.5450   -2.9860   -4.2750 H       1  UNL1        0.2960
      6  C          7.2270   -0.1710   -2.1090 C.3     1  UNL1        0.0470
      7  C          6.6200   -0.0110   -0.7890 C.2     1  UNL1       -0.0470
      8  C          6.6870   -1.0200    0.1440 C.2     1  UNL1        0.0040
      9  C          5.9780    1.1670   -0.4840 C.2     1  UNL1        0.0040
     10  C          6.0850   -0.7980    1.3840 C.2     1  UNL1        0.0000
     11  C          5.3830    1.3850    0.7430 C.2     1  UNL1        0.0000
     12  C          5.4450    0.3790    1.6830 C.2     1  UNL1        0.0000
@<TRIPOS>BOND
     1     5     4    1
     2     4     2    1
     3     3     2    2
     4     2     1    1
     5     6     1    1
     6     6     7    1
     7     7     9    2
     8     7     8    1
     9     9    11    1
    10     8    10    2
    11    11    12    2
    12    10    12    1
