MODEL 1
REMARK VINA RESULT:      -7.3      0.000      0.000
REMARK SMILES O=C(O)CCc1ccccc1
REMARK SMILES IDX 4 1 2 2 1 3 3 4 5 6 6 7 7 8 11 9 8 10 10 11 9 12
REMARK H PARENT 3 5
REMARK Flexibility Score: inf
ROOT
ATOM      1  C   UNL     1       8.404  -0.655  -2.081  1.00  0.00     0.127 C 
ENDROOT
BRANCH   1   2
ATOM      2  C   UNL     1       8.378  -1.901  -2.881  1.00  0.00     0.303 C 
ATOM      3  O   UNL     1       7.293  -2.423  -3.239  1.00  0.00    -0.252 OA
BRANCH   2   4
ATOM      4  O   UNL     1       9.555  -2.528  -3.258  1.00  0.00    -0.481 OA
ATOM      5  H   UNL     1       9.879  -2.445  -4.226  1.00  0.00     0.296 HD
ENDBRANCH   2   4
ENDBRANCH   1   2
BRANCH   1   6
ATOM      6  C   UNL     1       7.026  -0.066  -2.082  1.00  0.00     0.047 C 
BRANCH   6   7
ATOM      7  C   UNL     1       6.450   0.102  -0.748  1.00  0.00    -0.047 A 
ATOM      8  C   UNL     1       5.797   1.262  -0.405  1.00  0.00     0.004 A 
ATOM      9  C   UNL     1       6.567  -0.919   0.166  1.00  0.00     0.004 A 
ATOM     10  C   UNL     1       5.270   1.353   0.885  1.00  0.00     0.000 A 
ATOM     11  C   UNL     1       6.046  -0.828   1.442  1.00  0.00     0.000 A 
ATOM     12  C   UNL     1       5.390   0.331   1.794  1.00  0.00     0.000 A 
ENDBRANCH   6   7
ENDBRANCH   1   6
TORSDOF 4
ENDMDL
