@<TRIPOS>MOLECULE
/home/cewinharhar/GITHUB/reincatalyze/data/processed/docking_pred/2023-May-02-0947_maxeplen10_maxtrainstep1000_seadep32_gamma099_lrac9e-4_lrcr1e-3/3bf4b9a3f06cfa5433c2fd34b58c3faf64c233d9_ligand_2.pdbqt
 12 12 0 0 0
SMALL
GASTEIGER

@<TRIPOS>ATOM
      1  C          8.4040   -0.6550   -2.0810 C.3     1  UNL1        0.1270
      2  C          8.3780   -1.9010   -2.8810 C.2     1  UNL1        0.3030
      3  O          7.2930   -2.4230   -3.2390 O.2     1  UNL1       -0.2520
      4  O          9.5550   -2.5280   -3.2580 O.3     1  UNL1       -0.4810
      5  H          9.8790   -2.4450   -4.2260 H       1  UNL1        0.2960
      6  C          7.0260   -0.0660   -2.0820 C.3     1  UNL1        0.0470
      7  C          6.4500    0.1020   -0.7480 C.2     1  UNL1       -0.0470
      8  C          5.7970    1.2620   -0.4050 C.2     1  UNL1        0.0040
      9  C          6.5670   -0.9190    0.1660 C.2     1  UNL1        0.0040
     10  C          5.2700    1.3530    0.8850 C.2     1  UNL1        0.0000
     11  C          6.0460   -0.8280    1.4420 C.2     1  UNL1        0.0000
     12  C          5.3900    0.3310    1.7940 C.2     1  UNL1        0.0000
@<TRIPOS>BOND
     1     5     4    1
     2     4     2    1
     3     3     2    2
     4     2     1    1
     5     6     1    1
     6     6     7    1
     7     7     8    2
     8     7     9    1
     9     8    10    1
    10     9    11    2
    11    10    12    2
    12    11    12    1
