@<TRIPOS>MOLECULE
/home/cewinharhar/GITHUB/reincatalyze/data/processed/docking_pred/2023-May-02-0947_maxeplen10_maxtrainstep1000_seadep32_gamma099_lrac9e-4_lrcr1e-3/3c93f0ab1d0179ecce707f4524a6ff468bff7290_ligand_2.pdbqt
 12 12 0 0 0
SMALL
GASTEIGER

@<TRIPOS>ATOM
      1  C          7.2510   -1.2430   -2.1800 C.3     1  UNL1        0.1270
      2  C          8.6900   -1.3050   -2.5310 C.2     1  UNL1        0.3030
      3  O          9.5000   -0.4430   -2.1080 O.2     1  UNL1       -0.2520
      4  O          9.1810   -2.3180   -3.3380 O.3     1  UNL1       -0.4810
      5  H         10.1600   -2.6020   -3.2460 H       1  UNL1        0.2960
      6  C          7.1270   -1.3220   -0.6890 C.3     1  UNL1        0.0470
      7  C          6.3750   -0.2180   -0.0950 C.2     1  UNL1       -0.0470
      8  C          5.9430   -0.2820    1.2090 C.2     1  UNL1        0.0040
      9  C          6.1030    0.8950   -0.8570 C.2     1  UNL1        0.0040
     10  C          5.2300    0.8100    1.7100 C.2     1  UNL1        0.0000
     11  C          5.3990    1.9740   -0.3600 C.2     1  UNL1        0.0000
     12  C          4.9610    1.9170    0.9450 C.2     1  UNL1        0.0000
@<TRIPOS>BOND
     1     4     5    1
     2     4     2    1
     3     2     1    1
     4     2     3    2
     5     1     6    1
     6     9    11    1
     7     9     7    2
     8     6     7    1
     9    11    12    2
    10     7     8    1
    11    12    10    1
    12     8    10    2
