@<TRIPOS>MOLECULE
/home/cewinharhar/GITHUB/reincatalyze/data/processed/docking_pred/2023-May-02-0947_maxeplen10_maxtrainstep1000_seadep32_gamma099_lrac9e-4_lrcr1e-3/3e742204aaadd08b2af2eabe2bac092cf241077d_ligand_2.pdbqt
 12 12 0 0 0
SMALL
GASTEIGER

@<TRIPOS>ATOM
      1  C          8.4000   -0.6480   -2.0870 C.3     1  UNL1        0.1270
      2  C          8.3720   -1.8990   -2.8810 C.2     1  UNL1        0.3030
      3  O          7.2860   -2.4110   -3.2500 O.2     1  UNL1       -0.2520
      4  O          9.5470   -2.5410   -3.2380 O.3     1  UNL1       -0.4810
      5  H          9.5660   -3.5630   -3.2830 H       1  UNL1        0.2960
      6  C          7.0200   -0.0650   -2.0770 C.3     1  UNL1        0.0470
      7  C          6.4550    0.1010   -0.7390 C.2     1  UNL1       -0.0470
      8  C          5.8000    1.2600   -0.3920 C.2     1  UNL1        0.0040
      9  C          6.5810   -0.9190    0.1750 C.2     1  UNL1        0.0040
     10  C          5.2840    1.3490    0.9030 C.2     1  UNL1        0.0000
     11  C          6.0710   -0.8290    1.4540 C.2     1  UNL1        0.0000
     12  C          5.4140    0.3290    1.8110 C.2     1  UNL1        0.0000
@<TRIPOS>BOND
     1     5     4    1
     2     3     2    2
     3     4     2    1
     4     2     1    1
     5     1     6    1
     6     6     7    1
     7     7     8    2
     8     7     9    1
     9     8    10    1
    10     9    11    2
    11    10    12    2
    12    11    12    1
