MODEL 1
REMARK VINA RESULT:      -7.3      0.000      0.000
REMARK SMILES O=C(O)CCc1ccccc1
REMARK SMILES IDX 4 1 2 2 1 3 3 4 5 6 6 7 7 8 11 9 8 10 10 11 9 12
REMARK H PARENT 3 5
REMARK Flexibility Score: inf
ROOT
ATOM      1  C   UNL     1       8.400  -0.646  -2.089  1.00  0.00     0.127 C 
ENDROOT
BRANCH   1   2
ATOM      2  C   UNL     1       8.370  -1.898  -2.880  1.00  0.00     0.303 C 
ATOM      3  O   UNL     1       7.284  -2.410  -3.249  1.00  0.00    -0.252 OA
BRANCH   2   4
ATOM      4  O   UNL     1       9.545  -2.542  -3.234  1.00  0.00    -0.481 OA
ATOM      5  H   UNL     1      10.271  -2.021  -3.734  1.00  0.00     0.296 HD
ENDBRANCH   2   4
ENDBRANCH   1   2
BRANCH   1   6
ATOM      6  C   UNL     1       7.019  -0.064  -2.078  1.00  0.00     0.047 C 
BRANCH   6   7
ATOM      7  C   UNL     1       6.454   0.102  -0.740  1.00  0.00    -0.047 A 
ATOM      8  C   UNL     1       5.800   1.261  -0.391  1.00  0.00     0.004 A 
ATOM      9  C   UNL     1       6.582  -0.918   0.174  1.00  0.00     0.004 A 
ATOM     10  C   UNL     1       5.284   1.349   0.904  1.00  0.00     0.000 A 
ATOM     11  C   UNL     1       6.073  -0.829   1.454  1.00  0.00     0.000 A 
ATOM     12  C   UNL     1       5.416   0.329   1.811  1.00  0.00     0.000 A 
ENDBRANCH   6   7
ENDBRANCH   1   6
TORSDOF 4
ENDMDL
