@<TRIPOS>MOLECULE
/home/cewinharhar/GITHUB/reincatalyze/data/processed/docking_pred/2023-May-02-0947_maxeplen10_maxtrainstep1000_seadep32_gamma099_lrac9e-4_lrcr1e-3/3ef00b253c4480de2280c2f95d83164b82996574_ligand_2.pdbqt
 12 12 0 0 0
SMALL
GASTEIGER

@<TRIPOS>ATOM
      1  C          8.4000   -0.6460   -2.0890 C.3     1  UNL1        0.1270
      2  C          8.3700   -1.8980   -2.8800 C.2     1  UNL1        0.3030
      3  O          7.2840   -2.4100   -3.2490 O.2     1  UNL1       -0.2520
      4  O          9.5450   -2.5420   -3.2340 O.3     1  UNL1       -0.4810
      5  H         10.2710   -2.0210   -3.7340 H       1  UNL1        0.2960
      6  C          7.0190   -0.0640   -2.0780 C.3     1  UNL1        0.0470
      7  C          6.4540    0.1020   -0.7400 C.2     1  UNL1       -0.0470
      8  C          5.8000    1.2610   -0.3910 C.2     1  UNL1        0.0040
      9  C          6.5820   -0.9180    0.1740 C.2     1  UNL1        0.0040
     10  C          5.2840    1.3490    0.9040 C.2     1  UNL1        0.0000
     11  C          6.0730   -0.8290    1.4540 C.2     1  UNL1        0.0000
     12  C          5.4160    0.3290    1.8110 C.2     1  UNL1        0.0000
@<TRIPOS>BOND
     1     5     4    1
     2     3     2    2
     3     4     2    1
     4     2     1    1
     5     1     6    1
     6     6     7    1
     7     7     8    2
     8     7     9    1
     9     8    10    1
    10     9    11    2
    11    10    12    2
    12    11    12    1
