@<TRIPOS>MOLECULE
/home/cewinharhar/GITHUB/reincatalyze/data/processed/docking_pred/2023-May-02-0947_maxeplen10_maxtrainstep1000_seadep32_gamma099_lrac9e-4_lrcr1e-3/404021d27c656f8fbd9408a440432f577c9906d0_ligand_2.pdbqt
 12 12 0 0 0
SMALL
GASTEIGER

@<TRIPOS>ATOM
      1  C          8.4490   -0.6020   -2.1750 C.3     1  UNL1        0.1270
      2  C          8.4830   -1.8860   -2.9150 C.2     1  UNL1        0.3030
      3  O          9.5630   -2.4990   -3.1060 O.2     1  UNL1       -0.2520
      4  O          7.3200   -2.4460   -3.4190 O.3     1  UNL1       -0.4810
      5  H          6.8480   -3.1820   -2.8870 H       1  UNL1        0.2960
      6  C          7.0200   -0.1740   -2.0400 C.3     1  UNL1        0.0470
      7  C          6.5420   -0.1250   -0.6600 C.2     1  UNL1       -0.0470
      8  C          5.8830    0.9850   -0.1830 C.2     1  UNL1        0.0040
      9  C          6.7560   -1.2050    0.1640 C.2     1  UNL1        0.0040
     10  C          5.4530    0.9630    1.1460 C.2     1  UNL1        0.0000
     11  C          6.3310   -1.2250    1.4780 C.2     1  UNL1        0.0000
     12  C          5.6710   -0.1180    1.9630 C.2     1  UNL1        0.0000
@<TRIPOS>BOND
     1     4     2    1
     2     4     5    1
     3     3     2    2
     4     2     1    1
     5     1     6    1
     6     6     7    1
     7     7     8    2
     8     7     9    1
     9     8    10    1
    10     9    11    2
    11    10    12    2
    12    11    12    1
