MODEL 1
REMARK VINA RESULT:      -7.3      0.000      0.000
REMARK SMILES O=C(O)CCc1ccccc1
REMARK SMILES IDX 4 1 2 2 1 3 3 4 5 6 6 7 7 8 11 9 8 10 10 11 9 12
REMARK H PARENT 3 5
REMARK Flexibility Score: inf
ROOT
ATOM      1  C   UNL     1       8.449  -0.602  -2.175  1.00  0.00     0.127 C 
ENDROOT
BRANCH   1   2
ATOM      2  C   UNL     1       8.483  -1.886  -2.915  1.00  0.00     0.303 C 
ATOM      3  O   UNL     1       9.563  -2.499  -3.106  1.00  0.00    -0.252 OA
BRANCH   2   4
ATOM      4  O   UNL     1       7.320  -2.446  -3.419  1.00  0.00    -0.481 OA
ATOM      5  H   UNL     1       6.848  -3.182  -2.887  1.00  0.00     0.296 HD
ENDBRANCH   2   4
ENDBRANCH   1   2
BRANCH   1   6
ATOM      6  C   UNL     1       7.020  -0.174  -2.040  1.00  0.00     0.047 C 
BRANCH   6   7
ATOM      7  C   UNL     1       6.542  -0.125  -0.660  1.00  0.00    -0.047 A 
ATOM      8  C   UNL     1       5.883   0.985  -0.183  1.00  0.00     0.004 A 
ATOM      9  C   UNL     1       6.756  -1.205   0.164  1.00  0.00     0.004 A 
ATOM     10  C   UNL     1       5.453   0.963   1.146  1.00  0.00     0.000 A 
ATOM     11  C   UNL     1       6.331  -1.225   1.478  1.00  0.00     0.000 A 
ATOM     12  C   UNL     1       5.671  -0.118   1.963  1.00  0.00     0.000 A 
ENDBRANCH   6   7
ENDBRANCH   1   6
TORSDOF 4
ENDMDL
