@<TRIPOS>MOLECULE
/home/cewinharhar/GITHUB/reincatalyze/data/processed/docking_pred/2023-May-02-0947_maxeplen10_maxtrainstep1000_seadep32_gamma099_lrac9e-4_lrcr1e-3/41d0b72e0d67d5e9a3b384f9954b5fa92cfe5642_ligand_2.pdbqt
 12 12 0 0 0
SMALL
GASTEIGER

@<TRIPOS>ATOM
      1  C          8.2990   -0.5120   -2.3070 C.3     1  UNL1        0.1270
      2  C          8.4020   -1.8440   -2.9480 C.2     1  UNL1        0.3030
      3  O          9.5090   -2.4240   -3.0700 O.2     1  UNL1       -0.2520
      4  O          7.2740   -2.4880   -3.4330 O.3     1  UNL1       -0.4810
      5  H          7.0360   -3.4170   -3.0750 H       1  UNL1        0.2960
      6  C          7.0010   -0.4480   -1.5600 C.3     1  UNL1        0.0470
      7  C          6.8330    0.7650   -0.7620 C.2     1  UNL1       -0.0470
      8  C          7.9070    1.3390   -0.1220 C.2     1  UNL1        0.0040
      9  C          5.5850    1.3320   -0.6570 C.2     1  UNL1        0.0040
     10  C          7.6740    2.4980    0.6220 C.2     1  UNL1        0.0000
     11  C          5.3560    2.4770    0.0800 C.2     1  UNL1        0.0000
     12  C          6.4260    3.0590    0.7250 C.2     1  UNL1        0.0000
@<TRIPOS>BOND
     1     4     5    1
     2     4     2    1
     3     3     2    2
     4     2     1    1
     5     1     6    1
     6     6     7    1
     7     7     9    2
     8     7     8    1
     9     9    11    1
    10     8    10    2
    11    11    12    2
    12    10    12    1
