MODEL 1
REMARK VINA RESULT:      -7.3      0.000      0.000
REMARK SMILES O=C(O)CCc1ccccc1
REMARK SMILES IDX 4 1 2 2 1 3 3 4 5 6 6 7 7 8 11 9 8 10 10 11 9 12
REMARK H PARENT 3 5
REMARK Flexibility Score: inf
ROOT
ATOM      1  C   UNL     1       8.407  -0.658  -2.067  1.00  0.00     0.127 C 
ENDROOT
BRANCH   1   2
ATOM      2  C   UNL     1       8.378  -1.899  -2.878  1.00  0.00     0.303 C 
ATOM      3  O   UNL     1       7.291  -2.413  -3.241  1.00  0.00    -0.252 OA
BRANCH   2   4
ATOM      4  O   UNL     1       9.553  -2.527  -3.257  1.00  0.00    -0.481 OA
ATOM      5  H   UNL     1      10.345  -2.541  -2.609  1.00  0.00     0.296 HD
ENDBRANCH   2   4
ENDBRANCH   1   2
BRANCH   1   6
ATOM      6  C   UNL     1       7.032  -0.062  -2.068  1.00  0.00     0.047 C 
BRANCH   6   7
ATOM      7  C   UNL     1       6.459   0.112  -0.735  1.00  0.00    -0.047 A 
ATOM      8  C   UNL     1       5.807   1.275  -0.396  1.00  0.00     0.004 A 
ATOM      9  C   UNL     1       6.575  -0.906   0.184  1.00  0.00     0.004 A 
ATOM     10  C   UNL     1       5.283   1.372   0.895  1.00  0.00     0.000 A 
ATOM     11  C   UNL     1       6.056  -0.808   1.460  1.00  0.00     0.000 A 
ATOM     12  C   UNL     1       5.403   0.354   1.807  1.00  0.00     0.000 A 
ENDBRANCH   6   7
ENDBRANCH   1   6
TORSDOF 4
ENDMDL
