@<TRIPOS>MOLECULE
/home/cewinharhar/GITHUB/reincatalyze/data/processed/docking_pred/2023-May-02-0947_maxeplen10_maxtrainstep1000_seadep32_gamma099_lrac9e-4_lrcr1e-3/4295960a5818388fac6ce93a10a8a6662c8ec52f_ligand_2.pdbqt
 12 12 0 0 0
SMALL
GASTEIGER

@<TRIPOS>ATOM
      1  C          7.2730   -1.2740   -2.1440 C.3     1  UNL1        0.1270
      2  C          8.7110   -1.3370   -2.4980 C.2     1  UNL1        0.3030
      3  O          9.5220   -0.4750   -2.0810 O.2     1  UNL1       -0.2520
      4  O          9.1990   -2.3540   -3.3020 O.3     1  UNL1       -0.4810
      5  H          9.5290   -2.1320   -4.2460 H       1  UNL1        0.2960
      6  C          7.1520   -1.3500   -0.6530 C.3     1  UNL1        0.0470
      7  C          6.3820   -0.2560   -0.0620 C.2     1  UNL1       -0.0470
      8  C          5.9130   -0.3420    1.2280 C.2     1  UNL1        0.0040
      9  C          6.1310    0.8700   -0.8120 C.2     1  UNL1        0.0040
     10  C          5.1860    0.7410    1.7270 C.2     1  UNL1        0.0000
     11  C          5.4120    1.9400   -0.3170 C.2     1  UNL1        0.0000
     12  C          4.9380    1.8610    0.9740 C.2     1  UNL1        0.0000
@<TRIPOS>BOND
     1     5     4    1
     2     4     2    1
     3     2     1    1
     4     2     3    2
     5     1     6    1
     6     9    11    1
     7     9     7    2
     8     6     7    1
     9    11    12    2
    10     7     8    1
    11    12    10    1
    12     8    10    2
