@<TRIPOS>MOLECULE
/home/cewinharhar/GITHUB/reincatalyze/data/processed/docking_pred/2023-May-02-0947_maxeplen10_maxtrainstep1000_seadep32_gamma099_lrac9e-4_lrcr1e-3/4295960a5818388fac6ce93a10a8a6662c8ec52f_ligand_2.pdbqt
 12 12 0 0 0
SMALL
GASTEIGER

@<TRIPOS>ATOM
      1  C          8.4070   -0.6580   -2.0670 C.3     1  UNL1        0.1270
      2  C          8.3780   -1.8990   -2.8780 C.2     1  UNL1        0.3030
      3  O          7.2910   -2.4130   -3.2410 O.2     1  UNL1       -0.2520
      4  O          9.5530   -2.5270   -3.2570 O.3     1  UNL1       -0.4810
      5  H         10.3450   -2.5410   -2.6090 H       1  UNL1        0.2960
      6  C          7.0320   -0.0620   -2.0680 C.3     1  UNL1        0.0470
      7  C          6.4590    0.1120   -0.7350 C.2     1  UNL1       -0.0470
      8  C          5.8070    1.2750   -0.3960 C.2     1  UNL1        0.0040
      9  C          6.5750   -0.9060    0.1840 C.2     1  UNL1        0.0040
     10  C          5.2830    1.3720    0.8950 C.2     1  UNL1        0.0000
     11  C          6.0560   -0.8080    1.4600 C.2     1  UNL1        0.0000
     12  C          5.4030    0.3540    1.8070 C.2     1  UNL1        0.0000
@<TRIPOS>BOND
     1     4     2    1
     2     4     5    1
     3     3     2    2
     4     2     1    1
     5     6     1    1
     6     6     7    1
     7     7     8    2
     8     7     9    1
     9     8    10    1
    10     9    11    2
    11    10    12    2
    12    11    12    1
