@<TRIPOS>MOLECULE
/home/cewinharhar/GITHUB/reincatalyze/data/processed/docking_pred/2023-May-02-0947_maxeplen10_maxtrainstep1000_seadep32_gamma099_lrac9e-4_lrcr1e-3/437598aa9d4ddbb457dda5082e5f4820e6dbe55d_ligand_2.pdbqt
 12 12 0 0 0
SMALL
GASTEIGER

@<TRIPOS>ATOM
      1  C          7.2540   -1.2500   -2.1740 C.3     1  UNL1        0.1270
      2  C          8.6940   -1.3090   -2.5190 C.2     1  UNL1        0.3030
      3  O          9.5030   -0.4510   -2.0850 O.2     1  UNL1       -0.2520
      4  O          9.1890   -2.3140   -3.3340 O.3     1  UNL1       -0.4810
      5  H          9.1650   -2.1930   -4.3500 H       1  UNL1        0.2960
      6  C          7.1220   -1.3570   -0.6850 C.3     1  UNL1        0.0470
      7  C          6.3670   -0.2640   -0.0750 C.2     1  UNL1       -0.0470
      8  C          5.9230   -0.3540    1.2240 C.2     1  UNL1        0.0040
      9  C          6.1050    0.8660   -0.8160 C.2     1  UNL1        0.0040
     10  C          5.2100    0.7290    1.7420 C.2     1  UNL1        0.0000
     11  C          5.3990    1.9350   -0.3020 C.2     1  UNL1        0.0000
     12  C          4.9500    1.8520    0.9980 C.2     1  UNL1        0.0000
@<TRIPOS>BOND
     1     5     4    1
     2     4     2    1
     3     2     1    1
     4     2     3    2
     5     1     6    1
     6     9    11    1
     7     9     7    2
     8     6     7    1
     9    11    12    2
    10     7     8    1
    11    12    10    1
    12     8    10    2
