MODEL 1
REMARK VINA RESULT:      -7.3      0.000      0.000
REMARK SMILES O=C(O)CCc1ccccc1
REMARK SMILES IDX 4 1 2 2 1 3 3 4 5 6 6 7 7 8 11 9 8 10 10 11 9 12
REMARK H PARENT 3 5
REMARK Flexibility Score: inf
ROOT
ATOM      1  C   UNL     1       8.401  -0.650  -2.084  1.00  0.00     0.127 C 
ENDROOT
BRANCH   1   2
ATOM      2  C   UNL     1       8.370  -1.899  -2.880  1.00  0.00     0.303 C 
ATOM      3  O   UNL     1       7.284  -2.410  -3.248  1.00  0.00    -0.252 OA
BRANCH   2   4
ATOM      4  O   UNL     1       9.545  -2.540  -3.241  1.00  0.00    -0.481 OA
ATOM      5  H   UNL     1       9.912  -3.286  -2.644  1.00  0.00     0.296 HD
ENDBRANCH   2   4
ENDBRANCH   1   2
BRANCH   1   6
ATOM      6  C   UNL     1       7.022  -0.063  -2.075  1.00  0.00     0.047 C 
BRANCH   6   7
ATOM      7  C   UNL     1       6.455   0.102  -0.738  1.00  0.00    -0.047 A 
ATOM      8  C   UNL     1       5.801   1.261  -0.389  1.00  0.00     0.004 A 
ATOM      9  C   UNL     1       6.579  -0.920   0.175  1.00  0.00     0.004 A 
ATOM     10  C   UNL     1       5.283   1.349   0.905  1.00  0.00     0.000 A 
ATOM     11  C   UNL     1       6.067  -0.831   1.454  1.00  0.00     0.000 A 
ATOM     12  C   UNL     1       5.411   0.327   1.811  1.00  0.00     0.000 A 
ENDBRANCH   6   7
ENDBRANCH   1   6
TORSDOF 4
ENDMDL
MODEL 2
REMARK VINA RESULT:      -7.0      1.029      1.951
REMARK SMILES O=C(O)CCc1ccccc1
REMARK SMILES IDX 4 1 2 2 1 3 3 4 5 6 6 7 7 8 11 9 8 10 10 11 9 12
REMARK H PARENT 3 5
REMARK Flexibility Score: inf
ROOT
ATOM      1  C   UNL     1       7.254  -1.250  -2.174  1.00  0.00     0.127 C 
ENDROOT
BRANCH   1   2
ATOM      2  C   UNL     1       8.694  -1.309  -2.519  1.00  0.00     0.303 C 
ATOM      3  O   UNL     1       9.503  -0.451  -2.085  1.00  0.00    -0.252 OA
BRANCH   2   4
ATOM      4  O   UNL     1       9.189  -2.314  -3.334  1.00  0.00    -0.481 OA
ATOM      5  H   UNL     1       9.165  -2.193  -4.350  1.00  0.00     0.296 HD
ENDBRANCH   2   4
ENDBRANCH   1   2
BRANCH   1   6
ATOM      6  C   UNL     1       7.122  -1.357  -0.685  1.00  0.00     0.047 C 
BRANCH   6   7
ATOM      7  C   UNL     1       6.367  -0.264  -0.075  1.00  0.00    -0.047 A 
ATOM      8  C   UNL     1       5.923  -0.354   1.224  1.00  0.00     0.004 A 
ATOM      9  C   UNL     1       6.105   0.866  -0.816  1.00  0.00     0.004 A 
ATOM     10  C   UNL     1       5.210   0.729   1.742  1.00  0.00     0.000 A 
ATOM     11  C   UNL     1       5.399   1.935  -0.302  1.00  0.00     0.000 A 
ATOM     12  C   UNL     1       4.950   1.852   0.998  1.00  0.00     0.000 A 
ENDBRANCH   6   7
ENDBRANCH   1   6
TORSDOF 4
ENDMDL
