@<TRIPOS>MOLECULE
/home/cewinharhar/GITHUB/reincatalyze/data/processed/docking_pred/2023-May-02-0947_maxeplen10_maxtrainstep1000_seadep32_gamma099_lrac9e-4_lrcr1e-3/43f74fb3996e866f8c2ebaeff785616509de483e_ligand_2.pdbqt
 12 12 0 0 0
SMALL
GASTEIGER

@<TRIPOS>ATOM
      1  C          8.4010   -0.6540   -2.0780 C.3     1  UNL1        0.1270
      2  C          8.3670   -1.9020   -2.8770 C.2     1  UNL1        0.3030
      3  O          7.2800   -2.4030   -3.2560 O.2     1  UNL1       -0.2520
      4  O          9.5390   -2.5540   -3.2270 O.3     1  UNL1       -0.4810
      5  H         10.1170   -2.1740   -3.9820 H       1  UNL1        0.2960
      6  C          7.0250   -0.0630   -2.0700 C.3     1  UNL1        0.0470
      7  C          6.4580    0.1070   -0.7340 C.2     1  UNL1       -0.0470
      8  C          5.7950    1.2620   -0.3920 C.2     1  UNL1        0.0040
      9  C          6.5930   -0.9080    0.1860 C.2     1  UNL1        0.0040
     10  C          5.2790    1.3550    0.9020 C.2     1  UNL1        0.0000
     11  C          6.0820   -0.8140    1.4650 C.2     1  UNL1        0.0000
     12  C          5.4160    0.3400    1.8160 C.2     1  UNL1        0.0000
@<TRIPOS>BOND
     1     5     4    1
     2     3     2    2
     3     4     2    1
     4     2     1    1
     5     1     6    1
     6     6     7    1
     7     7     8    2
     8     7     9    1
     9     8    10    1
    10     9    11    2
    11    10    12    2
    12    11    12    1
