@<TRIPOS>MOLECULE
/home/cewinharhar/GITHUB/reincatalyze/data/processed/docking_pred/2023-May-02-0947_maxeplen10_maxtrainstep1000_seadep32_gamma099_lrac9e-4_lrcr1e-3/43f74fb3996e866f8c2ebaeff785616509de483e_ligand_2.pdbqt
 12 12 0 0 0
SMALL
GASTEIGER

@<TRIPOS>ATOM
      1  C          8.2840   -0.4940   -2.3200 C.3     1  UNL1        0.1270
      2  C          8.3880   -1.8300   -2.9550 C.2     1  UNL1        0.3030
      3  O          9.4960   -2.4100   -3.0720 O.2     1  UNL1       -0.2520
      4  O          7.2620   -2.4760   -3.4380 O.3     1  UNL1       -0.4810
      5  H          7.1670   -3.4860   -3.3010 H       1  UNL1        0.2960
      6  C          6.9900   -0.4310   -1.5670 C.3     1  UNL1        0.0470
      7  C          6.8260    0.7820   -0.7680 C.2     1  UNL1       -0.0470
      8  C          7.9050    1.3610   -0.1400 C.2     1  UNL1        0.0040
      9  C          5.5770    1.3450   -0.6500 C.2     1  UNL1        0.0040
     10  C          7.6750    2.5190    0.6060 C.2     1  UNL1        0.0000
     11  C          5.3510    2.4900    0.0880 C.2     1  UNL1        0.0000
     12  C          6.4260    3.0760    0.7210 C.2     1  UNL1        0.0000
@<TRIPOS>BOND
     1     4     5    1
     2     4     2    1
     3     3     2    2
     4     2     1    1
     5     1     6    1
     6     6     7    1
     7     7     9    2
     8     7     8    1
     9     9    11    1
    10     8    10    2
    11    11    12    2
    12    10    12    1
