MODEL 1
REMARK VINA RESULT:      -7.3      0.000      0.000
REMARK SMILES O=C(O)CCc1ccccc1
REMARK SMILES IDX 4 1 2 2 1 3 3 4 5 6 6 7 7 8 11 9 8 10 10 11 9 12
REMARK H PARENT 3 5
REMARK Flexibility Score: inf
ROOT
ATOM      1  C   UNL     1       8.401  -0.654  -2.078  1.00  0.00     0.127 C 
ENDROOT
BRANCH   1   2
ATOM      2  C   UNL     1       8.367  -1.902  -2.877  1.00  0.00     0.303 C 
ATOM      3  O   UNL     1       7.280  -2.403  -3.256  1.00  0.00    -0.252 OA
BRANCH   2   4
ATOM      4  O   UNL     1       9.539  -2.554  -3.227  1.00  0.00    -0.481 OA
ATOM      5  H   UNL     1      10.117  -2.174  -3.982  1.00  0.00     0.296 HD
ENDBRANCH   2   4
ENDBRANCH   1   2
BRANCH   1   6
ATOM      6  C   UNL     1       7.025  -0.063  -2.070  1.00  0.00     0.047 C 
BRANCH   6   7
ATOM      7  C   UNL     1       6.458   0.107  -0.734  1.00  0.00    -0.047 A 
ATOM      8  C   UNL     1       5.795   1.262  -0.392  1.00  0.00     0.004 A 
ATOM      9  C   UNL     1       6.593  -0.908   0.186  1.00  0.00     0.004 A 
ATOM     10  C   UNL     1       5.279   1.355   0.902  1.00  0.00     0.000 A 
ATOM     11  C   UNL     1       6.082  -0.814   1.465  1.00  0.00     0.000 A 
ATOM     12  C   UNL     1       5.416   0.340   1.816  1.00  0.00     0.000 A 
ENDBRANCH   6   7
ENDBRANCH   1   6
TORSDOF 4
ENDMDL
