@<TRIPOS>MOLECULE
/home/cewinharhar/GITHUB/reincatalyze/data/processed/docking_pred/2023-May-02-0947_maxeplen10_maxtrainstep1000_seadep32_gamma099_lrac9e-4_lrcr1e-3/46861e00ed193d15618049a480e2ca269f83ce14_ligand_2.pdbqt
 12 12 0 0 0
SMALL
GASTEIGER

@<TRIPOS>ATOM
      1  C          8.4050   -0.6600   -2.0690 C.3     1  UNL1        0.1270
      2  C          8.3740   -1.8990   -2.8820 C.2     1  UNL1        0.3030
      3  O          7.2870   -2.4110   -3.2470 O.2     1  UNL1       -0.2520
      4  O          9.5490   -2.5280   -3.2610 O.3     1  UNL1       -0.4810
      5  H         10.3120   -2.6140   -2.5850 H       1  UNL1        0.2960
      6  C          7.0300   -0.0640   -2.0660 C.3     1  UNL1        0.0470
      7  C          6.4580    0.1050   -0.7320 C.2     1  UNL1       -0.0470
      8  C          5.8080    1.2670   -0.3870 C.2     1  UNL1        0.0040
      9  C          6.5740   -0.9170    0.1820 C.2     1  UNL1        0.0040
     10  C          5.2860    1.3590    0.9050 C.2     1  UNL1        0.0000
     11  C          6.0570   -0.8250    1.4590 C.2     1  UNL1        0.0000
     12  C          5.4050    0.3370    1.8130 C.2     1  UNL1        0.0000
@<TRIPOS>BOND
     1     4     2    1
     2     4     5    1
     3     3     2    2
     4     2     1    1
     5     1     6    1
     6     6     7    1
     7     7     8    2
     8     7     9    1
     9     8    10    1
    10     9    11    2
    11    10    12    2
    12    11    12    1
