@<TRIPOS>MOLECULE
/home/cewinharhar/GITHUB/reincatalyze/data/processed/docking_pred/2023-May-02-0947_maxeplen10_maxtrainstep1000_seadep32_gamma099_lrac9e-4_lrcr1e-3/46aa5159a95d0d08c04f597503a56ad94e9ef6ed_ligand_2.pdbqt
 12 12 0 0 0
SMALL
GASTEIGER

@<TRIPOS>ATOM
      1  C          5.0330    1.7910    0.6520 C.3     1  UNL1        0.1270
      2  C          4.5300    1.1310    1.8790 C.2     1  UNL1        0.3030
      3  O          5.2040    0.2510    2.4690 O.2     1  UNL1       -0.2520
      4  O          3.2960    1.4690    2.4120 O.3     1  UNL1       -0.4810
      5  H          2.6340    0.7260    2.6530 H       1  UNL1        0.2960
      6  C          6.5300    1.8040    0.7050 C.3     1  UNL1        0.0470
      7  C          7.1700    1.0370   -0.3630 C.2     1  UNL1       -0.0470
      8  C          8.5050    1.2070   -0.6490 C.2     1  UNL1        0.0040
      9  C          6.4210    0.1360   -1.0830 C.2     1  UNL1        0.0040
     10  C          9.0490    0.4400   -1.6810 C.2     1  UNL1        0.0000
     11  C          6.9610   -0.6210   -2.1040 C.2     1  UNL1        0.0000
     12  C          8.2970   -0.4570   -2.3970 C.2     1  UNL1        0.0000
@<TRIPOS>BOND
     1    12    11    2
     2    12    10    1
     3    11     9    1
     4    10     8    2
     5     9     7    2
     6     8     7    1
     7     7     6    1
     8     1     6    1
     9     1     2    1
    10     2     4    1
    11     2     3    2
    12     4     5    1
