@<TRIPOS>MOLECULE
/home/cewinharhar/GITHUB/reincatalyze/data/processed/docking_pred/2023-May-02-0947_maxeplen10_maxtrainstep1000_seadep32_gamma099_lrac9e-4_lrcr1e-3/46aa5159a95d0d08c04f597503a56ad94e9ef6ed_ligand_2.pdbqt
 12 12 0 0 0
SMALL
GASTEIGER

@<TRIPOS>ATOM
      1  C          5.4780    2.8860    0.0080 C.3     1  UNL1        0.1270
      2  C          6.2580    3.8740    0.7900 C.2     1  UNL1        0.3030
      3  O          6.9230    4.7750    0.2220 O.2     1  UNL1       -0.2520
      4  O          6.2730    3.8310    2.1750 O.3     1  UNL1       -0.4810
      5  H          5.7970    3.0640    2.6580 H       1  UNL1        0.2960
      6  C          4.9380    1.8570    0.9540 C.3     1  UNL1        0.0470
      7  C          5.7090    0.6160    0.9870 C.2     1  UNL1       -0.0470
      8  C          5.7470   -0.1600    2.1220 C.2     1  UNL1        0.0040
      9  C          6.4010    0.2250   -0.1370 C.2     1  UNL1        0.0040
     10  C          6.5030   -1.3330    2.0810 C.2     1  UNL1        0.0000
     11  C          7.1480   -0.9350   -0.1760 C.2     1  UNL1        0.0000
     12  C          7.1910   -1.7170    0.9580 C.2     1  UNL1        0.0000
@<TRIPOS>BOND
     1    11     9    1
     2    11    12    2
     3     9     7    2
     4     1     2    1
     5     1     6    1
     6     3     2    2
     7     2     4    1
     8     6     7    1
     9    12    10    1
    10     7     8    1
    11    10     8    2
    12     4     5    1
