@<TRIPOS>MOLECULE
/home/cewinharhar/GITHUB/reincatalyze/data/processed/docking_pred/2023-May-02-0947_maxeplen10_maxtrainstep1000_seadep32_gamma099_lrac9e-4_lrcr1e-3/49b3117837231080fe644fe44c00424f4b8d2b91_ligand_2.pdbqt
 12 12 0 0 0
SMALL
GASTEIGER

@<TRIPOS>ATOM
      1  C          5.7230    1.4240   -0.2660 C.3     1  UNL1        0.1270
      2  C          5.2040    2.1430    0.9220 C.2     1  UNL1        0.3030
      3  O          4.3250    1.6320    1.6590 O.2     1  UNL1       -0.2520
      4  O          5.6760    3.4040    1.2510 O.3     1  UNL1       -0.4810
      5  H          5.9890    4.0320    0.5050 H       1  UNL1        0.2960
      6  C          6.3020    0.1190    0.1900 C.3     1  UNL1        0.0470
      7  C          7.7430    0.0020   -0.0220 C.2     1  UNL1       -0.0470
      8  C          8.4730   -0.9690    0.6230 C.2     1  UNL1        0.0040
      9  C          8.3690    0.8770   -0.8800 C.2     1  UNL1        0.0040
     10  C          9.8460   -1.0230    0.3720 C.2     1  UNL1        0.0000
     11  C          9.7260    0.8220   -1.1270 C.2     1  UNL1        0.0000
     12  C         10.4640   -0.1480   -0.4840 C.2     1  UNL1        0.0000
@<TRIPOS>BOND
     1    11     9    1
     2    11    12    2
     3     9     7    2
     4    12    10    1
     5     1     6    1
     6     1     2    1
     7     7     6    1
     8     7     8    1
     9    10     8    2
    10     5     4    1
    11     2     4    1
    12     2     3    2
