@<TRIPOS>MOLECULE
/home/cewinharhar/GITHUB/reincatalyze/data/processed/docking_pred/2023-May-02-0947_maxeplen10_maxtrainstep1000_seadep32_gamma099_lrac9e-4_lrcr1e-3/49b3117837231080fe644fe44c00424f4b8d2b91_ligand_2.pdbqt
 12 12 0 0 0
SMALL
GASTEIGER

@<TRIPOS>ATOM
      1  C          8.3460    0.1780   -2.3100 C.3     1  UNL1        0.1270
      2  C          9.5400   -0.0260   -1.4560 C.2     1  UNL1        0.3030
      3  O          9.8510   -1.1680   -1.0350 O.2     1  UNL1       -0.2520
      4  O         10.3470    1.0410   -1.0980 O.3     1  UNL1       -0.4810
      5  H         11.2910    0.8590   -0.7450 H       1  UNL1        0.2960
      6  C          7.2440   -0.6970   -1.7940 C.3     1  UNL1        0.0470
      7  C          6.5510   -0.1550   -0.6270 C.2     1  UNL1       -0.0470
      8  C          6.4890   -0.8680    0.5480 C.2     1  UNL1        0.0040
      9  C          5.9600    1.0840   -0.7120 C.2     1  UNL1        0.0040
     10  C          5.8120   -0.2890    1.6230 C.2     1  UNL1        0.0000
     11  C          5.2910    1.6560    0.3520 C.2     1  UNL1        0.0000
     12  C          5.2230    0.9470    1.5320 C.2     1  UNL1        0.0000
@<TRIPOS>BOND
     1     1     6    1
     2     1     2    1
     3     6     7    1
     4     2     4    1
     5     2     3    2
     6     4     5    1
     7     9     7    2
     8     9    11    1
     9     7     8    1
    10    11    12    2
    11     8    10    2
    12    12    10    1
