@<TRIPOS>MOLECULE
/home/cewinharhar/GITHUB/reincatalyze/data/processed/docking_pred/2023-May-02-0947_maxeplen10_maxtrainstep1000_seadep32_gamma099_lrac9e-4_lrcr1e-3/49b3117837231080fe644fe44c00424f4b8d2b91_ligand_2.pdbqt
 12 12 0 0 0
SMALL
GASTEIGER

@<TRIPOS>ATOM
      1  C          8.9760   -1.4900    0.2160 C.3     1  UNL1        0.1270
      2  C          9.2700   -2.9340    0.3720 C.2     1  UNL1        0.3030
      3  O         10.4140   -3.3330    0.7000 O.2     1  UNL1       -0.2520
      4  O          8.2850   -3.8860    0.1600 O.3     1  UNL1       -0.4810
      5  H          8.3570   -4.5080   -0.6490 H       1  UNL1        0.2960
      6  C          7.7030   -1.3500   -0.5620 C.3     1  UNL1        0.0470
      7  C          6.7700   -0.3710   -0.0050 C.2     1  UNL1       -0.0470
      8  C          6.3020   -0.5000    1.2820 C.2     1  UNL1        0.0040
      9  C          6.3650    0.6880   -0.7840 C.2     1  UNL1        0.0040
     10  C          5.4140    0.4730    1.7480 C.2     1  UNL1        0.0000
     11  C          5.4870    1.6480   -0.3210 C.2     1  UNL1        0.0000
     12  C          5.0120    1.5260    0.9670 C.2     1  UNL1        0.0000
@<TRIPOS>BOND
     1     9    11    1
     2     9     7    2
     3     5     4    1
     4     6     7    1
     5     6     1    1
     6    11    12    2
     7     7     8    1
     8     4     2    1
     9     1     2    1
    10     2     3    2
    11    12    10    1
    12     8    10    2
