@<TRIPOS>MOLECULE
/home/cewinharhar/GITHUB/reincatalyze/data/processed/docking_pred/2023-May-02-0947_maxeplen10_maxtrainstep1000_seadep32_gamma099_lrac9e-4_lrcr1e-3/49b3117837231080fe644fe44c00424f4b8d2b91_ligand_2.pdbqt
 12 12 0 0 0
SMALL
GASTEIGER

@<TRIPOS>ATOM
      1  C          8.4060   -0.6610   -2.0710 C.3     1  UNL1        0.1270
      2  C          8.3760   -1.9030   -2.8780 C.2     1  UNL1        0.3030
      3  O          7.2890   -2.4150   -3.2460 O.2     1  UNL1       -0.2520
      4  O          9.5510   -2.5370   -3.2490 O.3     1  UNL1       -0.4810
      5  H         10.2680   -2.7180   -2.5410 H       1  UNL1        0.2960
      6  C          7.0300   -0.0680   -2.0700 C.3     1  UNL1        0.0470
      7  C          6.4560    0.1010   -0.7350 C.2     1  UNL1       -0.0470
      8  C          5.8030    1.2620   -0.3920 C.2     1  UNL1        0.0040
      9  C          6.5750   -0.9190    0.1800 C.2     1  UNL1        0.0040
     10  C          5.2790    1.3530    0.8990 C.2     1  UNL1        0.0000
     11  C          6.0570   -0.8270    1.4560 C.2     1  UNL1        0.0000
     12  C          5.4010    0.3320    1.8090 C.2     1  UNL1        0.0000
@<TRIPOS>BOND
     1     4     2    1
     2     4     5    1
     3     3     2    2
     4     2     1    1
     5     1     6    1
     6     6     7    1
     7     7     8    2
     8     7     9    1
     9     8    10    1
    10     9    11    2
    11    10    12    2
    12    11    12    1
