@<TRIPOS>MOLECULE
/home/cewinharhar/GITHUB/reincatalyze/data/processed/docking_pred/2023-May-02-0947_maxeplen10_maxtrainstep1000_seadep32_gamma099_lrac9e-4_lrcr1e-3/49b3117837231080fe644fe44c00424f4b8d2b91_ligand_2.pdbqt
 12 12 0 0 0
SMALL
GASTEIGER

@<TRIPOS>ATOM
      1  C          8.5860   -0.2120   -1.9290 C.3     1  UNL1        0.1270
      2  C          8.9690   -1.5760   -2.3640 C.2     1  UNL1        0.3030
      3  O         10.1740   -1.9260   -2.4250 O.2     1  UNL1       -0.2520
      4  O          8.0050   -2.5060   -2.7160 O.3     1  UNL1       -0.4810
      5  H          7.3450   -2.8370   -2.0060 H       1  UNL1        0.2960
      6  C          7.0930   -0.1030   -1.9820 C.3     1  UNL1        0.0470
      7  C          6.4680    0.1310   -0.6810 C.2     1  UNL1       -0.0470
      8  C          5.8210    1.3160   -0.4150 C.2     1  UNL1        0.0040
      9  C          6.5310   -0.8500    0.2810 C.2     1  UNL1        0.0040
     10  C          5.2460    1.4710    0.8480 C.2     1  UNL1        0.0000
     11  C          5.9620   -0.6940    1.5300 C.2     1  UNL1        0.0000
     12  C          5.3130    0.4890    1.8040 C.2     1  UNL1        0.0000
@<TRIPOS>BOND
     1     4     2    1
     2     4     5    1
     3     3     2    2
     4     2     1    1
     5     6     1    1
     6     6     7    1
     7     7     8    2
     8     7     9    1
     9     8    10    1
    10     9    11    2
    11    10    12    2
    12    11    12    1
