@<TRIPOS>MOLECULE
/home/cewinharhar/GITHUB/reincatalyze/data/processed/docking_pred/2023-May-02-0947_maxeplen10_maxtrainstep1000_seadep32_gamma099_lrac9e-4_lrcr1e-3/4a3a178b6a4326eb13634b12f3ce9c4ec26f8538_ligand_2.pdbqt
 12 12 0 0 0
SMALL
GASTEIGER

@<TRIPOS>ATOM
      1  C          7.3160   -1.3130   -2.1020 C.3     1  UNL1        0.1270
      2  C          8.7580   -1.2840   -2.4420 C.2     1  UNL1        0.3030
      3  O          9.2770   -2.1800   -3.1540 O.2     1  UNL1       -0.2520
      4  O          9.5750   -0.2650   -1.9820 O.3     1  UNL1       -0.4810
      5  H         10.1280    0.2760   -2.6530 H       1  UNL1        0.2960
      6  C          7.1850   -1.3760   -0.6110 C.3     1  UNL1        0.0470
      7  C          6.4080   -0.2800   -0.0360 C.2     1  UNL1       -0.0470
      8  C          5.9420   -0.3510    1.2570 C.2     1  UNL1        0.0040
      9  C          6.1460    0.8320   -0.8020 C.2     1  UNL1        0.0040
     10  C          5.2070    0.7340    1.7410 C.2     1  UNL1        0.0000
     11  C          5.4190    1.9030   -0.3220 C.2     1  UNL1        0.0000
     12  C          4.9480    1.8400    0.9720 C.2     1  UNL1        0.0000
@<TRIPOS>BOND
     1     3     2    2
     2     5     4    1
     3     2     1    1
     4     2     4    1
     5     1     6    1
     6     9    11    1
     7     9     7    2
     8     6     7    1
     9    11    12    2
    10     7     8    1
    11    12    10    1
    12     8    10    2
