@<TRIPOS>MOLECULE
/home/cewinharhar/GITHUB/reincatalyze/data/processed/docking_pred/2023-May-02-0947_maxeplen10_maxtrainstep1000_seadep32_gamma099_lrac9e-4_lrcr1e-3/4a3a178b6a4326eb13634b12f3ce9c4ec26f8538_ligand_2.pdbqt
 12 12 0 0 0
SMALL
GASTEIGER

@<TRIPOS>ATOM
      1  C          5.4920    2.9030    0.0010 C.3     1  UNL1        0.1270
      2  C          6.2860    3.8490    0.8210 C.2     1  UNL1        0.3030
      3  O          6.9470    4.7750    0.2890 O.2     1  UNL1       -0.2520
      4  O          6.3200    3.7360    2.2010 O.3     1  UNL1       -0.4810
      5  H          5.4910    3.9930    2.7460 H       1  UNL1        0.2960
      6  C          4.9420    1.8430    0.9060 C.3     1  UNL1        0.0470
      7  C          5.7220    0.6080    0.9180 C.2     1  UNL1       -0.0470
      8  C          6.4210    0.2060   -0.1970 C.2     1  UNL1        0.0040
      9  C          5.7550   -0.1550    2.0620 C.2     1  UNL1        0.0040
     10  C          7.1460   -0.9840   -0.1140 C.2     1  UNL1        0.0000
     11  C          6.4720   -1.3320    2.1420 C.2     1  UNL1        0.0000
     12  C          7.1740   -1.7420    1.0290 C.2     1  UNL1        0.0000
@<TRIPOS>BOND
     1     8    10    1
     2     8     7    2
     3    10    12    2
     4     1     2    1
     5     1     6    1
     6     3     2    2
     7     2     4    1
     8     6     7    1
     9     7     9    1
    10    12    11    1
    11     9    11    2
    12     4     5    1
