MODEL 1
REMARK VINA RESULT:      -6.9      0.000      0.000
REMARK SMILES O=C(O)CCc1ccccc1
REMARK SMILES IDX 4 1 2 2 1 3 3 4 5 6 6 7 7 8 11 9 8 10 10 11 9 12
REMARK H PARENT 3 5
REMARK Flexibility Score: inf
ROOT
ATOM      1  C   UNL     1       8.626  -0.740  -2.018  1.00  0.00     0.127 C 
ENDROOT
BRANCH   1   2
ATOM      2  C   UNL     1       8.596  -1.973  -2.840  1.00  0.00     0.303 C 
ATOM      3  O   UNL     1       9.643  -2.625  -3.075  1.00  0.00    -0.252 OA
BRANCH   2   4
ATOM      4  O   UNL     1       7.406  -2.442  -3.373  1.00  0.00    -0.481 OA
ATOM      5  H   UNL     1       7.086  -3.384  -3.132  1.00  0.00     0.296 HD
ENDBRANCH   2   4
ENDBRANCH   1   2
BRANCH   1   6
ATOM      6  C   UNL     1       7.270  -0.107  -2.069  1.00  0.00     0.047 C 
BRANCH   6   7
ATOM      7  C   UNL     1       6.632   0.038  -0.762  1.00  0.00    -0.047 A 
ATOM      8  C   UNL     1       6.692  -0.975   0.166  1.00  0.00     0.004 A 
ATOM      9  C   UNL     1       5.968   1.206  -0.465  1.00  0.00     0.004 A 
ATOM     10  C   UNL     1       6.061  -0.767   1.395  1.00  0.00     0.000 A 
ATOM     11  C   UNL     1       5.344   1.410   0.750  1.00  0.00     0.000 A 
ATOM     12  C   UNL     1       5.399   0.399   1.685  1.00  0.00     0.000 A 
ENDBRANCH   6   7
ENDBRANCH   1   6
TORSDOF 4
ENDMDL
MODEL 2
REMARK VINA RESULT:      -6.7      2.480      3.138
REMARK SMILES O=C(O)CCc1ccccc1
REMARK SMILES IDX 4 1 2 2 1 3 3 4 5 6 6 7 7 8 11 9 8 10 10 11 9 12
REMARK H PARENT 3 5
REMARK Flexibility Score: inf
ROOT
ATOM      1  C   UNL     1       8.253  -2.270   0.494  1.00  0.00     0.127 C 
ENDROOT
BRANCH   1   2
ATOM      2  C   UNL     1       8.650  -3.635   0.911  1.00  0.00     0.303 C 
ATOM      3  O   UNL     1       9.855  -3.988   0.921  1.00  0.00    -0.252 OA
BRANCH   2   4
ATOM      4  O   UNL     1       7.698  -4.563   1.301  1.00  0.00    -0.481 OA
ATOM      5  H   UNL     1       7.142  -4.388   2.143  1.00  0.00     0.296 HD
ENDBRANCH   2   4
ENDBRANCH   1   2
BRANCH   1   6
ATOM      6  C   UNL     1       7.082  -1.845   1.327  1.00  0.00     0.047 C 
BRANCH   6   7
ATOM      7  C   UNL     1       6.460  -0.597   0.887  1.00  0.00    -0.047 A 
ATOM      8  C   UNL     1       5.701   0.154   1.753  1.00  0.00     0.004 A 
ATOM      9  C   UNL     1       6.644  -0.177  -0.410  1.00  0.00     0.004 A 
ATOM     10  C   UNL     1       5.138   1.335   1.264  1.00  0.00     0.000 A 
ATOM     11  C   UNL     1       6.086   0.990  -0.892  1.00  0.00     0.000 A 
ATOM     12  C   UNL     1       5.324   1.749  -0.031  1.00  0.00     0.000 A 
ENDBRANCH   6   7
ENDBRANCH   1   6
TORSDOF 4
ENDMDL
MODEL 3
REMARK VINA RESULT:      -6.4      1.614      2.482
REMARK SMILES O=C(O)CCc1ccccc1
REMARK SMILES IDX 4 1 2 2 1 3 3 4 5 6 6 7 7 8 11 9 8 10 10 11 9 12
REMARK H PARENT 3 5
REMARK Flexibility Score: inf
ROOT
ATOM      1  C   UNL     1       8.711   0.618  -1.764  1.00  0.00     0.127 C 
ENDROOT
BRANCH   1   2
ATOM      2  C   UNL     1       9.841  -0.119  -1.152  1.00  0.00     0.303 C 
ATOM      3  O   UNL     1       9.782  -1.359  -0.959  1.00  0.00    -0.252 OA
BRANCH   2   4
ATOM      4  O   UNL     1      10.998   0.543  -0.774  1.00  0.00    -0.481 OA
ATOM      5  H   UNL     1      11.214   0.645   0.222  1.00  0.00     0.296 HD
ENDBRANCH   2   4
ENDBRANCH   1   2
BRANCH   1   6
ATOM      6  C   UNL     1       7.478  -0.224  -1.639  1.00  0.00     0.047 C 
BRANCH   6   7
ATOM      7  C   UNL     1       6.658   0.091  -0.470  1.00  0.00    -0.047 A 
ATOM      8  C   UNL     1       5.949   1.268  -0.405  1.00  0.00     0.004 A 
ATOM      9  C   UNL     1       6.600  -0.806   0.571  1.00  0.00     0.004 A 
ATOM     10  C   UNL     1       5.187   1.504   0.741  1.00  0.00     0.000 A 
ATOM     11  C   UNL     1       5.846  -0.572   1.704  1.00  0.00     0.000 A 
ATOM     12  C   UNL     1       5.134   0.605   1.777  1.00  0.00     0.000 A 
ENDBRANCH   6   7
ENDBRANCH   1   6
TORSDOF 4
ENDMDL
