@<TRIPOS>MOLECULE
/home/cewinharhar/GITHUB/reincatalyze/data/processed/docking_pred/2023-May-02-0947_maxeplen10_maxtrainstep1000_seadep32_gamma099_lrac9e-4_lrcr1e-3/4c3a486d5bbb1ad3c8ce5b6da142191fd088767a_ligand_2.pdbqt
 12 12 0 0 0
SMALL
GASTEIGER

@<TRIPOS>ATOM
      1  C          8.2530   -2.2700    0.4940 C.3     1  UNL1        0.1270
      2  C          8.6500   -3.6350    0.9110 C.2     1  UNL1        0.3030
      3  O          9.8550   -3.9880    0.9210 O.2     1  UNL1       -0.2520
      4  O          7.6980   -4.5630    1.3010 O.3     1  UNL1       -0.4810
      5  H          7.1420   -4.3880    2.1430 H       1  UNL1        0.2960
      6  C          7.0820   -1.8450    1.3270 C.3     1  UNL1        0.0470
      7  C          6.4600   -0.5970    0.8870 C.2     1  UNL1       -0.0470
      8  C          5.7010    0.1540    1.7530 C.2     1  UNL1        0.0040
      9  C          6.6440   -0.1770   -0.4100 C.2     1  UNL1        0.0040
     10  C          5.1380    1.3350    1.2640 C.2     1  UNL1        0.0000
     11  C          6.0860    0.9900   -0.8920 C.2     1  UNL1        0.0000
     12  C          5.3240    1.7490   -0.0310 C.2     1  UNL1        0.0000
@<TRIPOS>BOND
     1    11     9    1
     2    11    12    2
     3     9     7    2
     4    12    10    1
     5     1     2    1
     6     1     6    1
     7     7     6    1
     8     7     8    1
     9     2     3    2
    10     2     4    1
    11    10     8    2
    12     4     5    1
