@<TRIPOS>MOLECULE
/home/cewinharhar/GITHUB/reincatalyze/data/processed/docking_pred/2023-May-02-0947_maxeplen10_maxtrainstep1000_seadep32_gamma099_lrac9e-4_lrcr1e-3/4c3a486d5bbb1ad3c8ce5b6da142191fd088767a_ligand_2.pdbqt
 12 12 0 0 0
SMALL
GASTEIGER

@<TRIPOS>ATOM
      1  C          8.7110    0.6180   -1.7640 C.3     1  UNL1        0.1270
      2  C          9.8410   -0.1190   -1.1520 C.2     1  UNL1        0.3030
      3  O          9.7820   -1.3590   -0.9590 O.2     1  UNL1       -0.2520
      4  O         10.9980    0.5430   -0.7740 O.3     1  UNL1       -0.4810
      5  H         11.2140    0.6450    0.2220 H       1  UNL1        0.2960
      6  C          7.4780   -0.2240   -1.6390 C.3     1  UNL1        0.0470
      7  C          6.6580    0.0910   -0.4700 C.2     1  UNL1       -0.0470
      8  C          5.9490    1.2680   -0.4050 C.2     1  UNL1        0.0040
      9  C          6.6000   -0.8060    0.5710 C.2     1  UNL1        0.0040
     10  C          5.1870    1.5040    0.7410 C.2     1  UNL1        0.0000
     11  C          5.8460   -0.5720    1.7040 C.2     1  UNL1        0.0000
     12  C          5.1340    0.6050    1.7770 C.2     1  UNL1        0.0000
@<TRIPOS>BOND
     1     1     6    1
     2     1     2    1
     3     6     7    1
     4     2     3    2
     5     2     4    1
     6     4     5    1
     7     7     8    2
     8     7     9    1
     9     8    10    1
    10     9    11    2
    11    10    12    2
    12    11    12    1
