@<TRIPOS>MOLECULE
/home/cewinharhar/GITHUB/reincatalyze/data/processed/docking_pred/2023-May-02-0947_maxeplen10_maxtrainstep1000_seadep32_gamma099_lrac9e-4_lrcr1e-3/4c3a486d5bbb1ad3c8ce5b6da142191fd088767a_ligand_2.pdbqt
 12 12 0 0 0
SMALL
GASTEIGER

@<TRIPOS>ATOM
      1  C          8.6260   -0.7400   -2.0180 C.3     1  UNL1        0.1270
      2  C          8.5960   -1.9730   -2.8400 C.2     1  UNL1        0.3030
      3  O          9.6430   -2.6250   -3.0750 O.2     1  UNL1       -0.2520
      4  O          7.4060   -2.4420   -3.3730 O.3     1  UNL1       -0.4810
      5  H          7.0860   -3.3840   -3.1320 H       1  UNL1        0.2960
      6  C          7.2700   -0.1070   -2.0690 C.3     1  UNL1        0.0470
      7  C          6.6320    0.0380   -0.7620 C.2     1  UNL1       -0.0470
      8  C          6.6920   -0.9750    0.1660 C.2     1  UNL1        0.0040
      9  C          5.9680    1.2060   -0.4650 C.2     1  UNL1        0.0040
     10  C          6.0610   -0.7670    1.3950 C.2     1  UNL1        0.0000
     11  C          5.3440    1.4100    0.7500 C.2     1  UNL1        0.0000
     12  C          5.3990    0.3990    1.6850 C.2     1  UNL1        0.0000
@<TRIPOS>BOND
     1     4     5    1
     2     4     2    1
     3     3     2    2
     4     2     1    1
     5     6     1    1
     6     6     7    1
     7     7     9    2
     8     7     8    1
     9     9    11    1
    10     8    10    2
    11    11    12    2
    12    10    12    1
