@<TRIPOS>MOLECULE
/home/cewinharhar/GITHUB/reincatalyze/data/processed/docking_pred/2023-May-02-0947_maxeplen10_maxtrainstep1000_seadep32_gamma099_lrac9e-4_lrcr1e-3/4c41b041102a8d5d821093d1e21668bd2b50a839_ligand_2.pdbqt
 12 12 0 0 0
SMALL
GASTEIGER

@<TRIPOS>ATOM
      1  C          8.4070   -0.6540   -2.0770 C.3     1  UNL1        0.1270
      2  C          8.3760   -1.8980   -2.8820 C.2     1  UNL1        0.3030
      3  O          7.2890   -2.4150   -3.2400 O.2     1  UNL1       -0.2520
      4  O          9.5510   -2.5270   -3.2620 O.3     1  UNL1       -0.4810
      5  H          9.6660   -3.5270   -3.0770 H       1  UNL1        0.2960
      6  C          7.0310   -0.0610   -2.0740 C.3     1  UNL1        0.0470
      7  C          6.4590    0.1070   -0.7400 C.2     1  UNL1       -0.0470
      8  C          5.8070    1.2680   -0.3950 C.2     1  UNL1        0.0040
      9  C          6.5770   -0.9140    0.1750 C.2     1  UNL1        0.0040
     10  C          5.2840    1.3590    0.8970 C.2     1  UNL1        0.0000
     11  C          6.0600   -0.8220    1.4520 C.2     1  UNL1        0.0000
     12  C          5.4050    0.3380    1.8050 C.2     1  UNL1        0.0000
@<TRIPOS>BOND
     1     4     5    1
     2     4     2    1
     3     3     2    2
     4     2     1    1
     5     1     6    1
     6     6     7    1
     7     7     8    2
     8     7     9    1
     9     8    10    1
    10     9    11    2
    11    10    12    2
    12    11    12    1
