@<TRIPOS>MOLECULE
/home/cewinharhar/GITHUB/reincatalyze/data/processed/docking_pred/2023-May-02-0947_maxeplen10_maxtrainstep1000_seadep32_gamma099_lrac9e-4_lrcr1e-3/4d620996829bdf69d2437cdb6940cc233521eaf3_ligand_2.pdbqt
 12 12 0 0 0
SMALL
GASTEIGER

@<TRIPOS>ATOM
      1  C          8.2940    0.2350   -2.2660 C.3     1  UNL1        0.1270
      2  C          9.5160   -0.0330   -1.4700 C.2     1  UNL1        0.3030
      3  O          9.7900   -1.1910   -1.0690 O.2     1  UNL1       -0.2520
      4  O         10.3910    0.9910   -1.1460 O.3     1  UNL1       -0.4810
      5  H         10.7760    1.5760   -1.8930 H       1  UNL1        0.2960
      6  C          7.1990   -0.6550   -1.7610 C.3     1  UNL1        0.0470
      7  C          6.5120   -0.1400   -0.5790 C.2     1  UNL1       -0.0470
      8  C          5.9440    1.1130   -0.5850 C.2     1  UNL1        0.0040
      9  C          6.4350   -0.9250    0.5490 C.2     1  UNL1        0.0040
     10  C          5.3020    1.5400    0.5800 C.2     1  UNL1        0.0000
     11  C          5.8010   -0.5010    1.6990 C.2     1  UNL1        0.0000
     12  C          5.2300    0.7530    1.7010 C.2     1  UNL1        0.0000
@<TRIPOS>BOND
     1     1     6    1
     2     1     2    1
     3     5     4    1
     4     6     7    1
     5     2     4    1
     6     2     3    2
     7     8     7    2
     8     8    10    1
     9     7     9    1
    10     9    11    2
    11    10    12    2
    12    11    12    1
