@<TRIPOS>MOLECULE
/home/cewinharhar/GITHUB/reincatalyze/data/processed/docking_pred/2023-May-02-0947_maxeplen10_maxtrainstep1000_seadep32_gamma099_lrac9e-4_lrcr1e-3/4dfe2a4ebf2cd2c58b23ebebd9c83ff91bb12173_ligand_2.pdbqt
 12 12 0 0 0
SMALL
GASTEIGER

@<TRIPOS>ATOM
      1  C          7.2480   -1.2230   -2.1970 C.3     1  UNL1        0.1270
      2  C          8.6880   -1.2920   -2.5420 C.2     1  UNL1        0.3030
      3  O          9.5000   -0.4330   -2.1180 O.2     1  UNL1       -0.2520
      4  O          9.1780   -2.3100   -3.3440 O.3     1  UNL1       -0.4810
      5  H          8.5200   -2.9080   -3.8520 H       1  UNL1        0.2960
      6  C          7.1140   -1.3290   -0.7090 C.3     1  UNL1        0.0470
      7  C          6.3670   -0.2300   -0.0990 C.2     1  UNL1       -0.0470
      8  C          5.9400   -0.3090    1.2060 C.2     1  UNL1        0.0040
      9  C          6.0950    0.8920   -0.8460 C.2     1  UNL1        0.0040
     10  C          5.2330    0.7790    1.7240 C.2     1  UNL1        0.0000
     11  C          5.3950    1.9660   -0.3330 C.2     1  UNL1        0.0000
     12  C          4.9630    1.8950    0.9730 C.2     1  UNL1        0.0000
@<TRIPOS>BOND
     1     5     4    1
     2     4     2    1
     3     2     1    1
     4     2     3    2
     5     1     6    1
     6     9    11    1
     7     9     7    2
     8     6     7    1
     9    11    12    2
    10     7     8    1
    11    12    10    1
    12     8    10    2
