@<TRIPOS>MOLECULE
/home/cewinharhar/GITHUB/reincatalyze/data/processed/docking_pred/2023-May-02-0947_maxeplen10_maxtrainstep1000_seadep32_gamma099_lrac9e-4_lrcr1e-3/4e2e003c692afcef440410ba16f5bc8e831af6c9_ligand_2.pdbqt
 12 12 0 0 0
SMALL
GASTEIGER

@<TRIPOS>ATOM
      1  C          8.4090   -0.6600   -2.0660 C.3     1  UNL1        0.1270
      2  C          8.3780   -1.9000   -2.8780 C.2     1  UNL1        0.3030
      3  O          7.2900   -2.4130   -3.2410 O.2     1  UNL1       -0.2520
      4  O          9.5520   -2.5280   -3.2600 O.3     1  UNL1       -0.4810
      5  H         10.2200   -2.0260   -3.8510 H       1  UNL1        0.2960
      6  C          7.0350   -0.0620   -2.0670 C.3     1  UNL1        0.0470
      7  C          6.4610    0.1100   -0.7340 C.2     1  UNL1       -0.0470
      8  C          5.8070    1.2710   -0.3940 C.2     1  UNL1        0.0040
      9  C          6.5780   -0.9090    0.1840 C.2     1  UNL1        0.0040
     10  C          5.2820    1.3660    0.8970 C.2     1  UNL1        0.0000
     11  C          6.0590   -0.8130    1.4590 C.2     1  UNL1        0.0000
     12  C          5.4030    0.3470    1.8080 C.2     1  UNL1        0.0000
@<TRIPOS>BOND
     1     5     4    1
     2     4     2    1
     3     3     2    2
     4     2     1    1
     5     6     1    1
     6     6     7    1
     7     7     8    2
     8     7     9    1
     9     8    10    1
    10     9    11    2
    11    10    12    2
    12    11    12    1
