@<TRIPOS>MOLECULE
/home/cewinharhar/GITHUB/reincatalyze/data/processed/docking_pred/2023-May-02-0947_maxeplen10_maxtrainstep1000_seadep32_gamma099_lrac9e-4_lrcr1e-3/4f8485ffa73320ccf1b94cd7b1ea99ef776c762b_ligand_2.pdbqt
 12 12 0 0 0
SMALL
GASTEIGER

@<TRIPOS>ATOM
      1  C          7.2930   -0.4480    2.7080 C.3     1  UNL1        0.1270
      2  C          5.9520   -0.6300    2.1050 C.2     1  UNL1        0.3030
      3  O          5.0040    0.1470    2.3790 O.2     1  UNL1       -0.2520
      4  O          5.7070   -1.6660    1.2180 O.3     1  UNL1       -0.4810
      5  H          5.2680   -2.5250    1.5610 H       1  UNL1        0.2960
      6  C          7.5870   -1.6370    3.5710 C.3     1  UNL1        0.0470
      7  C          8.9070   -1.6040    4.1980 C.2     1  UNL1       -0.0470
      8  C          9.9780   -2.2400    3.6160 C.2     1  UNL1        0.0040
      9  C          9.0700   -0.9260    5.3840 C.2     1  UNL1        0.0040
     10  C         11.2100   -2.1670    4.2710 C.2     1  UNL1        0.0000
     11  C         10.2880   -0.8550    6.0300 C.2     1  UNL1        0.0000
     12  C         11.3660   -1.4900    5.4540 C.2     1  UNL1        0.0000
@<TRIPOS>BOND
     1     4     5    1
     2     4     2    1
     3     2     3    2
     4     2     1    1
     5     1     6    1
     6     6     7    1
     7     8     7    2
     8     8    10    1
     9     7     9    1
    10    10    12    2
    11     9    11    2
    12    12    11    1
