MODEL 1
REMARK VINA RESULT:      -6.6      0.000      0.000
REMARK SMILES O=C(O)CCc1ccccc1
REMARK SMILES IDX 4 1 2 2 1 3 3 4 5 6 6 7 7 8 11 9 8 10 10 11 9 12
REMARK H PARENT 3 5
REMARK Flexibility Score: inf
ROOT
ATOM      1  C   UNL     1       7.293  -0.448   2.708  1.00  0.00     0.127 C 
ENDROOT
BRANCH   1   2
ATOM      2  C   UNL     1       5.952  -0.630   2.105  1.00  0.00     0.303 C 
ATOM      3  O   UNL     1       5.004   0.147   2.379  1.00  0.00    -0.252 OA
BRANCH   2   4
ATOM      4  O   UNL     1       5.707  -1.666   1.218  1.00  0.00    -0.481 OA
ATOM      5  H   UNL     1       5.268  -2.525   1.561  1.00  0.00     0.296 HD
ENDBRANCH   2   4
ENDBRANCH   1   2
BRANCH   1   6
ATOM      6  C   UNL     1       7.587  -1.637   3.571  1.00  0.00     0.047 C 
BRANCH   6   7
ATOM      7  C   UNL     1       8.907  -1.604   4.198  1.00  0.00    -0.047 A 
ATOM      8  C   UNL     1       9.978  -2.240   3.616  1.00  0.00     0.004 A 
ATOM      9  C   UNL     1       9.070  -0.926   5.384  1.00  0.00     0.004 A 
ATOM     10  C   UNL     1      11.210  -2.167   4.271  1.00  0.00     0.000 A 
ATOM     11  C   UNL     1      10.288  -0.855   6.030  1.00  0.00     0.000 A 
ATOM     12  C   UNL     1      11.366  -1.490   5.454  1.00  0.00     0.000 A 
ENDBRANCH   6   7
ENDBRANCH   1   6
TORSDOF 4
ENDMDL
MODEL 2
REMARK VINA RESULT:      -6.4      1.455      2.423
REMARK SMILES O=C(O)CCc1ccccc1
REMARK SMILES IDX 4 1 2 2 1 3 3 4 5 6 6 7 7 8 11 9 8 10 10 11 9 12
REMARK H PARENT 3 5
REMARK Flexibility Score: inf
ROOT
ATOM      1  C   UNL     1       8.028  -1.295   3.157  1.00  0.00     0.127 C 
ENDROOT
BRANCH   1   2
ATOM      2  C   UNL     1       6.736  -1.359   2.433  1.00  0.00     0.303 C 
ATOM      3  O   UNL     1       5.852  -0.483   2.601  1.00  0.00    -0.252 OA
BRANCH   2   4
ATOM      4  O   UNL     1       6.469  -2.391   1.548  1.00  0.00    -0.481 OA
ATOM      5  H   UNL     1       6.207  -2.169   0.584  1.00  0.00     0.296 HD
ENDBRANCH   2   4
ENDBRANCH   1   2
BRANCH   1   6
ATOM      6  C   UNL     1       9.086  -1.902   2.287  1.00  0.00     0.047 C 
BRANCH   6   7
ATOM      7  C   UNL     1      10.146  -2.584   3.028  1.00  0.00    -0.047 A 
ATOM      8  C   UNL     1      10.511  -2.159   4.284  1.00  0.00     0.004 A 
ATOM      9  C   UNL     1      10.777  -3.664   2.455  1.00  0.00     0.004 A 
ATOM     10  C   UNL     1      11.531  -2.859   4.934  1.00  0.00     0.000 A 
ATOM     11  C   UNL     1      11.785  -4.354   3.099  1.00  0.00     0.000 A 
ATOM     12  C   UNL     1      12.158  -3.934   4.357  1.00  0.00     0.000 A 
ENDBRANCH   6   7
ENDBRANCH   1   6
TORSDOF 4
ENDMDL
MODEL 3
REMARK VINA RESULT:      -6.1      1.195      1.995
REMARK SMILES O=C(O)CCc1ccccc1
REMARK SMILES IDX 4 1 2 2 1 3 3 4 5 6 6 7 7 8 11 9 8 10 10 11 9 12
REMARK H PARENT 3 5
REMARK Flexibility Score: inf
ROOT
ATOM      1  C   UNL     1       6.503  -1.107   2.152  1.00  0.00     0.127 C 
ENDROOT
BRANCH   1   2
ATOM      2  C   UNL     1       5.814   0.199   2.021  1.00  0.00     0.303 C 
ATOM      3  O   UNL     1       4.643   0.363   2.445  1.00  0.00    -0.252 OA
BRANCH   2   4
ATOM      4  O   UNL     1       6.447   1.278   1.425  1.00  0.00    -0.481 OA
ATOM      5  H   UNL     1       6.174   2.228   1.691  1.00  0.00     0.296 HD
ENDBRANCH   2   4
ENDBRANCH   1   2
BRANCH   1   6
ATOM      6  C   UNL     1       7.003  -1.236   3.559  1.00  0.00     0.047 C 
BRANCH   6   7
ATOM      7  C   UNL     1       8.419  -1.588   3.656  1.00  0.00    -0.047 A 
ATOM      8  C   UNL     1       9.081  -1.511   4.859  1.00  0.00     0.004 A 
ATOM      9  C   UNL     1       9.087  -2.001   2.527  1.00  0.00     0.004 A 
ATOM     10  C   UNL     1      10.433  -1.863   4.879  1.00  0.00     0.000 A 
ATOM     11  C   UNL     1      10.423  -2.348   2.548  1.00  0.00     0.000 A 
ATOM     12  C   UNL     1      11.095  -2.273   3.749  1.00  0.00     0.000 A 
ENDBRANCH   6   7
ENDBRANCH   1   6
TORSDOF 4
ENDMDL
