@<TRIPOS>MOLECULE
/home/cewinharhar/GITHUB/reincatalyze/data/processed/docking_pred/2023-May-02-0947_maxeplen10_maxtrainstep1000_seadep32_gamma099_lrac9e-4_lrcr1e-3/4f8485ffa73320ccf1b94cd7b1ea99ef776c762b_ligand_2.pdbqt
 12 12 0 0 0
SMALL
GASTEIGER

@<TRIPOS>ATOM
      1  C          8.0280   -1.2950    3.1570 C.3     1  UNL1        0.1270
      2  C          6.7360   -1.3590    2.4330 C.2     1  UNL1        0.3030
      3  O          5.8520   -0.4830    2.6010 O.2     1  UNL1       -0.2520
      4  O          6.4690   -2.3910    1.5480 O.3     1  UNL1       -0.4810
      5  H          6.2070   -2.1690    0.5840 H       1  UNL1        0.2960
      6  C          9.0860   -1.9020    2.2870 C.3     1  UNL1        0.0470
      7  C         10.1460   -2.5840    3.0280 C.2     1  UNL1       -0.0470
      8  C         10.5110   -2.1590    4.2840 C.2     1  UNL1        0.0040
      9  C         10.7770   -3.6640    2.4550 C.2     1  UNL1        0.0040
     10  C         11.5310   -2.8590    4.9340 C.2     1  UNL1        0.0000
     11  C         11.7850   -4.3540    3.0990 C.2     1  UNL1        0.0000
     12  C         12.1580   -3.9340    4.3570 C.2     1  UNL1        0.0000
@<TRIPOS>BOND
     1     5     4    1
     2     4     2    1
     3     6     7    1
     4     6     1    1
     5     2     3    2
     6     2     1    1
     7     9     7    2
     8     9    11    1
     9     7     8    1
    10    11    12    2
    11     8    10    2
    12    12    10    1
