@<TRIPOS>MOLECULE
/home/cewinharhar/GITHUB/reincatalyze/data/processed/docking_pred/2023-May-02-0947_maxeplen10_maxtrainstep1000_seadep32_gamma099_lrac9e-4_lrcr1e-3/4f8485ffa73320ccf1b94cd7b1ea99ef776c762b_ligand_2.pdbqt
 12 12 0 0 0
SMALL
GASTEIGER

@<TRIPOS>ATOM
      1  C          6.5030   -1.1070    2.1520 C.3     1  UNL1        0.1270
      2  C          5.8140    0.1990    2.0210 C.2     1  UNL1        0.3030
      3  O          4.6430    0.3630    2.4450 O.2     1  UNL1       -0.2520
      4  O          6.4470    1.2780    1.4250 O.3     1  UNL1       -0.4810
      5  H          6.1740    2.2280    1.6910 H       1  UNL1        0.2960
      6  C          7.0030   -1.2360    3.5590 C.3     1  UNL1        0.0470
      7  C          8.4190   -1.5880    3.6560 C.2     1  UNL1       -0.0470
      8  C          9.0810   -1.5110    4.8590 C.2     1  UNL1        0.0040
      9  C          9.0870   -2.0010    2.5270 C.2     1  UNL1        0.0040
     10  C         10.4330   -1.8630    4.8790 C.2     1  UNL1        0.0000
     11  C         10.4230   -2.3480    2.5480 C.2     1  UNL1        0.0000
     12  C         11.0950   -2.2730    3.7490 C.2     1  UNL1        0.0000
@<TRIPOS>BOND
     1     4     5    1
     2     4     2    1
     3     2     1    1
     4     2     3    2
     5     1     6    1
     6     9    11    1
     7     9     7    2
     8    11    12    2
     9     6     7    1
    10     7     8    1
    11    12    10    1
    12     8    10    2
