@<TRIPOS>MOLECULE
/home/cewinharhar/GITHUB/reincatalyze/data/processed/docking_pred/2023-May-02-0947_maxeplen10_maxtrainstep1000_seadep32_gamma099_lrac9e-4_lrcr1e-3/4fd116288ae20ad94bf91d23a53b6bc9c92e4cae_ligand_2.pdbqt
 12 12 0 0 0
SMALL
GASTEIGER

@<TRIPOS>ATOM
      1  C          7.2760   -1.2620   -2.1670 C.3     1  UNL1        0.1270
      2  C          8.7180   -1.3380   -2.5030 C.2     1  UNL1        0.3030
      3  O          9.5310   -0.4810   -2.0780 O.2     1  UNL1       -0.2520
      4  O          9.2090   -2.3600   -3.2990 O.3     1  UNL1       -0.4810
      5  H          9.7080   -3.1390   -2.8620 H       1  UNL1        0.2960
      6  C          7.1330   -1.3710   -0.6800 C.3     1  UNL1        0.0470
      7  C          6.3780   -0.2760   -0.0730 C.2     1  UNL1       -0.0470
      8  C          5.9190   -0.3700    1.2200 C.2     1  UNL1        0.0040
      9  C          6.1300    0.8580   -0.8120 C.2     1  UNL1        0.0040
     10  C          5.2060    0.7150    1.7350 C.2     1  UNL1        0.0000
     11  C          5.4240    1.9290   -0.3010 C.2     1  UNL1        0.0000
     12  C          4.9600    1.8430    0.9940 C.2     1  UNL1        0.0000
@<TRIPOS>BOND
     1     4     5    1
     2     4     2    1
     3     2     1    1
     4     2     3    2
     5     1     6    1
     6     9    11    1
     7     9     7    2
     8     6     7    1
     9    11    12    2
    10     7     8    1
    11    12    10    1
    12     8    10    2
