MODEL 1
REMARK VINA RESULT:      -7.0      0.000      0.000
REMARK SMILES O=C(O)CCc1ccccc1
REMARK SMILES IDX 4 1 2 2 1 3 3 4 5 6 6 7 7 8 11 9 8 10 10 11 9 12
REMARK H PARENT 3 5
REMARK Flexibility Score: inf
ROOT
ATOM      1  C   UNL     1       8.407  -0.652  -2.075  1.00  0.00     0.127 C 
ENDROOT
BRANCH   1   2
ATOM      2  C   UNL     1       8.378  -1.896  -2.879  1.00  0.00     0.303 C 
ATOM      3  O   UNL     1       7.291  -2.412  -3.241  1.00  0.00    -0.252 OA
BRANCH   2   4
ATOM      4  O   UNL     1       9.553  -2.527  -3.254  1.00  0.00    -0.481 OA
ATOM      5  H   UNL     1      10.345  -2.538  -2.605  1.00  0.00     0.296 HD
ENDBRANCH   2   4
ENDBRANCH   1   2
BRANCH   1   6
ATOM      6  C   UNL     1       7.030  -0.060  -2.074  1.00  0.00     0.047 C 
BRANCH   6   7
ATOM      7  C   UNL     1       6.455   0.105  -0.740  1.00  0.00    -0.047 A 
ATOM      8  C   UNL     1       5.800   1.264  -0.395  1.00  0.00     0.004 A 
ATOM      9  C   UNL     1       6.572  -0.918   0.172  1.00  0.00     0.004 A 
ATOM     10  C   UNL     1       5.274   1.352   0.896  1.00  0.00     0.000 A 
ATOM     11  C   UNL     1       6.051  -0.830   1.448  1.00  0.00     0.000 A 
ATOM     12  C   UNL     1       5.395   0.329   1.803  1.00  0.00     0.000 A 
ENDBRANCH   6   7
ENDBRANCH   1   6
TORSDOF 4
ENDMDL
MODEL 2
REMARK VINA RESULT:      -6.8      1.390      2.187
REMARK SMILES O=C(O)CCc1ccccc1
REMARK SMILES IDX 4 1 2 2 1 3 3 4 5 6 6 7 7 8 11 9 8 10 10 11 9 12
REMARK H PARENT 3 5
REMARK Flexibility Score: inf
ROOT
ATOM      1  C   UNL     1       8.297  -0.517  -2.290  1.00  0.00     0.127 C 
ENDROOT
BRANCH   1   2
ATOM      2  C   UNL     1       8.397  -1.841  -2.948  1.00  0.00     0.303 C 
ATOM      3  O   UNL     1       9.503  -2.423  -3.075  1.00  0.00    -0.252 OA
BRANCH   2   4
ATOM      4  O   UNL     1       7.269  -2.475  -3.443  1.00  0.00    -0.481 OA
ATOM      5  H   UNL     1       6.977  -3.368  -3.037  1.00  0.00     0.296 HD
ENDBRANCH   2   4
ENDBRANCH   1   2
BRANCH   1   6
ATOM      6  C   UNL     1       7.031  -0.484  -1.489  1.00  0.00     0.047 C 
BRANCH   6   7
ATOM      7  C   UNL     1       6.841   0.750  -0.728  1.00  0.00    -0.047 A 
ATOM      8  C   UNL     1       7.904   1.364  -0.107  1.00  0.00     0.004 A 
ATOM      9  C   UNL     1       5.582   1.297  -0.640  1.00  0.00     0.004 A 
ATOM     10  C   UNL     1       7.649   2.540   0.601  1.00  0.00     0.000 A 
ATOM     11  C   UNL     1       5.332   2.460   0.061  1.00  0.00     0.000 A 
ATOM     12  C   UNL     1       6.390   3.081   0.687  1.00  0.00     0.000 A 
ENDBRANCH   6   7
ENDBRANCH   1   6
TORSDOF 4
ENDMDL
