@<TRIPOS>MOLECULE
/home/cewinharhar/GITHUB/reincatalyze/data/processed/docking_pred/2023-May-02-0947_maxeplen10_maxtrainstep1000_seadep32_gamma099_lrac9e-4_lrcr1e-3/5131ba4422f83928eab452067adeb3f7f7723c60_ligand_2.pdbqt
 12 12 0 0 0
SMALL
GASTEIGER

@<TRIPOS>ATOM
      1  C          8.4070   -0.6520   -2.0750 C.3     1  UNL1        0.1270
      2  C          8.3780   -1.8960   -2.8790 C.2     1  UNL1        0.3030
      3  O          7.2910   -2.4120   -3.2410 O.2     1  UNL1       -0.2520
      4  O          9.5530   -2.5270   -3.2540 O.3     1  UNL1       -0.4810
      5  H         10.3450   -2.5380   -2.6050 H       1  UNL1        0.2960
      6  C          7.0300   -0.0600   -2.0740 C.3     1  UNL1        0.0470
      7  C          6.4550    0.1050   -0.7400 C.2     1  UNL1       -0.0470
      8  C          5.8000    1.2640   -0.3950 C.2     1  UNL1        0.0040
      9  C          6.5720   -0.9180    0.1720 C.2     1  UNL1        0.0040
     10  C          5.2740    1.3520    0.8960 C.2     1  UNL1        0.0000
     11  C          6.0510   -0.8300    1.4480 C.2     1  UNL1        0.0000
     12  C          5.3950    0.3290    1.8030 C.2     1  UNL1        0.0000
@<TRIPOS>BOND
     1     4     2    1
     2     4     5    1
     3     3     2    2
     4     2     1    1
     5     1     6    1
     6     6     7    1
     7     7     8    2
     8     7     9    1
     9     8    10    1
    10     9    11    2
    11    10    12    2
    12    11    12    1
