@<TRIPOS>MOLECULE
/home/cewinharhar/GITHUB/reincatalyze/data/processed/docking_pred/2023-May-02-0947_maxeplen10_maxtrainstep1000_seadep32_gamma099_lrac9e-4_lrcr1e-3/5131ba4422f83928eab452067adeb3f7f7723c60_ligand_2.pdbqt
 12 12 0 0 0
SMALL
GASTEIGER

@<TRIPOS>ATOM
      1  C          8.2970   -0.5170   -2.2900 C.3     1  UNL1        0.1270
      2  C          8.3970   -1.8410   -2.9480 C.2     1  UNL1        0.3030
      3  O          9.5030   -2.4230   -3.0750 O.2     1  UNL1       -0.2520
      4  O          7.2690   -2.4750   -3.4430 O.3     1  UNL1       -0.4810
      5  H          6.9770   -3.3680   -3.0370 H       1  UNL1        0.2960
      6  C          7.0310   -0.4840   -1.4890 C.3     1  UNL1        0.0470
      7  C          6.8410    0.7500   -0.7280 C.2     1  UNL1       -0.0470
      8  C          7.9040    1.3640   -0.1070 C.2     1  UNL1        0.0040
      9  C          5.5820    1.2970   -0.6400 C.2     1  UNL1        0.0040
     10  C          7.6490    2.5400    0.6010 C.2     1  UNL1        0.0000
     11  C          5.3320    2.4600    0.0610 C.2     1  UNL1        0.0000
     12  C          6.3900    3.0810    0.6870 C.2     1  UNL1        0.0000
@<TRIPOS>BOND
     1     4     5    1
     2     4     2    1
     3     3     2    2
     4     2     1    1
     5     1     6    1
     6     6     7    1
     7     7     9    2
     8     7     8    1
     9     9    11    1
    10     8    10    2
    11    11    12    2
    12    10    12    1
