MODEL 1
REMARK VINA RESULT:      -7.3      0.000      0.000
REMARK SMILES O=C(O)CCc1ccccc1
REMARK SMILES IDX 4 1 2 2 1 3 3 4 5 6 6 7 7 8 11 9 8 10 10 11 9 12
REMARK H PARENT 3 5
REMARK Flexibility Score: inf
ROOT
ATOM      1  C   UNL     1       8.396  -0.642  -2.093  1.00  0.00     0.127 C 
ENDROOT
BRANCH   1   2
ATOM      2  C   UNL     1       8.367  -1.898  -2.879  1.00  0.00     0.303 C 
ATOM      3  O   UNL     1       7.282  -2.406  -3.253  1.00  0.00    -0.252 OA
BRANCH   2   4
ATOM      4  O   UNL     1       9.542  -2.547  -3.224  1.00  0.00    -0.481 OA
ATOM      5  H   UNL     1       9.976  -2.349  -4.130  1.00  0.00     0.296 HD
ENDBRANCH   2   4
ENDBRANCH   1   2
BRANCH   1   6
ATOM      6  C   UNL     1       7.014  -0.063  -2.079  1.00  0.00     0.047 C 
BRANCH   6   7
ATOM      7  C   UNL     1       6.453   0.105  -0.740  1.00  0.00    -0.047 A 
ATOM      8  C   UNL     1       5.795   1.263  -0.393  1.00  0.00     0.004 A 
ATOM      9  C   UNL     1       6.587  -0.912   0.176  1.00  0.00     0.004 A 
ATOM     10  C   UNL     1       5.283   1.354   0.903  1.00  0.00     0.000 A 
ATOM     11  C   UNL     1       6.081  -0.820   1.458  1.00  0.00     0.000 A 
ATOM     12  C   UNL     1       5.421   0.337   1.813  1.00  0.00     0.000 A 
ENDBRANCH   6   7
ENDBRANCH   1   6
TORSDOF 4
ENDMDL
