@<TRIPOS>MOLECULE
/home/cewinharhar/GITHUB/reincatalyze/data/processed/docking_pred/2023-May-02-0947_maxeplen10_maxtrainstep1000_seadep32_gamma099_lrac9e-4_lrcr1e-3/51335195432d6c3c52ef841bfe8bb9323d602809_ligand_2.pdbqt
 12 12 0 0 0
SMALL
GASTEIGER

@<TRIPOS>ATOM
      1  C          8.3960   -0.6420   -2.0930 C.3     1  UNL1        0.1270
      2  C          8.3670   -1.8980   -2.8790 C.2     1  UNL1        0.3030
      3  O          7.2820   -2.4060   -3.2530 O.2     1  UNL1       -0.2520
      4  O          9.5420   -2.5470   -3.2240 O.3     1  UNL1       -0.4810
      5  H          9.9760   -2.3490   -4.1300 H       1  UNL1        0.2960
      6  C          7.0140   -0.0630   -2.0790 C.3     1  UNL1        0.0470
      7  C          6.4530    0.1050   -0.7400 C.2     1  UNL1       -0.0470
      8  C          5.7950    1.2630   -0.3930 C.2     1  UNL1        0.0040
      9  C          6.5870   -0.9120    0.1760 C.2     1  UNL1        0.0040
     10  C          5.2830    1.3540    0.9030 C.2     1  UNL1        0.0000
     11  C          6.0810   -0.8200    1.4580 C.2     1  UNL1        0.0000
     12  C          5.4210    0.3370    1.8130 C.2     1  UNL1        0.0000
@<TRIPOS>BOND
     1     5     4    1
     2     3     2    2
     3     4     2    1
     4     2     1    1
     5     1     6    1
     6     6     7    1
     7     7     8    2
     8     7     9    1
     9     8    10    1
    10     9    11    2
    11    10    12    2
    12    11    12    1
