@<TRIPOS>MOLECULE
/home/cewinharhar/GITHUB/reincatalyze/data/processed/docking_pred/2023-May-02-0947_maxeplen10_maxtrainstep1000_seadep32_gamma099_lrac9e-4_lrcr1e-3/51cadb519a72bd0ce332fe372f57097c9ba117cb_ligand_2.pdbqt
 12 12 0 0 0
SMALL
GASTEIGER

@<TRIPOS>ATOM
      1  C          8.3990   -0.6410   -2.0950 C.3     1  UNL1        0.1270
      2  C          8.3700   -1.8970   -2.8800 C.2     1  UNL1        0.3030
      3  O          7.2840   -2.4080   -3.2510 O.2     1  UNL1       -0.2520
      4  O          9.5450   -2.5440   -3.2290 O.3     1  UNL1       -0.4810
      5  H         10.3850   -1.9900   -3.4150 H       1  UNL1        0.2960
      6  C          7.0170   -0.0620   -2.0810 C.3     1  UNL1        0.0470
      7  C          6.4550    0.1040   -0.7420 C.2     1  UNL1       -0.0470
      8  C          5.7980    1.2610   -0.3930 C.2     1  UNL1        0.0040
      9  C          6.5870   -0.9160    0.1720 C.2     1  UNL1        0.0040
     10  C          5.2860    1.3500    0.9030 C.2     1  UNL1        0.0000
     11  C          6.0800   -0.8260    1.4540 C.2     1  UNL1        0.0000
     12  C          5.4220    0.3300    1.8110 C.2     1  UNL1        0.0000
@<TRIPOS>BOND
     1     5     4    1
     2     3     2    2
     3     4     2    1
     4     2     1    1
     5     1     6    1
     6     6     7    1
     7     7     8    2
     8     7     9    1
     9     8    10    1
    10     9    11    2
    11    10    12    2
    12    11    12    1
