@<TRIPOS>MOLECULE
/home/cewinharhar/GITHUB/reincatalyze/data/processed/docking_pred/2023-May-02-0947_maxeplen10_maxtrainstep1000_seadep32_gamma099_lrac9e-4_lrcr1e-3/53c3fbcdd7c01d09a3e8b21e27d629f70ce21da9_ligand_2.pdbqt
 12 12 0 0 0
SMALL
GASTEIGER

@<TRIPOS>ATOM
      1  C          4.9910    1.7940    0.7120 C.3     1  UNL1        0.1270
      2  C          4.4690    1.1120    1.9200 C.2     1  UNL1        0.3030
      3  O          5.1190    0.1970    2.4830 O.2     1  UNL1       -0.2520
      4  O          3.2430    1.4660    2.4610 O.3     1  UNL1       -0.4810
      5  H          3.0840    1.3400    3.4640 H       1  UNL1        0.2960
      6  C          6.4880    1.7640    0.7650 C.3     1  UNL1        0.0470
      7  C          7.1070    1.0140   -0.3260 C.2     1  UNL1       -0.0470
      8  C          6.3870    0.0800   -1.0340 C.2     1  UNL1        0.0040
      9  C          8.4240    1.2540   -0.6430 C.2     1  UNL1        0.0040
     10  C          7.0420   -0.5980   -2.0640 C.2     1  UNL1        0.0000
     11  C          9.0700    0.5820   -1.6620 C.2     1  UNL1        0.0000
     12  C          8.3560   -0.3560   -2.3760 C.2     1  UNL1        0.0000
@<TRIPOS>BOND
     1    12    10    2
     2    12    11    1
     3    10     8    1
     4    11     9    2
     5     8     7    2
     6     9     7    1
     7     7     6    1
     8     1     6    1
     9     1     2    1
    10     2     4    1
    11     2     3    2
    12     4     5    1
