@<TRIPOS>MOLECULE
/home/cewinharhar/GITHUB/reincatalyze/data/processed/docking_pred/2023-May-02-0947_maxeplen10_maxtrainstep1000_seadep32_gamma099_lrac9e-4_lrcr1e-3/53c3fbcdd7c01d09a3e8b21e27d629f70ce21da9_ligand_2.pdbqt
 12 12 0 0 0
SMALL
GASTEIGER

@<TRIPOS>ATOM
      1  C          5.4260    2.9100    0.0040 C.3     1  UNL1        0.1270
      2  C          6.2200    3.8790    0.7960 C.2     1  UNL1        0.3030
      3  O          6.9000    4.7750    0.2370 O.2     1  UNL1       -0.2520
      4  O          6.2350    3.8210    2.1800 O.3     1  UNL1       -0.4810
      5  H          7.0910    3.5290    2.6600 H       1  UNL1        0.2960
      6  C          4.9210    1.8460    0.9300 C.3     1  UNL1        0.0470
      7  C          5.7140    0.6180    0.9130 C.2     1  UNL1       -0.0470
      8  C          6.3870    0.2310   -0.2220 C.2     1  UNL1        0.0040
      9  C          5.7850   -0.1510    2.0520 C.2     1  UNL1        0.0040
     10  C          7.1260   -0.9530   -0.1660 C.2     1  UNL1        0.0000
     11  C          6.5150   -1.3210    2.1050 C.2     1  UNL1        0.0000
     12  C          7.1920   -1.7170    0.9720 C.2     1  UNL1        0.0000
@<TRIPOS>BOND
     1     8    10    1
     2     8     7    2
     3    10    12    2
     4     1     2    1
     5     1     6    1
     6     3     2    2
     7     2     4    1
     8     7     6    1
     9     7     9    1
    10    12    11    1
    11     9    11    2
    12     4     5    1
