@<TRIPOS>MOLECULE
/home/cewinharhar/GITHUB/reincatalyze/data/processed/docking_pred/2023-May-02-0947_maxeplen10_maxtrainstep1000_seadep32_gamma099_lrac9e-4_lrcr1e-3/53c3fbcdd7c01d09a3e8b21e27d629f70ce21da9_ligand_2.pdbqt
 12 12 0 0 0
SMALL
GASTEIGER

@<TRIPOS>ATOM
      1  C          7.2970   -1.2480   -2.1460 C.3     1  UNL1        0.1270
      2  C          8.7480   -1.2570   -2.4490 C.2     1  UNL1        0.3030
      3  O          9.5030   -0.3380   -2.0450 O.2     1  UNL1       -0.2520
      4  O          9.3120   -2.2850   -3.1870 O.3     1  UNL1       -0.4810
      5  H          9.5040   -3.1820   -2.7330 H       1  UNL1        0.2960
      6  C          7.1250   -1.3600   -0.6620 C.3     1  UNL1        0.0470
      7  C          6.3710   -0.2590   -0.0660 C.2     1  UNL1       -0.0470
      8  C          5.9180   -0.3370    1.2310 C.2     1  UNL1        0.0040
      9  C          6.1170    0.8650   -0.8170 C.2     1  UNL1        0.0040
     10  C          5.2050    0.7530    1.7350 C.2     1  UNL1        0.0000
     11  C          5.4120    1.9420   -0.3170 C.2     1  UNL1        0.0000
     12  C          4.9550    1.8710    0.9810 C.2     1  UNL1        0.0000
@<TRIPOS>BOND
     1     4     5    1
     2     4     2    1
     3     2     1    1
     4     2     3    2
     5     1     6    1
     6     9    11    1
     7     9     7    2
     8     6     7    1
     9    11    12    2
    10     7     8    1
    11    12    10    1
    12     8    10    2
