@<TRIPOS>MOLECULE
/home/cewinharhar/GITHUB/reincatalyze/data/processed/docking_pred/2023-May-02-0947_maxeplen10_maxtrainstep1000_seadep32_gamma099_lrac9e-4_lrcr1e-3/544f4ddee7da09465e084ab518e20d4fbc72de61_ligand_2.pdbqt
 12 12 0 0 0
SMALL
GASTEIGER

@<TRIPOS>ATOM
      1  C          8.2950    0.2450   -2.3110 C.3     1  UNL1        0.1270
      2  C          9.5140   -0.0040   -1.5070 C.2     1  UNL1        0.3030
      3  O          9.8480   -1.1680   -1.1730 O.2     1  UNL1       -0.2520
      4  O         10.3220    1.0450   -1.0990 O.3     1  UNL1       -0.4810
      5  H         10.0350    2.0060   -1.3010 H       1  UNL1        0.2960
      6  C          7.2040   -0.6460   -1.8000 C.3     1  UNL1        0.0470
      7  C          6.5260   -0.1330   -0.6100 C.2     1  UNL1       -0.0470
      8  C          6.4810   -0.8740    0.5480 C.2     1  UNL1        0.0040
      9  C          5.9320    1.1070   -0.6580 C.2     1  UNL1        0.0040
     10  C          5.8170   -0.3210    1.6460 C.2     1  UNL1        0.0000
     11  C          5.2770    1.6520    0.4280 C.2     1  UNL1        0.0000
     12  C          5.2260    0.9160    1.5920 C.2     1  UNL1        0.0000
@<TRIPOS>BOND
     1     1     6    1
     2     1     2    1
     3     6     7    1
     4     2     3    2
     5     2     4    1
     6     5     4    1
     7     9     7    2
     8     9    11    1
     9     7     8    1
    10    11    12    2
    11     8    10    2
    12    12    10    1
