@<TRIPOS>MOLECULE
/home/cewinharhar/GITHUB/reincatalyze/data/processed/docking_pred/2023-May-02-0947_maxeplen10_maxtrainstep1000_seadep32_gamma099_lrac9e-4_lrcr1e-3/54a2e3ceee1b2a6ac8591f20fd198e2f201bb612_ligand_2.pdbqt
 12 12 0 0 0
SMALL
GASTEIGER

@<TRIPOS>ATOM
      1  C          8.4040   -0.6630   -2.0680 C.3     1  UNL1        0.1270
      2  C          8.3730   -1.9060   -2.8740 C.2     1  UNL1        0.3030
      3  O          7.2870   -2.4100   -3.2510 O.2     1  UNL1       -0.2520
      4  O          9.5470   -2.5490   -3.2330 O.3     1  UNL1       -0.4810
      5  H         10.3750   -1.9900   -3.4590 H       1  UNL1        0.2960
      6  C          7.0280   -0.0690   -2.0650 C.3     1  UNL1        0.0470
      7  C          6.4570    0.1020   -0.7300 C.2     1  UNL1       -0.0470
      8  C          5.8030    1.2620   -0.3880 C.2     1  UNL1        0.0040
      9  C          6.5790   -0.9160    0.1880 C.2     1  UNL1        0.0040
     10  C          5.2820    1.3560    0.9050 C.2     1  UNL1        0.0000
     11  C          6.0630   -0.8220    1.4650 C.2     1  UNL1        0.0000
     12  C          5.4070    0.3380    1.8160 C.2     1  UNL1        0.0000
@<TRIPOS>BOND
     1     5     4    1
     2     3     2    2
     3     4     2    1
     4     2     1    1
     5     1     6    1
     6     6     7    1
     7     7     8    2
     8     7     9    1
     9     8    10    1
    10     9    11    2
    11    10    12    2
    12    11    12    1
