@<TRIPOS>MOLECULE
/home/cewinharhar/GITHUB/reincatalyze/data/processed/docking_pred/2023-May-02-0947_maxeplen10_maxtrainstep1000_seadep32_gamma099_lrac9e-4_lrcr1e-3/551e6d8a024554ec32308953f7464105b503c37a_ligand_2.pdbqt
 12 12 0 0 0
SMALL
GASTEIGER

@<TRIPOS>ATOM
      1  C          8.4060   -0.6550   -2.0780 C.3     1  UNL1        0.1270
      2  C          8.3760   -1.9000   -2.8800 C.2     1  UNL1        0.3030
      3  O          7.2890   -2.4140   -3.2440 O.2     1  UNL1       -0.2520
      4  O          9.5510   -2.5350   -3.2510 O.3     1  UNL1       -0.4810
      5  H         10.4330   -2.0170   -3.2130 H       1  UNL1        0.2960
      6  C          7.0290   -0.0650   -2.0720 C.3     1  UNL1        0.0470
      7  C          6.4590    0.1010   -0.7370 C.2     1  UNL1       -0.0470
      8  C          5.8050    1.2610   -0.3900 C.2     1  UNL1        0.0040
      9  C          6.5800   -0.9210    0.1770 C.2     1  UNL1        0.0040
     10  C          5.2840    1.3500    0.9030 C.2     1  UNL1        0.0000
     11  C          6.0650   -0.8310    1.4540 C.2     1  UNL1        0.0000
     12  C          5.4090    0.3280    1.8100 C.2     1  UNL1        0.0000
@<TRIPOS>BOND
     1     4     5    1
     2     4     2    1
     3     3     2    2
     4     2     1    1
     5     1     6    1
     6     6     7    1
     7     7     8    2
     8     7     9    1
     9     8    10    1
    10     9    11    2
    11    10    12    2
    12    11    12    1
