MODEL 1
REMARK VINA RESULT:      -7.2      0.000      0.000
REMARK SMILES O=C(O)CCc1ccccc1
REMARK SMILES IDX 4 1 2 2 1 3 3 4 5 6 6 7 7 8 11 9 8 10 10 11 9 12
REMARK H PARENT 3 5
REMARK Flexibility Score: inf
ROOT
ATOM      1  C   UNL     1       8.554  -0.590  -2.284  1.00  0.00     0.127 C 
ENDROOT
BRANCH   1   2
ATOM      2  C   UNL     1       8.546  -1.909  -2.959  1.00  0.00     0.303 C 
ATOM      3  O   UNL     1       9.608  -2.556  -3.135  1.00  0.00    -0.252 OA
BRANCH   2   4
ATOM      4  O   UNL     1       7.363  -2.465  -3.417  1.00  0.00    -0.481 OA
ATOM      5  H   UNL     1       7.206  -3.470  -3.306  1.00  0.00     0.296 HD
ENDBRANCH   2   4
ENDBRANCH   1   2
BRANCH   1   6
ATOM      6  C   UNL     1       7.139  -0.110  -2.171  1.00  0.00     0.047 C 
BRANCH   6   7
ATOM      7  C   UNL     1       6.738   0.245  -0.811  1.00  0.00    -0.047 A 
ATOM      8  C   UNL     1       5.769   1.196  -0.589  1.00  0.00     0.004 A 
ATOM      9  C   UNL     1       7.340  -0.386   0.253  1.00  0.00     0.004 A 
ATOM     10  C   UNL     1       5.435   1.485   0.736  1.00  0.00     0.000 A 
ATOM     11  C   UNL     1       7.009  -0.099   1.562  1.00  0.00     0.000 A 
ATOM     12  C   UNL     1       6.040   0.853   1.793  1.00  0.00     0.000 A 
ENDBRANCH   6   7
ENDBRANCH   1   6
TORSDOF 4
ENDMDL
MODEL 2
REMARK VINA RESULT:      -6.9      3.328      5.112
REMARK SMILES O=C(O)CCc1ccccc1
REMARK SMILES IDX 4 1 2 2 1 3 3 4 5 6 6 7 7 8 11 9 8 10 10 11 9 12
REMARK H PARENT 3 5
REMARK Flexibility Score: inf
ROOT
ATOM      1  C   UNL     1       5.020   1.773   0.653  1.00  0.00     0.127 C 
ENDROOT
BRANCH   1   2
ATOM      2  C   UNL     1       4.567   1.115   1.901  1.00  0.00     0.303 C 
ATOM      3  O   UNL     1       3.444   1.370   2.401  1.00  0.00    -0.252 OA
BRANCH   2   4
ATOM      4  O   UNL     1       5.374   0.196   2.552  1.00  0.00    -0.481 OA
ATOM      5  H   UNL     1       5.939   0.501   3.350  1.00  0.00     0.296 HD
ENDBRANCH   2   4
ENDBRANCH   1   2
BRANCH   1   6
ATOM      6  C   UNL     1       6.516   1.845   0.674  1.00  0.00     0.047 C 
BRANCH   6   7
ATOM      7  C   UNL     1       7.164   1.060  -0.375  1.00  0.00    -0.047 A 
ATOM      8  C   UNL     1       8.497   1.240  -0.666  1.00  0.00     0.004 A 
ATOM      9  C   UNL     1       6.426   0.132  -1.072  1.00  0.00     0.004 A 
ATOM     10  C   UNL     1       9.050   0.455  -1.680  1.00  0.00     0.000 A 
ATOM     11  C   UNL     1       6.975  -0.643  -2.074  1.00  0.00     0.000 A 
ATOM     12  C   UNL     1       8.309  -0.469  -2.373  1.00  0.00     0.000 A 
ENDBRANCH   6   7
ENDBRANCH   1   6
TORSDOF 4
ENDMDL
