@<TRIPOS>MOLECULE
/home/cewinharhar/GITHUB/reincatalyze/data/processed/docking_pred/2023-May-02-0947_maxeplen10_maxtrainstep1000_seadep32_gamma099_lrac9e-4_lrcr1e-3/55f9a48c22e019202c812c896c561d7470c53219_ligand_2.pdbqt
 12 12 0 0 0
SMALL
GASTEIGER

@<TRIPOS>ATOM
      1  C          5.0200    1.7730    0.6530 C.3     1  UNL1        0.1270
      2  C          4.5670    1.1150    1.9010 C.2     1  UNL1        0.3030
      3  O          3.4440    1.3700    2.4010 O.2     1  UNL1       -0.2520
      4  O          5.3740    0.1960    2.5520 O.3     1  UNL1       -0.4810
      5  H          5.9390    0.5010    3.3500 H       1  UNL1        0.2960
      6  C          6.5160    1.8450    0.6740 C.3     1  UNL1        0.0470
      7  C          7.1640    1.0600   -0.3750 C.2     1  UNL1       -0.0470
      8  C          8.4970    1.2400   -0.6660 C.2     1  UNL1        0.0040
      9  C          6.4260    0.1320   -1.0720 C.2     1  UNL1        0.0040
     10  C          9.0500    0.4550   -1.6800 C.2     1  UNL1        0.0000
     11  C          6.9750   -0.6430   -2.0740 C.2     1  UNL1        0.0000
     12  C          8.3090   -0.4690   -2.3730 C.2     1  UNL1        0.0000
@<TRIPOS>BOND
     1    12    11    2
     2    12    10    1
     3    11     9    1
     4    10     8    2
     5     9     7    2
     6     8     7    1
     7     7     6    1
     8     1     6    1
     9     1     2    1
    10     2     3    2
    11     2     4    1
    12     4     5    1
