@<TRIPOS>MOLECULE
/home/cewinharhar/GITHUB/reincatalyze/data/processed/docking_pred/2023-May-02-0947_maxeplen10_maxtrainstep1000_seadep32_gamma099_lrac9e-4_lrcr1e-3/55f9a48c22e019202c812c896c561d7470c53219_ligand_2.pdbqt
 12 12 0 0 0
SMALL
GASTEIGER

@<TRIPOS>ATOM
      1  C          8.5540   -0.5900   -2.2840 C.3     1  UNL1        0.1270
      2  C          8.5460   -1.9090   -2.9590 C.2     1  UNL1        0.3030
      3  O          9.6080   -2.5560   -3.1350 O.2     1  UNL1       -0.2520
      4  O          7.3630   -2.4650   -3.4170 O.3     1  UNL1       -0.4810
      5  H          7.2060   -3.4700   -3.3060 H       1  UNL1        0.2960
      6  C          7.1390   -0.1100   -2.1710 C.3     1  UNL1        0.0470
      7  C          6.7380    0.2450   -0.8110 C.2     1  UNL1       -0.0470
      8  C          5.7690    1.1960   -0.5890 C.2     1  UNL1        0.0040
      9  C          7.3400   -0.3860    0.2530 C.2     1  UNL1        0.0040
     10  C          5.4350    1.4850    0.7360 C.2     1  UNL1        0.0000
     11  C          7.0090   -0.0990    1.5620 C.2     1  UNL1        0.0000
     12  C          6.0400    0.8530    1.7930 C.2     1  UNL1        0.0000
@<TRIPOS>BOND
     1     4     5    1
     2     4     2    1
     3     3     2    2
     4     2     1    1
     5     1     6    1
     6     6     7    1
     7     7     8    2
     8     7     9    1
     9     8    10    1
    10     9    11    2
    11    10    12    2
    12    11    12    1
