MODEL 1
REMARK VINA RESULT:      -7.3      0.000      0.000
REMARK SMILES O=C(O)CCc1ccccc1
REMARK SMILES IDX 4 1 2 2 1 3 3 4 5 6 6 7 7 8 11 9 8 10 10 11 9 12
REMARK H PARENT 3 5
REMARK Flexibility Score: inf
ROOT
ATOM      1  C   UNL     1       8.393  -0.636  -2.099  1.00  0.00     0.127 C 
ENDROOT
BRANCH   1   2
ATOM      2  C   UNL     1       8.362  -1.893  -2.884  1.00  0.00     0.303 C 
ATOM      3  O   UNL     1       7.276  -2.402  -3.256  1.00  0.00    -0.252 OA
BRANCH   2   4
ATOM      4  O   UNL     1       9.536  -2.544  -3.228  1.00  0.00    -0.481 OA
ATOM      5  H   UNL     1      10.154  -2.125  -3.929  1.00  0.00     0.296 HD
ENDBRANCH   2   4
ENDBRANCH   1   2
BRANCH   1   6
ATOM      6  C   UNL     1       7.010  -0.060  -2.080  1.00  0.00     0.047 C 
BRANCH   6   7
ATOM      7  C   UNL     1       6.453   0.104  -0.738  1.00  0.00    -0.047 A 
ATOM      8  C   UNL     1       5.796   1.260  -0.386  1.00  0.00     0.004 A 
ATOM      9  C   UNL     1       6.591  -0.915   0.175  1.00  0.00     0.004 A 
ATOM     10  C   UNL     1       5.289   1.348   0.912  1.00  0.00     0.000 A 
ATOM     11  C   UNL     1       6.089  -0.827   1.459  1.00  0.00     0.000 A 
ATOM     12  C   UNL     1       5.430   0.329   1.820  1.00  0.00     0.000 A 
ENDBRANCH   6   7
ENDBRANCH   1   6
TORSDOF 4
ENDMDL
