@<TRIPOS>MOLECULE
/home/cewinharhar/GITHUB/reincatalyze/data/processed/docking_pred/2023-May-02-0947_maxeplen10_maxtrainstep1000_seadep32_gamma099_lrac9e-4_lrcr1e-3/57f45ec83c8c38489066d898ddae0638f0802b8b_ligand_2.pdbqt
 12 12 0 0 0
SMALL
GASTEIGER

@<TRIPOS>ATOM
      1  C          8.3930   -0.6360   -2.0990 C.3     1  UNL1        0.1270
      2  C          8.3620   -1.8930   -2.8840 C.2     1  UNL1        0.3030
      3  O          7.2760   -2.4020   -3.2560 O.2     1  UNL1       -0.2520
      4  O          9.5360   -2.5440   -3.2280 O.3     1  UNL1       -0.4810
      5  H         10.1540   -2.1250   -3.9290 H       1  UNL1        0.2960
      6  C          7.0100   -0.0600   -2.0800 C.3     1  UNL1        0.0470
      7  C          6.4530    0.1040   -0.7380 C.2     1  UNL1       -0.0470
      8  C          5.7960    1.2600   -0.3860 C.2     1  UNL1        0.0040
      9  C          6.5910   -0.9150    0.1750 C.2     1  UNL1        0.0040
     10  C          5.2890    1.3480    0.9120 C.2     1  UNL1        0.0000
     11  C          6.0890   -0.8270    1.4590 C.2     1  UNL1        0.0000
     12  C          5.4300    0.3290    1.8200 C.2     1  UNL1        0.0000
@<TRIPOS>BOND
     1     5     4    1
     2     3     2    2
     3     4     2    1
     4     2     1    1
     5     1     6    1
     6     6     7    1
     7     7     8    2
     8     7     9    1
     9     8    10    1
    10     9    11    2
    11    10    12    2
    12    11    12    1
