@<TRIPOS>MOLECULE
/home/cewinharhar/GITHUB/reincatalyze/data/processed/docking_pred/2023-May-02-0947_maxeplen10_maxtrainstep1000_seadep32_gamma099_lrac9e-4_lrcr1e-3/57f45ec83c8c38489066d898ddae0638f0802b8b_ligand_2.pdbqt
 12 12 0 0 0
SMALL
GASTEIGER

@<TRIPOS>ATOM
      1  C          5.9510   -0.8830    1.7820 C.3     1  UNL1        0.1270
      2  C          5.3840    0.4600    2.0480 C.2     1  UNL1        0.3030
      3  O          4.2020    0.5990    2.4500 O.2     1  UNL1       -0.2520
      4  O          6.1440    1.6030    1.8590 O.3     1  UNL1       -0.4810
      5  H          5.8170    2.3200    1.2060 H       1  UNL1        0.2960
      6  C          7.4130   -0.7270    1.4910 C.3     1  UNL1        0.0470
      7  C          7.7290   -0.6280    0.0670 C.2     1  UNL1       -0.0470
      8  C          8.8710    0.0100   -0.3570 C.2     1  UNL1        0.0040
      9  C          6.8690   -1.1840   -0.8510 C.2     1  UNL1        0.0040
     10  C          9.1100    0.0660   -1.7320 C.2     1  UNL1        0.0000
     11  C          7.1060   -1.1280   -2.2100 C.2     1  UNL1        0.0000
     12  C          8.2480   -0.4900   -2.6440 C.2     1  UNL1        0.0000
@<TRIPOS>BOND
     1    12    11    2
     2    12    10    1
     3    11     9    1
     4    10     8    2
     5     9     7    2
     6     8     7    1
     7     7     6    1
     8     5     4    1
     9     6     1    1
    10     1     2    1
    11     4     2    1
    12     2     3    2
