@<TRIPOS>MOLECULE
/home/cewinharhar/GITHUB/reincatalyze/data/processed/docking_pred/2023-May-02-0947_maxeplen10_maxtrainstep1000_seadep32_gamma099_lrac9e-4_lrcr1e-3/57f45ec83c8c38489066d898ddae0638f0802b8b_ligand_2.pdbqt
 12 12 0 0 0
SMALL
GASTEIGER

@<TRIPOS>ATOM
      1  C          5.0900   -0.1290    2.0410 C.3     1  UNL1        0.1270
      2  C          4.4080    1.1850    1.9720 C.2     1  UNL1        0.3030
      3  O          4.9230    2.1550    1.3630 O.2     1  UNL1       -0.2520
      4  O          3.1780    1.3790    2.5800 O.3     1  UNL1       -0.4810
      5  H          3.1440    1.6490    3.5670 H       1  UNL1        0.2960
      6  C          6.5400    0.0760    1.7230 C.3     1  UNL1        0.0470
      7  C          7.0130   -0.7000    0.5780 C.2     1  UNL1       -0.0470
      8  C          6.6310   -0.3690   -0.7020 C.2     1  UNL1        0.0040
      9  C          7.8510   -1.7700    0.7920 C.2     1  UNL1        0.0040
     10  C          7.1220   -1.1530   -1.7480 C.2     1  UNL1        0.0000
     11  C          8.3350   -2.5440   -0.2430 C.2     1  UNL1        0.0000
     12  C          7.9570   -2.2200   -1.5280 C.2     1  UNL1        0.0000
@<TRIPOS>BOND
     1    10    12    2
     2    10     8    1
     3    12    11    1
     4     8     7    2
     5    11     9    2
     6     7     9    1
     7     7     6    1
     8     3     2    2
     9     6     1    1
    10     2     1    1
    11     2     4    1
    12     4     5    1
