@<TRIPOS>MOLECULE
/home/cewinharhar/GITHUB/reincatalyze/data/processed/docking_pred/2023-May-02-0947_maxeplen10_maxtrainstep1000_seadep32_gamma099_lrac9e-4_lrcr1e-3/59d8efee26bc15572bc8cf3b0279eede3143e347_ligand_2.pdbqt
 12 12 0 0 0
SMALL
GASTEIGER

@<TRIPOS>ATOM
      1  C          8.4040   -0.6560   -2.0790 C.3     1  UNL1        0.1270
      2  C          8.3770   -1.9030   -2.8790 C.2     1  UNL1        0.3030
      3  O          7.2920   -2.4210   -3.2410 O.2     1  UNL1       -0.2520
      4  O          9.5540   -2.5340   -3.2500 O.3     1  UNL1       -0.4810
      5  H          9.5230   -3.5100   -3.5580 H       1  UNL1        0.2960
      6  C          7.0260   -0.0660   -2.0800 C.3     1  UNL1        0.0470
      7  C          6.4510    0.1030   -0.7460 C.2     1  UNL1       -0.0470
      8  C          5.7970    1.2640   -0.4050 C.2     1  UNL1        0.0040
      9  C          6.5700   -0.9160    0.1700 C.2     1  UNL1        0.0040
     10  C          5.2710    1.3560    0.8860 C.2     1  UNL1        0.0000
     11  C          6.0510   -0.8230    1.4460 C.2     1  UNL1        0.0000
     12  C          5.3940    0.3370    1.7960 C.2     1  UNL1        0.0000
@<TRIPOS>BOND
     1     5     4    1
     2     4     2    1
     3     3     2    2
     4     2     1    1
     5     6     1    1
     6     6     7    1
     7     7     8    2
     8     7     9    1
     9     8    10    1
    10     9    11    2
    11    10    12    2
    12    11    12    1
