MODEL 1
REMARK VINA RESULT:      -7.3      0.000      0.000
REMARK SMILES O=C(O)CCc1ccccc1
REMARK SMILES IDX 4 1 2 2 1 3 3 4 5 6 6 7 7 8 11 9 8 10 10 11 9 12
REMARK H PARENT 3 5
REMARK Flexibility Score: inf
ROOT
ATOM      1  C   UNL     1       8.404  -0.656  -2.079  1.00  0.00     0.127 C 
ENDROOT
BRANCH   1   2
ATOM      2  C   UNL     1       8.377  -1.903  -2.879  1.00  0.00     0.303 C 
ATOM      3  O   UNL     1       7.292  -2.421  -3.241  1.00  0.00    -0.252 OA
BRANCH   2   4
ATOM      4  O   UNL     1       9.554  -2.534  -3.250  1.00  0.00    -0.481 OA
ATOM      5  H   UNL     1       9.523  -3.510  -3.558  1.00  0.00     0.296 HD
ENDBRANCH   2   4
ENDBRANCH   1   2
BRANCH   1   6
ATOM      6  C   UNL     1       7.026  -0.066  -2.080  1.00  0.00     0.047 C 
BRANCH   6   7
ATOM      7  C   UNL     1       6.451   0.103  -0.746  1.00  0.00    -0.047 A 
ATOM      8  C   UNL     1       5.797   1.264  -0.405  1.00  0.00     0.004 A 
ATOM      9  C   UNL     1       6.570  -0.916   0.170  1.00  0.00     0.004 A 
ATOM     10  C   UNL     1       5.271   1.356   0.886  1.00  0.00     0.000 A 
ATOM     11  C   UNL     1       6.051  -0.823   1.446  1.00  0.00     0.000 A 
ATOM     12  C   UNL     1       5.394   0.337   1.796  1.00  0.00     0.000 A 
ENDBRANCH   6   7
ENDBRANCH   1   6
TORSDOF 4
ENDMDL
