@<TRIPOS>MOLECULE
/home/cewinharhar/GITHUB/reincatalyze/data/processed/docking_pred/2023-May-02-0947_maxeplen10_maxtrainstep1000_seadep32_gamma099_lrac9e-4_lrcr1e-3/5ba5439e64352188cd964ddb86dd28d806e95272_ligand_2.pdbqt
 12 12 0 0 0
SMALL
GASTEIGER

@<TRIPOS>ATOM
      1  C          8.4050   -0.6670   -2.0620 C.3     1  UNL1        0.1270
      2  C          8.3750   -1.9070   -2.8740 C.2     1  UNL1        0.3030
      3  O          7.2880   -2.4130   -3.2480 O.2     1  UNL1       -0.2520
      4  O          9.5490   -2.5430   -3.2430 O.3     1  UNL1       -0.4810
      5  H         10.2260   -2.0450   -3.8270 H       1  UNL1        0.2960
      6  C          7.0310   -0.0700   -2.0620 C.3     1  UNL1        0.0470
      7  C          6.4570    0.1000   -0.7290 C.2     1  UNL1       -0.0470
      8  C          5.8030    1.2610   -0.3870 C.2     1  UNL1        0.0040
      9  C          6.5740   -0.9200    0.1880 C.2     1  UNL1        0.0040
     10  C          5.2780    1.3530    0.9040 C.2     1  UNL1        0.0000
     11  C          6.0550   -0.8260    1.4630 C.2     1  UNL1        0.0000
     12  C          5.3990    0.3340    1.8140 C.2     1  UNL1        0.0000
@<TRIPOS>BOND
     1     5     4    1
     2     3     2    2
     3     4     2    1
     4     2     1    1
     5     1     6    1
     6     6     7    1
     7     7     8    2
     8     7     9    1
     9     8    10    1
    10     9    11    2
    11    10    12    2
    12    11    12    1
