@<TRIPOS>MOLECULE
/home/cewinharhar/GITHUB/reincatalyze/data/processed/docking_pred/2023-May-02-0947_maxeplen10_maxtrainstep1000_seadep32_gamma099_lrac9e-4_lrcr1e-3/5bd4159c0713ad18fb2d2a846002564f6b7df27c_ligand_2.pdbqt
 12 12 0 0 0
SMALL
GASTEIGER

@<TRIPOS>ATOM
      1  C          8.6630    0.1110   -1.6370 C.3     1  UNL1        0.1270
      2  C          8.7010   -0.9000   -2.7200 C.2     1  UNL1        0.3030
      3  O          9.5290   -1.8430   -2.7010 O.2     1  UNL1       -0.2520
      4  O          7.8200   -0.8300   -3.7870 O.3     1  UNL1       -0.4810
      5  H          6.9460   -0.3080   -3.6820 H       1  UNL1        0.2960
      6  C          7.8930   -0.4620   -0.4860 C.3     1  UNL1        0.0470
      7  C          6.8130    0.3980   -0.0060 C.2     1  UNL1       -0.0470
      8  C          6.2830    0.2260    1.2520 C.2     1  UNL1        0.0040
      9  C          6.3280    1.3890   -0.8280 C.2     1  UNL1        0.0040
     10  C          5.2530    1.0840    1.6440 C.2     1  UNL1        0.0000
     11  C          5.3100    2.2360   -0.4390 C.2     1  UNL1        0.0000
     12  C          4.7730    2.0700    0.8190 C.2     1  UNL1        0.0000
@<TRIPOS>BOND
     1     4     5    1
     2     4     2    1
     3     2     3    2
     4     2     1    1
     5     1     6    1
     6     9    11    1
     7     9     7    2
     8     6     7    1
     9    11    12    2
    10     7     8    1
    11    12    10    1
    12     8    10    2
