@<TRIPOS>MOLECULE
/home/cewinharhar/GITHUB/reincatalyze/data/processed/docking_pred/2023-May-02-0947_maxeplen10_maxtrainstep1000_seadep32_gamma099_lrac9e-4_lrcr1e-3/5bd4159c0713ad18fb2d2a846002564f6b7df27c_ligand_2.pdbqt
 12 12 0 0 0
SMALL
GASTEIGER

@<TRIPOS>ATOM
      1  C          5.0280    1.7780    0.6540 C.3     1  UNL1        0.1270
      2  C          4.5740    1.1160    1.9000 C.2     1  UNL1        0.3030
      3  O          3.4500    1.3710    2.4000 O.2     1  UNL1       -0.2520
      4  O          5.3800    0.1940    2.5490 O.3     1  UNL1       -0.4810
      5  H          6.1140    0.5270    3.1790 H       1  UNL1        0.2960
      6  C          6.5250    1.8430    0.6750 C.3     1  UNL1        0.0470
      7  C          7.1690    1.0580   -0.3760 C.2     1  UNL1       -0.0470
      8  C          8.5010    1.2340   -0.6700 C.2     1  UNL1        0.0040
      9  C          6.4270    0.1330   -1.0730 C.2     1  UNL1        0.0040
     10  C          9.0510    0.4490   -1.6860 C.2     1  UNL1        0.0000
     11  C          6.9720   -0.6420   -2.0770 C.2     1  UNL1        0.0000
     12  C          8.3050   -0.4720   -2.3780 C.2     1  UNL1        0.0000
@<TRIPOS>BOND
     1    12    11    2
     2    12    10    1
     3    11     9    1
     4    10     8    2
     5     9     7    2
     6     8     7    1
     7     7     6    1
     8     1     6    1
     9     1     2    1
    10     2     3    2
    11     2     4    1
    12     4     5    1
