MODEL 1
REMARK VINA RESULT:      -7.2      0.000      0.000
REMARK SMILES O=C(O)CCc1ccccc1
REMARK SMILES IDX 4 1 2 2 1 3 3 4 5 6 6 7 7 8 11 9 8 10 10 11 9 12
REMARK H PARENT 3 5
REMARK Flexibility Score: inf
ROOT
ATOM      1  C   UNL     1       8.567  -0.604  -2.263  1.00  0.00     0.127 C 
ENDROOT
BRANCH   1   2
ATOM      2  C   UNL     1       8.545  -1.912  -2.959  1.00  0.00     0.303 C 
ATOM      3  O   UNL     1       9.597  -2.576  -3.129  1.00  0.00    -0.252 OA
BRANCH   2   4
ATOM      4  O   UNL     1       7.359  -2.439  -3.443  1.00  0.00    -0.481 OA
ATOM      5  H   UNL     1       6.780  -3.017  -2.828  1.00  0.00     0.296 HD
ENDBRANCH   2   4
ENDBRANCH   1   2
BRANCH   1   6
ATOM      6  C   UNL     1       7.159  -0.102  -2.158  1.00  0.00     0.047 C 
BRANCH   6   7
ATOM      7  C   UNL     1       6.751   0.245  -0.798  1.00  0.00    -0.047 A 
ATOM      8  C   UNL     1       5.773   1.187  -0.577  1.00  0.00     0.004 A 
ATOM      9  C   UNL     1       7.356  -0.383   0.265  1.00  0.00     0.004 A 
ATOM     10  C   UNL     1       5.433   1.468   0.749  1.00  0.00     0.000 A 
ATOM     11  C   UNL     1       7.019  -0.103   1.575  1.00  0.00     0.000 A 
ATOM     12  C   UNL     1       6.040   0.839   1.806  1.00  0.00     0.000 A 
ENDBRANCH   6   7
ENDBRANCH   1   6
TORSDOF 4
ENDMDL
MODEL 2
REMARK VINA RESULT:      -6.9      3.328      5.113
REMARK SMILES O=C(O)CCc1ccccc1
REMARK SMILES IDX 4 1 2 2 1 3 3 4 5 6 6 7 7 8 11 9 8 10 10 11 9 12
REMARK H PARENT 3 5
REMARK Flexibility Score: inf
ROOT
ATOM      1  C   UNL     1       5.028   1.778   0.654  1.00  0.00     0.127 C 
ENDROOT
BRANCH   1   2
ATOM      2  C   UNL     1       4.574   1.116   1.900  1.00  0.00     0.303 C 
ATOM      3  O   UNL     1       3.450   1.371   2.400  1.00  0.00    -0.252 OA
BRANCH   2   4
ATOM      4  O   UNL     1       5.380   0.194   2.549  1.00  0.00    -0.481 OA
ATOM      5  H   UNL     1       6.114   0.527   3.179  1.00  0.00     0.296 HD
ENDBRANCH   2   4
ENDBRANCH   1   2
BRANCH   1   6
ATOM      6  C   UNL     1       6.525   1.843   0.675  1.00  0.00     0.047 C 
BRANCH   6   7
ATOM      7  C   UNL     1       7.169   1.058  -0.376  1.00  0.00    -0.047 A 
ATOM      8  C   UNL     1       8.501   1.234  -0.670  1.00  0.00     0.004 A 
ATOM      9  C   UNL     1       6.427   0.133  -1.073  1.00  0.00     0.004 A 
ATOM     10  C   UNL     1       9.051   0.449  -1.686  1.00  0.00     0.000 A 
ATOM     11  C   UNL     1       6.972  -0.642  -2.077  1.00  0.00     0.000 A 
ATOM     12  C   UNL     1       8.305  -0.472  -2.378  1.00  0.00     0.000 A 
ENDBRANCH   6   7
ENDBRANCH   1   6
TORSDOF 4
ENDMDL
MODEL 3
REMARK VINA RESULT:      -5.4      1.037      1.839
REMARK SMILES O=C(O)CCc1ccccc1
REMARK SMILES IDX 4 1 2 2 1 3 3 4 5 6 6 7 7 8 11 9 8 10 10 11 9 12
REMARK H PARENT 3 5
REMARK Flexibility Score: inf
ROOT
ATOM      1  C   UNL     1       8.663   0.111  -1.637  1.00  0.00     0.127 C 
ENDROOT
BRANCH   1   2
ATOM      2  C   UNL     1       8.701  -0.900  -2.720  1.00  0.00     0.303 C 
ATOM      3  O   UNL     1       9.529  -1.843  -2.701  1.00  0.00    -0.252 OA
BRANCH   2   4
ATOM      4  O   UNL     1       7.820  -0.830  -3.787  1.00  0.00    -0.481 OA
ATOM      5  H   UNL     1       6.946  -0.308  -3.682  1.00  0.00     0.296 HD
ENDBRANCH   2   4
ENDBRANCH   1   2
BRANCH   1   6
ATOM      6  C   UNL     1       7.893  -0.462  -0.486  1.00  0.00     0.047 C 
BRANCH   6   7
ATOM      7  C   UNL     1       6.813   0.398  -0.006  1.00  0.00    -0.047 A 
ATOM      8  C   UNL     1       6.283   0.226   1.252  1.00  0.00     0.004 A 
ATOM      9  C   UNL     1       6.328   1.389  -0.828  1.00  0.00     0.004 A 
ATOM     10  C   UNL     1       5.253   1.084   1.644  1.00  0.00     0.000 A 
ATOM     11  C   UNL     1       5.310   2.236  -0.439  1.00  0.00     0.000 A 
ATOM     12  C   UNL     1       4.773   2.070   0.819  1.00  0.00     0.000 A 
ENDBRANCH   6   7
ENDBRANCH   1   6
TORSDOF 4
ENDMDL
