@<TRIPOS>MOLECULE
/home/cewinharhar/GITHUB/reincatalyze/data/processed/docking_pred/2023-May-02-0947_maxeplen10_maxtrainstep1000_seadep32_gamma099_lrac9e-4_lrcr1e-3/5bd4159c0713ad18fb2d2a846002564f6b7df27c_ligand_2.pdbqt
 12 12 0 0 0
SMALL
GASTEIGER

@<TRIPOS>ATOM
      1  C          8.5670   -0.6040   -2.2630 C.3     1  UNL1        0.1270
      2  C          8.5450   -1.9120   -2.9590 C.2     1  UNL1        0.3030
      3  O          9.5970   -2.5760   -3.1290 O.2     1  UNL1       -0.2520
      4  O          7.3590   -2.4390   -3.4430 O.3     1  UNL1       -0.4810
      5  H          6.7800   -3.0170   -2.8280 H       1  UNL1        0.2960
      6  C          7.1590   -0.1020   -2.1580 C.3     1  UNL1        0.0470
      7  C          6.7510    0.2450   -0.7980 C.2     1  UNL1       -0.0470
      8  C          5.7730    1.1870   -0.5770 C.2     1  UNL1        0.0040
      9  C          7.3560   -0.3830    0.2650 C.2     1  UNL1        0.0040
     10  C          5.4330    1.4680    0.7490 C.2     1  UNL1        0.0000
     11  C          7.0190   -0.1030    1.5750 C.2     1  UNL1        0.0000
     12  C          6.0400    0.8390    1.8060 C.2     1  UNL1        0.0000
@<TRIPOS>BOND
     1     4     2    1
     2     4     5    1
     3     3     2    2
     4     2     1    1
     5     1     6    1
     6     6     7    1
     7     7     8    2
     8     7     9    1
     9     8    10    1
    10     9    11    2
    11    10    12    2
    12    11    12    1
