MODEL 1
REMARK VINA RESULT:      -7.3      0.000      0.000
REMARK SMILES O=C(O)CCc1ccccc1
REMARK SMILES IDX 4 1 2 2 1 3 3 4 5 6 6 7 7 8 11 9 8 10 10 11 9 12
REMARK H PARENT 3 5
REMARK Flexibility Score: inf
ROOT
ATOM      1  C   UNL     1       8.406  -0.658  -2.075  1.00  0.00     0.127 C 
ENDROOT
BRANCH   1   2
ATOM      2  C   UNL     1       8.375  -1.905  -2.876  1.00  0.00     0.303 C 
ATOM      3  O   UNL     1       7.289  -2.411  -3.252  1.00  0.00    -0.252 OA
BRANCH   2   4
ATOM      4  O   UNL     1       9.549  -2.548  -3.233  1.00  0.00    -0.481 OA
ATOM      5  H   UNL     1       9.912  -3.297  -2.637  1.00  0.00     0.296 HD
ENDBRANCH   2   4
ENDBRANCH   1   2
BRANCH   1   6
ATOM      6  C   UNL     1       7.028  -0.068  -2.070  1.00  0.00     0.047 C 
BRANCH   6   7
ATOM      7  C   UNL     1       6.458   0.099  -0.734  1.00  0.00    -0.047 A 
ATOM      8  C   UNL     1       5.804   1.259  -0.389  1.00  0.00     0.004 A 
ATOM      9  C   UNL     1       6.580  -0.921   0.181  1.00  0.00     0.004 A 
ATOM     10  C   UNL     1       5.284   1.349   0.904  1.00  0.00     0.000 A 
ATOM     11  C   UNL     1       6.065  -0.830   1.459  1.00  0.00     0.000 A 
ATOM     12  C   UNL     1       5.409   0.329   1.813  1.00  0.00     0.000 A 
ENDBRANCH   6   7
ENDBRANCH   1   6
TORSDOF 4
ENDMDL
