@<TRIPOS>MOLECULE
/home/cewinharhar/GITHUB/reincatalyze/data/processed/docking_pred/2023-May-02-0947_maxeplen10_maxtrainstep1000_seadep32_gamma099_lrac9e-4_lrcr1e-3/5e677739909452415bd62a3bb65a8cc9d063ea2f_ligand_2.pdbqt
 12 12 0 0 0
SMALL
GASTEIGER

@<TRIPOS>ATOM
      1  C          8.5880   -0.7080   -2.0260 C.3     1  UNL1        0.1270
      2  C          8.6430   -1.9190   -2.8780 C.2     1  UNL1        0.3030
      3  O          9.7360   -2.4720   -3.1550 O.2     1  UNL1       -0.2520
      4  O          7.4840   -2.4760   -3.3950 O.3     1  UNL1       -0.4810
      5  H          7.1130   -3.3350   -2.9790 H       1  UNL1        0.2960
      6  C          7.1950   -0.1580   -2.0780 C.3     1  UNL1        0.0470
      7  C          6.5810    0.0300   -0.7650 C.2     1  UNL1       -0.0470
      8  C          5.9380    1.2040   -0.4510 C.2     1  UNL1        0.0040
      9  C          6.6500   -0.9860    0.1600 C.2     1  UNL1        0.0040
     10  C          5.3730    1.3140    0.8220 C.2     1  UNL1        0.0000
     11  C          6.0910   -0.8760    1.4180 C.2     1  UNL1        0.0000
     12  C          5.4450    0.2980    1.7410 C.2     1  UNL1        0.0000
@<TRIPOS>BOND
     1     4     5    1
     2     4     2    1
     3     3     2    2
     4     2     1    1
     5     6     1    1
     6     6     7    1
     7     7     8    2
     8     7     9    1
     9     8    10    1
    10     9    11    2
    11    10    12    2
    12    11    12    1
