MODEL 1
REMARK VINA RESULT:      -7.0      0.000      0.000
REMARK SMILES O=C(O)CCc1ccccc1
REMARK SMILES IDX 4 1 2 2 1 3 3 4 5 6 6 7 7 8 11 9 8 10 10 11 9 12
REMARK H PARENT 3 5
REMARK Flexibility Score: inf
ROOT
ATOM      1  C   UNL     1       8.588  -0.708  -2.026  1.00  0.00     0.127 C 
ENDROOT
BRANCH   1   2
ATOM      2  C   UNL     1       8.643  -1.919  -2.878  1.00  0.00     0.303 C 
ATOM      3  O   UNL     1       9.736  -2.472  -3.155  1.00  0.00    -0.252 OA
BRANCH   2   4
ATOM      4  O   UNL     1       7.484  -2.476  -3.395  1.00  0.00    -0.481 OA
ATOM      5  H   UNL     1       7.113  -3.335  -2.979  1.00  0.00     0.296 HD
ENDBRANCH   2   4
ENDBRANCH   1   2
BRANCH   1   6
ATOM      6  C   UNL     1       7.195  -0.158  -2.078  1.00  0.00     0.047 C 
BRANCH   6   7
ATOM      7  C   UNL     1       6.581   0.030  -0.765  1.00  0.00    -0.047 A 
ATOM      8  C   UNL     1       5.938   1.204  -0.451  1.00  0.00     0.004 A 
ATOM      9  C   UNL     1       6.650  -0.986   0.160  1.00  0.00     0.004 A 
ATOM     10  C   UNL     1       5.373   1.314   0.822  1.00  0.00     0.000 A 
ATOM     11  C   UNL     1       6.091  -0.876   1.418  1.00  0.00     0.000 A 
ATOM     12  C   UNL     1       5.445   0.298   1.741  1.00  0.00     0.000 A 
ENDBRANCH   6   7
ENDBRANCH   1   6
TORSDOF 4
ENDMDL
MODEL 2
REMARK VINA RESULT:      -6.6      1.502      2.323
REMARK SMILES O=C(O)CCc1ccccc1
REMARK SMILES IDX 4 1 2 2 1 3 3 4 5 6 6 7 7 8 11 9 8 10 10 11 9 12
REMARK H PARENT 3 5
REMARK Flexibility Score: inf
ROOT
ATOM      1  C   UNL     1       8.182   0.263  -2.382  1.00  0.00     0.127 C 
ENDROOT
BRANCH   1   2
ATOM      2  C   UNL     1       9.497   0.029  -1.740  1.00  0.00     0.303 C 
ATOM      3  O   UNL     1      10.012  -1.116  -1.711  1.00  0.00    -0.252 OA
BRANCH   2   4
ATOM      4  O   UNL     1      10.196   1.070  -1.152  1.00  0.00    -0.481 OA
ATOM      5  H   UNL     1       9.817   1.517  -0.313  1.00  0.00     0.296 HD
ENDBRANCH   2   4
ENDBRANCH   1   2
BRANCH   1   6
ATOM      6  C   UNL     1       7.196  -0.704  -1.801  1.00  0.00     0.047 C 
BRANCH   6   7
ATOM      7  C   UNL     1       6.537  -0.224  -0.587  1.00  0.00    -0.047 A 
ATOM      8  C   UNL     1       6.502  -1.001   0.548  1.00  0.00     0.004 A 
ATOM      9  C   UNL     1       5.951   1.020  -0.588  1.00  0.00     0.004 A 
ATOM     10  C   UNL     1       5.857  -0.478   1.671  1.00  0.00     0.000 A 
ATOM     11  C   UNL     1       5.313   1.535   0.523  1.00  0.00     0.000 A 
ATOM     12  C   UNL     1       5.273   0.763   1.664  1.00  0.00     0.000 A 
ENDBRANCH   6   7
ENDBRANCH   1   6
TORSDOF 4
ENDMDL
