@<TRIPOS>MOLECULE
/home/cewinharhar/GITHUB/reincatalyze/data/processed/docking_pred/2023-May-02-0947_maxeplen10_maxtrainstep1000_seadep32_gamma099_lrac9e-4_lrcr1e-3/5e677739909452415bd62a3bb65a8cc9d063ea2f_ligand_2.pdbqt
 12 12 0 0 0
SMALL
GASTEIGER

@<TRIPOS>ATOM
      1  C          8.1820    0.2630   -2.3820 C.3     1  UNL1        0.1270
      2  C          9.4970    0.0290   -1.7400 C.2     1  UNL1        0.3030
      3  O         10.0120   -1.1160   -1.7110 O.2     1  UNL1       -0.2520
      4  O         10.1960    1.0700   -1.1520 O.3     1  UNL1       -0.4810
      5  H          9.8170    1.5170   -0.3130 H       1  UNL1        0.2960
      6  C          7.1960   -0.7040   -1.8010 C.3     1  UNL1        0.0470
      7  C          6.5370   -0.2240   -0.5870 C.2     1  UNL1       -0.0470
      8  C          6.5020   -1.0010    0.5480 C.2     1  UNL1        0.0040
      9  C          5.9510    1.0200   -0.5880 C.2     1  UNL1        0.0040
     10  C          5.8570   -0.4780    1.6710 C.2     1  UNL1        0.0000
     11  C          5.3130    1.5350    0.5230 C.2     1  UNL1        0.0000
     12  C          5.2730    0.7630    1.6640 C.2     1  UNL1        0.0000
@<TRIPOS>BOND
     1     1     6    1
     2     1     2    1
     3     6     7    1
     4     2     3    2
     5     2     4    1
     6     4     5    1
     7     9     7    2
     8     9    11    1
     9     7     8    1
    10    11    12    2
    11     8    10    2
    12    12    10    1
