@<TRIPOS>MOLECULE
/home/cewinharhar/GITHUB/reincatalyze/data/processed/docking_pred/2023-May-02-0947_maxeplen10_maxtrainstep1000_seadep32_gamma099_lrac9e-4_lrcr1e-3/5f00cdda1ab61f28c1ea6d7129614616e9231d70_ligand_2.pdbqt
 12 12 0 0 0
SMALL
GASTEIGER

@<TRIPOS>ATOM
      1  C          8.2450   -0.4770   -2.3520 C.3     1  UNL1        0.1270
      2  C          8.3730   -1.8190   -2.9670 C.2     1  UNL1        0.3030
      3  O          9.4890   -2.3870   -3.0610 O.2     1  UNL1       -0.2520
      4  O          7.2610   -2.4840   -3.4570 O.3     1  UNL1       -0.4810
      5  H          7.3870   -3.2200   -4.1580 H       1  UNL1        0.2960
      6  C          7.0140   -0.4660   -1.4970 C.3     1  UNL1        0.0470
      7  C          6.8340    0.7640   -0.7290 C.2     1  UNL1       -0.0470
      8  C          7.8990    1.3570   -0.0910 C.2     1  UNL1        0.0040
      9  C          5.5830    1.3300   -0.6500 C.2     1  UNL1        0.0040
     10  C          7.6540    2.5320    0.6240 C.2     1  UNL1        0.0000
     11  C          5.3420    2.4910    0.0570 C.2     1  UNL1        0.0000
     12  C          6.4030    3.0910    0.7000 C.2     1  UNL1        0.0000
@<TRIPOS>BOND
     1     5     4    1
     2     4     2    1
     3     3     2    2
     4     2     1    1
     5     1     6    1
     6     6     7    1
     7     7     9    2
     8     7     8    1
     9     9    11    1
    10     8    10    2
    11    11    12    2
    12    10    12    1
