MODEL 1
REMARK VINA RESULT:      -7.0      0.000      0.000
REMARK SMILES O=C(O)CCc1ccccc1
REMARK SMILES IDX 4 1 2 2 1 3 3 4 5 6 6 7 7 8 11 9 8 10 10 11 9 12
REMARK H PARENT 3 5
REMARK Flexibility Score: inf
ROOT
ATOM      1  C   UNL     1       8.401  -0.670  -2.059  1.00  0.00     0.127 C 
ENDROOT
BRANCH   1   2
ATOM      2  C   UNL     1       8.372  -1.905  -2.878  1.00  0.00     0.303 C 
ATOM      3  O   UNL     1       7.286  -2.413  -3.251  1.00  0.00    -0.252 OA
BRANCH   2   4
ATOM      4  O   UNL     1       9.548  -2.534  -3.254  1.00  0.00    -0.481 OA
ATOM      5  H   UNL     1      10.336  -2.555  -2.601  1.00  0.00     0.296 HD
ENDBRANCH   2   4
ENDBRANCH   1   2
BRANCH   1   6
ATOM      6  C   UNL     1       7.027  -0.072  -2.061  1.00  0.00     0.047 C 
BRANCH   6   7
ATOM      7  C   UNL     1       6.449   0.095  -0.728  1.00  0.00    -0.047 A 
ATOM      8  C   UNL     1       5.796   1.255  -0.385  1.00  0.00     0.004 A 
ATOM      9  C   UNL     1       6.564  -0.927   0.185  1.00  0.00     0.004 A 
ATOM     10  C   UNL     1       5.268   1.345   0.905  1.00  0.00     0.000 A 
ATOM     11  C   UNL     1       6.042  -0.837   1.461  1.00  0.00     0.000 A 
ATOM     12  C   UNL     1       5.386   0.323   1.813  1.00  0.00     0.000 A 
ENDBRANCH   6   7
ENDBRANCH   1   6
TORSDOF 4
ENDMDL
MODEL 2
REMARK VINA RESULT:      -6.8      1.409      2.202
REMARK SMILES O=C(O)CCc1ccccc1
REMARK SMILES IDX 4 1 2 2 1 3 3 4 5 6 6 7 7 8 11 9 8 10 10 11 9 12
REMARK H PARENT 3 5
REMARK Flexibility Score: inf
ROOT
ATOM      1  C   UNL     1       8.245  -0.477  -2.352  1.00  0.00     0.127 C 
ENDROOT
BRANCH   1   2
ATOM      2  C   UNL     1       8.373  -1.819  -2.967  1.00  0.00     0.303 C 
ATOM      3  O   UNL     1       9.489  -2.387  -3.061  1.00  0.00    -0.252 OA
BRANCH   2   4
ATOM      4  O   UNL     1       7.261  -2.484  -3.457  1.00  0.00    -0.481 OA
ATOM      5  H   UNL     1       7.387  -3.220  -4.158  1.00  0.00     0.296 HD
ENDBRANCH   2   4
ENDBRANCH   1   2
BRANCH   1   6
ATOM      6  C   UNL     1       7.014  -0.466  -1.497  1.00  0.00     0.047 C 
BRANCH   6   7
ATOM      7  C   UNL     1       6.834   0.764  -0.729  1.00  0.00    -0.047 A 
ATOM      8  C   UNL     1       7.899   1.357  -0.091  1.00  0.00     0.004 A 
ATOM      9  C   UNL     1       5.583   1.330  -0.650  1.00  0.00     0.004 A 
ATOM     10  C   UNL     1       7.654   2.532   0.624  1.00  0.00     0.000 A 
ATOM     11  C   UNL     1       5.342   2.491   0.057  1.00  0.00     0.000 A 
ATOM     12  C   UNL     1       6.403   3.091   0.700  1.00  0.00     0.000 A 
ENDBRANCH   6   7
ENDBRANCH   1   6
TORSDOF 4
ENDMDL
