@<TRIPOS>MOLECULE
/home/cewinharhar/GITHUB/reincatalyze/data/processed/docking_pred/2023-May-02-0947_maxeplen10_maxtrainstep1000_seadep32_gamma099_lrac9e-4_lrcr1e-3/5f00cdda1ab61f28c1ea6d7129614616e9231d70_ligand_2.pdbqt
 12 12 0 0 0
SMALL
GASTEIGER

@<TRIPOS>ATOM
      1  C          8.4010   -0.6700   -2.0590 C.3     1  UNL1        0.1270
      2  C          8.3720   -1.9050   -2.8780 C.2     1  UNL1        0.3030
      3  O          7.2860   -2.4130   -3.2510 O.2     1  UNL1       -0.2520
      4  O          9.5480   -2.5340   -3.2540 O.3     1  UNL1       -0.4810
      5  H         10.3360   -2.5550   -2.6010 H       1  UNL1        0.2960
      6  C          7.0270   -0.0720   -2.0610 C.3     1  UNL1        0.0470
      7  C          6.4490    0.0950   -0.7280 C.2     1  UNL1       -0.0470
      8  C          5.7960    1.2550   -0.3850 C.2     1  UNL1        0.0040
      9  C          6.5640   -0.9270    0.1850 C.2     1  UNL1        0.0040
     10  C          5.2680    1.3450    0.9050 C.2     1  UNL1        0.0000
     11  C          6.0420   -0.8370    1.4610 C.2     1  UNL1        0.0000
     12  C          5.3860    0.3230    1.8130 C.2     1  UNL1        0.0000
@<TRIPOS>BOND
     1     4     2    1
     2     4     5    1
     3     3     2    2
     4     2     1    1
     5     6     1    1
     6     6     7    1
     7     7     8    2
     8     7     9    1
     9     8    10    1
    10     9    11    2
    11    10    12    2
    12    11    12    1
