@<TRIPOS>MOLECULE
/home/cewinharhar/GITHUB/reincatalyze/data/processed/docking_pred/2023-May-02-0947_maxeplen10_maxtrainstep1000_seadep32_gamma099_lrac9e-4_lrcr1e-3/6047b5c71b47d2a809e14c46b0582b8ae3076bc9_ligand_2.pdbqt
 12 12 0 0 0
SMALL
GASTEIGER

@<TRIPOS>ATOM
      1  C          8.4040   -0.6680   -2.0620 C.3     1  UNL1        0.1270
      2  C          8.3740   -1.9070   -2.8740 C.2     1  UNL1        0.3030
      3  O          7.2870   -2.4130   -3.2500 O.2     1  UNL1       -0.2520
      4  O          9.5480   -2.5430   -3.2430 O.3     1  UNL1       -0.4810
      5  H         10.1980   -2.8550   -2.5160 H       1  UNL1        0.2960
      6  C          7.0290   -0.0720   -2.0620 C.3     1  UNL1        0.0470
      7  C          6.4550    0.0980   -0.7290 C.2     1  UNL1       -0.0470
      8  C          5.8030    1.2610   -0.3870 C.2     1  UNL1        0.0040
      9  C          6.5700   -0.9220    0.1870 C.2     1  UNL1        0.0040
     10  C          5.2780    1.3540    0.9040 C.2     1  UNL1        0.0000
     11  C          6.0500   -0.8280    1.4630 C.2     1  UNL1        0.0000
     12  C          5.3970    0.3330    1.8140 C.2     1  UNL1        0.0000
@<TRIPOS>BOND
     1     3     2    2
     2     4     2    1
     3     4     5    1
     4     2     1    1
     5     1     6    1
     6     6     7    1
     7     7     8    2
     8     7     9    1
     9     8    10    1
    10     9    11    2
    11    10    12    2
    12    11    12    1
