@<TRIPOS>MOLECULE
/home/cewinharhar/GITHUB/reincatalyze/data/processed/docking_pred/2023-May-02-0947_maxeplen10_maxtrainstep1000_seadep32_gamma099_lrac9e-4_lrcr1e-3/6047b5c71b47d2a809e14c46b0582b8ae3076bc9_ligand_2.pdbqt
 12 12 0 0 0
SMALL
GASTEIGER

@<TRIPOS>ATOM
      1  C          7.2450   -1.2630   -2.1560 C.3     1  UNL1        0.1270
      2  C          8.6880   -1.3340   -2.4840 C.2     1  UNL1        0.3030
      3  O          9.1580   -2.2920   -3.1470 O.2     1  UNL1       -0.2520
      4  O          9.5610   -0.3430   -2.0660 O.3     1  UNL1       -0.4810
      5  H          9.4000    0.6240   -2.3620 H       1  UNL1        0.2960
      6  C          7.0940   -1.3790   -0.6690 C.3     1  UNL1        0.0470
      7  C          6.3480   -0.2790   -0.0600 C.2     1  UNL1       -0.0470
      8  C          5.8900   -0.3710    1.2340 C.2     1  UNL1        0.0040
      9  C          6.1070    0.8580   -0.7960 C.2     1  UNL1        0.0040
     10  C          5.1850    0.7180    1.7510 C.2     1  UNL1        0.0000
     11  C          5.4090    1.9330   -0.2830 C.2     1  UNL1        0.0000
     12  C          4.9470    1.8490    1.0120 C.2     1  UNL1        0.0000
@<TRIPOS>BOND
     1     3     2    2
     2     2     1    1
     3     2     4    1
     4     5     4    1
     5     1     6    1
     6     9    11    1
     7     9     7    2
     8     6     7    1
     9    11    12    2
    10     7     8    1
    11    12    10    1
    12     8    10    2
