@<TRIPOS>MOLECULE
/home/cewinharhar/GITHUB/reincatalyze/data/processed/docking_pred/2023-May-02-0947_maxeplen10_maxtrainstep1000_seadep32_gamma099_lrac9e-4_lrcr1e-3/6070aa1b8336213875ea865ca7f6d729a9af33a9_ligand_2.pdbqt
 12 12 0 0 0
SMALL
GASTEIGER

@<TRIPOS>ATOM
      1  C          5.0250    1.7790    0.6550 C.3     1  UNL1        0.1270
      2  C          4.5690    1.1190    1.9010 C.2     1  UNL1        0.3030
      3  O          3.4450    1.3740    2.3990 O.2     1  UNL1       -0.2520
      4  O          5.3750    0.1990    2.5530 O.3     1  UNL1       -0.4810
      5  H          5.2210   -0.8010    2.3960 H       1  UNL1        0.2960
      6  C          6.5210    1.8460    0.6770 C.3     1  UNL1        0.0470
      7  C          7.1670    1.0610   -0.3740 C.2     1  UNL1       -0.0470
      8  C          8.4990    1.2390   -0.6660 C.2     1  UNL1        0.0040
      9  C          6.4260    0.1350   -1.0710 C.2     1  UNL1        0.0040
     10  C          9.0500    0.4540   -1.6820 C.2     1  UNL1        0.0000
     11  C          6.9720   -0.6390   -2.0760 C.2     1  UNL1        0.0000
     12  C          8.3060   -0.4670   -2.3750 C.2     1  UNL1        0.0000
@<TRIPOS>BOND
     1    12    11    2
     2    12    10    1
     3    11     9    1
     4    10     8    2
     5     9     7    2
     6     8     7    1
     7     7     6    1
     8     1     6    1
     9     1     2    1
    10     2     3    2
    11     2     4    1
    12     5     4    1
