@<TRIPOS>MOLECULE
/home/cewinharhar/GITHUB/reincatalyze/data/processed/docking_pred/2023-May-02-0947_maxeplen10_maxtrainstep1000_seadep32_gamma099_lrac9e-4_lrcr1e-3/6070aa1b8336213875ea865ca7f6d729a9af33a9_ligand_2.pdbqt
 12 12 0 0 0
SMALL
GASTEIGER

@<TRIPOS>ATOM
      1  C          8.4060   -0.6630   -2.0650 C.3     1  UNL1        0.1270
      2  C          8.3750   -1.9020   -2.8770 C.2     1  UNL1        0.3030
      3  O          7.2870   -2.4140   -3.2420 O.2     1  UNL1       -0.2520
      4  O          9.5490   -2.5320   -3.2570 O.3     1  UNL1       -0.4810
      5  H          9.5020   -3.3580   -3.8600 H       1  UNL1        0.2960
      6  C          7.0320   -0.0650   -2.0650 C.3     1  UNL1        0.0470
      7  C          6.4580    0.1060   -0.7320 C.2     1  UNL1       -0.0470
      8  C          5.8060    1.2680   -0.3900 C.2     1  UNL1        0.0040
      9  C          6.5740   -0.9130    0.1850 C.2     1  UNL1        0.0040
     10  C          5.2810    1.3620    0.9010 C.2     1  UNL1        0.0000
     11  C          6.0550   -0.8190    1.4610 C.2     1  UNL1        0.0000
     12  C          5.4010    0.3420    1.8110 C.2     1  UNL1        0.0000
@<TRIPOS>BOND
     1     5     4    1
     2     4     2    1
     3     3     2    2
     4     2     1    1
     5     1     6    1
     6     6     7    1
     7     7     8    2
     8     7     9    1
     9     8    10    1
    10     9    11    2
    11    10    12    2
    12    11    12    1
