@<TRIPOS>MOLECULE
/home/cewinharhar/GITHUB/reincatalyze/data/processed/docking_pred/2023-May-02-0947_maxeplen10_maxtrainstep1000_seadep32_gamma099_lrac9e-4_lrcr1e-3/650932a4c96e02f0afcc120cab6b741f416c7ae8_ligand_2.pdbqt
 12 12 0 0 0
SMALL
GASTEIGER

@<TRIPOS>ATOM
      1  C          7.0140   -1.5110   -1.6070 C.3     1  UNL1        0.1270
      2  C          8.4150   -1.8540   -1.9450 C.2     1  UNL1        0.3030
      3  O          9.2810   -0.9600   -2.1130 O.2     1  UNL1       -0.2520
      4  O          8.8090   -3.1750   -2.0840 O.3     1  UNL1       -0.4810
      5  H          9.7430   -3.3830   -2.4490 H       1  UNL1        0.2960
      6  C          6.7430   -0.1160   -2.0820 C.3     1  UNL1        0.0470
      7  C          6.2110    0.7710   -1.0480 C.2     1  UNL1       -0.0470
      8  C          5.3510    1.7940   -1.3730 C.2     1  UNL1        0.0040
      9  C          6.5800    0.5710    0.2620 C.2     1  UNL1        0.0040
     10  C          4.8820    2.6010   -0.3340 C.2     1  UNL1        0.0000
     11  C          6.1150    1.3700    1.2880 C.2     1  UNL1        0.0000
     12  C          5.2530    2.3980    0.9710 C.2     1  UNL1        0.0000
@<TRIPOS>BOND
     1     5     4    1
     2     3     2    2
     3     4     2    1
     4     6     1    1
     5     6     7    1
     6     2     1    1
     7     8     7    2
     8     8    10    1
     9     7     9    1
    10    10    12    2
    11     9    11    2
    12    12    11    1
