@<TRIPOS>MOLECULE
/home/cewinharhar/GITHUB/reincatalyze/data/processed/docking_pred/2023-May-02-0947_maxeplen10_maxtrainstep1000_seadep32_gamma099_lrac9e-4_lrcr1e-3/65610c622cc3bd86a4d466f03d6f61670904542e_ligand_2.pdbqt
 12 12 0 0 0
SMALL
GASTEIGER

@<TRIPOS>ATOM
      1  C          7.2550   -1.2680   -2.1640 C.3     1  UNL1        0.1270
      2  C          8.6930   -1.3110   -2.5190 C.2     1  UNL1        0.3030
      3  O          9.4970   -0.4500   -2.0840 O.2     1  UNL1       -0.2520
      4  O          9.1910   -2.3070   -3.3440 O.3     1  UNL1       -0.4810
      5  H          9.2850   -3.2590   -2.9800 H       1  UNL1        0.2960
      6  C          7.1350   -1.3450   -0.6730 C.3     1  UNL1        0.0470
      7  C          6.3780   -0.2450   -0.0790 C.2     1  UNL1       -0.0470
      8  C          5.9410   -0.3140    1.2230 C.2     1  UNL1        0.0040
      9  C          6.1060    0.8700   -0.8390 C.2     1  UNL1        0.0040
     10  C          5.2240    0.7750    1.7250 C.2     1  UNL1        0.0000
     11  C          5.3960    1.9450   -0.3420 C.2     1  UNL1        0.0000
     12  C          4.9540    1.8830    0.9620 C.2     1  UNL1        0.0000
@<TRIPOS>BOND
     1     4     5    1
     2     4     2    1
     3     2     1    1
     4     2     3    2
     5     1     6    1
     6     9    11    1
     7     9     7    2
     8     6     7    1
     9    11    12    2
    10     7     8    1
    11    12    10    1
    12     8    10    2
