@<TRIPOS>MOLECULE
/home/cewinharhar/GITHUB/reincatalyze/data/processed/docking_pred/2023-May-02-0947_maxeplen10_maxtrainstep1000_seadep32_gamma099_lrac9e-4_lrcr1e-3/661305b30cebe31e235170a50c1781f21e405ac9_ligand_2.pdbqt
 12 12 0 0 0
SMALL
GASTEIGER

@<TRIPOS>ATOM
      1  C          8.4620   -0.6570   -2.0800 C.3     1  UNL1        0.1270
      2  C          8.4810   -1.9050   -2.8800 C.2     1  UNL1        0.3030
      3  O          9.5550   -2.5150   -3.1070 O.2     1  UNL1       -0.2520
      4  O          7.3110   -2.4330   -3.4000 O.3     1  UNL1       -0.4810
      5  H          6.5020   -2.5610   -2.7860 H       1  UNL1        0.2960
      6  C          7.0640   -0.1160   -2.0860 C.3     1  UNL1        0.0470
      7  C          6.4860    0.0520   -0.7540 C.2     1  UNL1       -0.0470
      8  C          5.8380    1.2160   -0.4110 C.2     1  UNL1        0.0040
      9  C          6.5940   -0.9710    0.1590 C.2     1  UNL1        0.0040
     10  C          5.3090    1.3070    0.8790 C.2     1  UNL1        0.0000
     11  C          6.0710   -0.8800    1.4330 C.2     1  UNL1        0.0000
     12  C          5.4210    0.2830    1.7860 C.2     1  UNL1        0.0000
@<TRIPOS>BOND
     1     4     2    1
     2     4     5    1
     3     3     2    2
     4     2     1    1
     5     6     1    1
     6     6     7    1
     7     7     8    2
     8     7     9    1
     9     8    10    1
    10     9    11    2
    11    10    12    2
    12    11    12    1
