@<TRIPOS>MOLECULE
/home/cewinharhar/GITHUB/reincatalyze/data/processed/docking_pred/2023-May-02-0947_maxeplen10_maxtrainstep1000_seadep32_gamma099_lrac9e-4_lrcr1e-3/677496c5c46bc5e4ac1ff58ba47d0b72a83fedc5_ligand_2.pdbqt
 12 12 0 0 0
SMALL
GASTEIGER

@<TRIPOS>ATOM
      1  C          8.4330   -0.6340   -2.1320 C.3     1  UNL1        0.1270
      2  C          8.4700   -1.9010   -2.9010 C.2     1  UNL1        0.3030
      3  O          9.5480   -2.5160   -3.0890 O.2     1  UNL1       -0.2520
      4  O          7.3120   -2.4410   -3.4360 O.3     1  UNL1       -0.4810
      5  H          6.8260   -3.1860   -2.9290 H       1  UNL1        0.2960
      6  C          7.0210   -0.1330   -2.1200 C.3     1  UNL1        0.0470
      7  C          6.4690    0.0560   -0.7790 C.2     1  UNL1       -0.0470
      8  C          5.8340    1.2280   -0.4390 C.2     1  UNL1        0.0040
      9  C          6.5880   -0.9560    0.1450 C.2     1  UNL1        0.0040
     10  C          5.3300    1.3390    0.8590 C.2     1  UNL1        0.0000
     11  C          6.0890   -0.8450    1.4270 C.2     1  UNL1        0.0000
     12  C          5.4520    0.3270    1.7770 C.2     1  UNL1        0.0000
@<TRIPOS>BOND
     1     4     5    1
     2     4     2    1
     3     3     2    2
     4     2     1    1
     5     1     6    1
     6     6     7    1
     7     7     8    2
     8     7     9    1
     9     8    10    1
    10     9    11    2
    11    10    12    2
    12    11    12    1
