@<TRIPOS>MOLECULE
/home/cewinharhar/GITHUB/reincatalyze/data/processed/docking_pred/2023-May-02-0947_maxeplen10_maxtrainstep1000_seadep32_gamma099_lrac9e-4_lrcr1e-3/67ebe37560d6b2ff0daae954040d2bc7ae74be81_ligand_2.pdbqt
 12 12 0 0 0
SMALL
GASTEIGER

@<TRIPOS>ATOM
      1  C          8.9380   -1.6110    0.3770 C.3     1  UNL1        0.1270
      2  C          9.2700   -3.0550    0.3980 C.2     1  UNL1        0.3030
      3  O         10.4110   -3.4560    0.7360 O.2     1  UNL1       -0.2520
      4  O          8.3260   -4.0060    0.0440 O.3     1  UNL1       -0.4810
      5  H          7.4830   -3.7130   -0.4580 H       1  UNL1        0.2960
      6  C          7.7150   -1.4220   -0.4680 C.3     1  UNL1        0.0470
      7  C          6.7820   -0.4240    0.0510 C.2     1  UNL1       -0.0470
      8  C          6.2910   -0.5200    1.3330 C.2     1  UNL1        0.0040
      9  C          6.3980    0.6210   -0.7570 C.2     1  UNL1        0.0040
     10  C          5.4050    0.4700    1.7630 C.2     1  UNL1        0.0000
     11  C          5.5210    1.5980   -0.3300 C.2     1  UNL1        0.0000
     12  C          5.0240    1.5090    0.9530 C.2     1  UNL1        0.0000
@<TRIPOS>BOND
     1     9    11    1
     2     9     7    2
     3     6     7    1
     4     6     1    1
     5     5     4    1
     6    11    12    2
     7     4     2    1
     8     7     8    1
     9     1     2    1
    10     2     3    2
    11    12    10    1
    12     8    10    2
