@<TRIPOS>MOLECULE
/home/cewinharhar/GITHUB/reincatalyze/data/processed/docking_pred/2023-May-02-0947_maxeplen10_maxtrainstep1000_seadep32_gamma099_lrac9e-4_lrcr1e-3/67ebe37560d6b2ff0daae954040d2bc7ae74be81_ligand_2.pdbqt
 12 12 0 0 0
SMALL
GASTEIGER

@<TRIPOS>ATOM
      1  C          5.7650    0.9400   -0.1090 C.3     1  UNL1        0.1270
      2  C          5.2900    1.4950    1.1810 C.2     1  UNL1        0.3030
      3  O          5.2770    2.7330    1.3910 O.2     1  UNL1       -0.2520
      4  O          4.8450    0.6590    2.1920 O.3     1  UNL1       -0.4810
      5  H          5.4410    0.5010    3.0100 H       1  UNL1        0.2960
      6  C          6.4710   -0.3530    0.1670 C.3     1  UNL1        0.0470
      7  C          7.9200   -0.2890   -0.0130 C.2     1  UNL1       -0.0470
      8  C          8.7510   -1.1580    0.6560 C.2     1  UNL1        0.0040
      9  C          8.4500    0.6530   -0.8640 C.2     1  UNL1        0.0040
     10  C         10.1250   -1.0400    0.4360 C.2     1  UNL1        0.0000
     11  C          9.8090    0.7680   -1.0800 C.2     1  UNL1        0.0000
     12  C         10.6480   -0.0980   -0.4130 C.2     1  UNL1        0.0000
@<TRIPOS>BOND
     1    11     9    1
     2    11    12    2
     3     9     7    2
     4    12    10    1
     5     1     6    1
     6     1     2    1
     7     7     6    1
     8     7     8    1
     9    10     8    2
    10     2     3    2
    11     2     4    1
    12     4     5    1
