@<TRIPOS>MOLECULE
/home/cewinharhar/GITHUB/reincatalyze/data/processed/docking_pred/2023-May-02-0947_maxeplen10_maxtrainstep1000_seadep32_gamma099_lrac9e-4_lrcr1e-3/67ebe37560d6b2ff0daae954040d2bc7ae74be81_ligand_2.pdbqt
 12 12 0 0 0
SMALL
GASTEIGER

@<TRIPOS>ATOM
      1  C          7.2600   -1.2590   -2.1770 C.3     1  UNL1        0.1270
      2  C          8.6970   -1.3030   -2.5360 C.2     1  UNL1        0.3030
      3  O          9.4990   -0.4310   -2.1190 O.2     1  UNL1       -0.2520
      4  O          9.1950   -2.3110   -3.3460 O.3     1  UNL1       -0.4810
      5  H          9.9110   -2.0850   -4.0420 H       1  UNL1        0.2960
      6  C          7.1450   -1.3240   -0.6840 C.3     1  UNL1        0.0470
      7  C          6.3880   -0.2200   -0.0970 C.2     1  UNL1       -0.0470
      8  C          5.9560   -0.2790    1.2080 C.2     1  UNL1        0.0040
      9  C          6.1090    0.8870   -0.8660 C.2     1  UNL1        0.0040
     10  C          5.2390    0.8130    1.7030 C.2     1  UNL1        0.0000
     11  C          5.3990    1.9640   -0.3750 C.2     1  UNL1        0.0000
     12  C          4.9630    1.9130    0.9320 C.2     1  UNL1        0.0000
@<TRIPOS>BOND
     1     5     4    1
     2     4     2    1
     3     2     1    1
     4     2     3    2
     5     1     6    1
     6     9    11    1
     7     9     7    2
     8     6     7    1
     9    11    12    2
    10     7     8    1
    11    12    10    1
    12     8    10    2
