@<TRIPOS>MOLECULE
/home/cewinharhar/GITHUB/reincatalyze/data/processed/docking_pred/2023-May-02-0947_maxeplen10_maxtrainstep1000_seadep32_gamma099_lrac9e-4_lrcr1e-3/681e80220216c71ec10eb1429598bf11558fcb24_ligand_2.pdbqt
 12 12 0 0 0
SMALL
GASTEIGER

@<TRIPOS>ATOM
      1  C          7.9710   -6.2800   10.9240 C.3     1  UNL1        0.1270
      2  C          8.2870   -4.8690   11.2480 C.2     1  UNL1        0.3030
      3  O          7.5260   -3.9340   10.8950 O.2     1  UNL1       -0.2520
      4  O          9.4350   -4.5420   11.9510 O.3     1  UNL1       -0.4810
      5  H          9.5920   -4.9560   12.8740 H       1  UNL1        0.2960
      6  C          8.3440   -7.1280   12.1020 C.3     1  UNL1        0.0470
      7  C          9.2290   -8.2450   11.7740 C.2     1  UNL1       -0.0470
      8  C          9.1330   -9.4400   12.4490 C.2     1  UNL1        0.0040
      9  C         10.1620   -8.0910   10.7750 C.2     1  UNL1        0.0040
     10  C         10.0100  -10.4630   12.0820 C.2     1  UNL1        0.0000
     11  C         11.0280   -9.1040   10.4140 C.2     1  UNL1        0.0000
     12  C         10.9400  -10.3030   11.0860 C.2     1  UNL1        0.0000
@<TRIPOS>BOND
     1    11     9    1
     2    11    12    2
     3     9     7    2
     4     3     2    2
     5     1     2    1
     6     1     6    1
     7    12    10    1
     8     2     4    1
     9     7     6    1
    10     7     8    1
    11     4     5    1
    12    10     8    2
