@<TRIPOS>MOLECULE
/home/cewinharhar/GITHUB/reincatalyze/data/processed/docking_pred/2023-May-02-0947_maxeplen10_maxtrainstep1000_seadep32_gamma099_lrac9e-4_lrcr1e-3/681e80220216c71ec10eb1429598bf11558fcb24_ligand_2.pdbqt
 12 12 0 0 0
SMALL
GASTEIGER

@<TRIPOS>ATOM
      1  C         12.4590   -7.9920   10.3820 C.3     1  UNL1        0.1270
      2  C         13.6790   -7.9260    9.5430 C.2     1  UNL1        0.3030
      3  O         14.7910   -8.3140    9.9800 O.2     1  UNL1       -0.2520
      4  O         13.6250   -7.4320    8.2500 O.3     1  UNL1       -0.4810
      5  H         13.2230   -8.0120    7.5080 H       1  UNL1        0.2960
      6  C         12.2400   -6.6450   11.0010 C.3     1  UNL1        0.0470
      7  C         10.8350   -6.2440   11.0690 C.2     1  UNL1       -0.0470
      8  C          9.9100   -6.7740   10.2010 C.2     1  UNL1        0.0040
      9  C         10.4450   -5.3270   12.0170 C.2     1  UNL1        0.0040
     10  C          8.5860   -6.3460   10.3240 C.2     1  UNL1        0.0000
     11  C          9.1360   -4.9040   12.1370 C.2     1  UNL1        0.0000
     12  C          8.2020   -5.4300   11.2710 C.2     1  UNL1        0.0000
@<TRIPOS>BOND
     1     5     4    1
     2     4     2    1
     3     2     3    2
     4     2     1    1
     5     8    10    1
     6     8     7    2
     7    10    12    2
     8     1     6    1
     9     6     7    1
    10     7     9    1
    11    12    11    1
    12     9    11    2
