@<TRIPOS>MOLECULE
/home/cewinharhar/GITHUB/reincatalyze/data/processed/docking_pred/2023-May-02-0947_maxeplen10_maxtrainstep1000_seadep32_gamma099_lrac9e-4_lrcr1e-3/681e80220216c71ec10eb1429598bf11558fcb24_ligand_2.pdbqt
 12 12 0 0 0
SMALL
GASTEIGER

@<TRIPOS>ATOM
      1  C          8.0640   -6.0480   11.3780 C.3     1  UNL1        0.1270
      2  C          7.9840   -4.5690   11.3460 C.2     1  UNL1        0.3030
      3  O          8.3230   -3.8770   12.3380 O.2     1  UNL1       -0.2520
      4  O          7.5310   -3.9070   10.2170 O.3     1  UNL1       -0.4810
      5  H          7.8510   -2.9520   10.0330 H       1  UNL1        0.2960
      6  C          8.8550   -6.5020   10.1890 C.3     1  UNL1        0.0470
      7  C         10.1680   -7.0520   10.5230 C.2     1  UNL1       -0.0470
      8  C         10.3930   -8.4090   10.4830 C.2     1  UNL1        0.0040
      9  C         11.1840   -6.1960   10.8790 C.2     1  UNL1        0.0040
     10  C         11.6720   -8.8640   10.8130 C.2     1  UNL1        0.0000
     11  C         12.4470   -6.6470   11.2050 C.2     1  UNL1        0.0000
     12  C         12.6810   -8.0050   11.1680 C.2     1  UNL1        0.0000
@<TRIPOS>BOND
     1     5     4    1
     2     6     7    1
     3     6     1    1
     4     4     2    1
     5     8     7    2
     6     8    10    1
     7     7     9    1
     8    10    12    2
     9     9    11    2
    10    12    11    1
    11     2     1    1
    12     2     3    2
