@<TRIPOS>MOLECULE
/home/cewinharhar/GITHUB/reincatalyze/data/processed/docking_pred/2023-May-02-0947_maxeplen10_maxtrainstep1000_seadep32_gamma099_lrac9e-4_lrcr1e-3/681e80220216c71ec10eb1429598bf11558fcb24_ligand_2.pdbqt
 12 12 0 0 0
SMALL
GASTEIGER

@<TRIPOS>ATOM
      1  C          6.3370   -0.5250    2.7320 C.3     1  UNL1        0.1270
      2  C          7.0980   -1.4900    1.9040 C.2     1  UNL1        0.3030
      3  O          8.2640   -1.2360    1.5150 O.2     1  UNL1       -0.2520
      4  O          6.5400   -2.7040    1.5360 O.3     1  UNL1       -0.4810
      5  H          5.6130   -2.7180    1.1020 H       1  UNL1        0.2960
      6  C          5.2290    0.0410    1.8980 C.3     1  UNL1        0.0470
      7  C          5.5360    1.3410    1.3040 C.2     1  UNL1       -0.0470
      8  C          4.8970    1.7600    0.1600 C.2     1  UNL1        0.0040
      9  C          6.4750    2.1470    1.9030 C.2     1  UNL1        0.0040
     10  C          5.2390    3.0140   -0.3510 C.2     1  UNL1        0.0000
     11  C          6.8130    3.3860    1.3960 C.2     1  UNL1        0.0000
     12  C          6.1780    3.8140    0.2510 C.2     1  UNL1        0.0000
@<TRIPOS>BOND
     1    10     8    1
     2    10    12    2
     3     8     7    2
     4    12    11    1
     5     5     4    1
     6     7     6    1
     7     7     9    1
     8    11     9    2
     9     3     2    2
    10     4     2    1
    11     6     1    1
    12     2     1    1
