MODEL 1
REMARK VINA RESULT:      -5.5      0.000      0.000
REMARK SMILES O=C(O)CCc1ccccc1
REMARK SMILES IDX 4 1 2 2 1 3 3 4 5 6 6 7 7 8 11 9 8 10 10 11 9 12
REMARK H PARENT 3 5
REMARK Flexibility Score: inf
ROOT
ATOM      1  C   UNL     1       6.337  -0.525   2.732  1.00  0.00     0.127 C 
ENDROOT
BRANCH   1   2
ATOM      2  C   UNL     1       7.098  -1.490   1.904  1.00  0.00     0.303 C 
ATOM      3  O   UNL     1       8.264  -1.236   1.515  1.00  0.00    -0.252 OA
BRANCH   2   4
ATOM      4  O   UNL     1       6.540  -2.704   1.536  1.00  0.00    -0.481 OA
ATOM      5  H   UNL     1       5.613  -2.718   1.102  1.00  0.00     0.296 HD
ENDBRANCH   2   4
ENDBRANCH   1   2
BRANCH   1   6
ATOM      6  C   UNL     1       5.229   0.041   1.898  1.00  0.00     0.047 C 
BRANCH   6   7
ATOM      7  C   UNL     1       5.536   1.341   1.304  1.00  0.00    -0.047 A 
ATOM      8  C   UNL     1       4.897   1.760   0.160  1.00  0.00     0.004 A 
ATOM      9  C   UNL     1       6.475   2.147   1.903  1.00  0.00     0.004 A 
ATOM     10  C   UNL     1       5.239   3.014  -0.351  1.00  0.00     0.000 A 
ATOM     11  C   UNL     1       6.813   3.386   1.396  1.00  0.00     0.000 A 
ATOM     12  C   UNL     1       6.178   3.814   0.251  1.00  0.00     0.000 A 
ENDBRANCH   6   7
ENDBRANCH   1   6
TORSDOF 4
ENDMDL
MODEL 2
REMARK VINA RESULT:      -3.7     11.830     14.284
REMARK SMILES O=C(O)CCc1ccccc1
REMARK SMILES IDX 4 1 2 2 1 3 3 4 5 6 6 7 7 8 11 9 8 10 10 11 9 12
REMARK H PARENT 3 5
REMARK Flexibility Score: inf
ROOT
ATOM      1  C   UNL     1       7.971  -6.280  10.924  1.00  0.00     0.127 C 
ENDROOT
BRANCH   1   2
ATOM      2  C   UNL     1       8.287  -4.869  11.248  1.00  0.00     0.303 C 
ATOM      3  O   UNL     1       7.526  -3.934  10.895  1.00  0.00    -0.252 OA
BRANCH   2   4
ATOM      4  O   UNL     1       9.435  -4.542  11.951  1.00  0.00    -0.481 OA
ATOM      5  H   UNL     1       9.592  -4.956  12.874  1.00  0.00     0.296 HD
ENDBRANCH   2   4
ENDBRANCH   1   2
BRANCH   1   6
ATOM      6  C   UNL     1       8.344  -7.128  12.102  1.00  0.00     0.047 C 
BRANCH   6   7
ATOM      7  C   UNL     1       9.229  -8.245  11.774  1.00  0.00    -0.047 A 
ATOM      8  C   UNL     1       9.133  -9.440  12.449  1.00  0.00     0.004 A 
ATOM      9  C   UNL     1      10.162  -8.091  10.775  1.00  0.00     0.004 A 
ATOM     10  C   UNL     1      10.010 -10.463  12.082  1.00  0.00     0.000 A 
ATOM     11  C   UNL     1      11.028  -9.104  10.414  1.00  0.00     0.000 A 
ATOM     12  C   UNL     1      10.940 -10.303  11.086  1.00  0.00     0.000 A 
ENDBRANCH   6   7
ENDBRANCH   1   6
TORSDOF 4
ENDMDL
MODEL 3
REMARK VINA RESULT:      -3.7     11.617     13.350
REMARK SMILES O=C(O)CCc1ccccc1
REMARK SMILES IDX 4 1 2 2 1 3 3 4 5 6 6 7 7 8 11 9 8 10 10 11 9 12
REMARK H PARENT 3 5
REMARK Flexibility Score: inf
ROOT
ATOM      1  C   UNL     1       8.064  -6.048  11.378  1.00  0.00     0.127 C 
ENDROOT
BRANCH   1   2
ATOM      2  C   UNL     1       7.984  -4.569  11.346  1.00  0.00     0.303 C 
ATOM      3  O   UNL     1       8.323  -3.877  12.338  1.00  0.00    -0.252 OA
BRANCH   2   4
ATOM      4  O   UNL     1       7.531  -3.907  10.217  1.00  0.00    -0.481 OA
ATOM      5  H   UNL     1       7.851  -2.952  10.033  1.00  0.00     0.296 HD
ENDBRANCH   2   4
ENDBRANCH   1   2
BRANCH   1   6
ATOM      6  C   UNL     1       8.855  -6.502  10.189  1.00  0.00     0.047 C 
BRANCH   6   7
ATOM      7  C   UNL     1      10.168  -7.052  10.523  1.00  0.00    -0.047 A 
ATOM      8  C   UNL     1      10.393  -8.409  10.483  1.00  0.00     0.004 A 
ATOM      9  C   UNL     1      11.184  -6.196  10.879  1.00  0.00     0.004 A 
ATOM     10  C   UNL     1      11.672  -8.864  10.813  1.00  0.00     0.000 A 
ATOM     11  C   UNL     1      12.447  -6.647  11.205  1.00  0.00     0.000 A 
ATOM     12  C   UNL     1      12.681  -8.005  11.168  1.00  0.00     0.000 A 
ENDBRANCH   6   7
ENDBRANCH   1   6
TORSDOF 4
ENDMDL
MODEL 4
REMARK VINA RESULT:      -3.6     12.161     13.213
REMARK SMILES O=C(O)CCc1ccccc1
REMARK SMILES IDX 4 1 2 2 1 3 3 4 5 6 6 7 7 8 11 9 8 10 10 11 9 12
REMARK H PARENT 3 5
REMARK Flexibility Score: inf
ROOT
ATOM      1  C   UNL     1      12.459  -7.992  10.382  1.00  0.00     0.127 C 
ENDROOT
BRANCH   1   2
ATOM      2  C   UNL     1      13.679  -7.926   9.543  1.00  0.00     0.303 C 
ATOM      3  O   UNL     1      14.791  -8.314   9.980  1.00  0.00    -0.252 OA
BRANCH   2   4
ATOM      4  O   UNL     1      13.625  -7.432   8.250  1.00  0.00    -0.481 OA
ATOM      5  H   UNL     1      13.223  -8.012   7.508  1.00  0.00     0.296 HD
ENDBRANCH   2   4
ENDBRANCH   1   2
BRANCH   1   6
ATOM      6  C   UNL     1      12.240  -6.645  11.001  1.00  0.00     0.047 C 
BRANCH   6   7
ATOM      7  C   UNL     1      10.835  -6.244  11.069  1.00  0.00    -0.047 A 
ATOM      8  C   UNL     1       9.910  -6.774  10.201  1.00  0.00     0.004 A 
ATOM      9  C   UNL     1      10.445  -5.327  12.017  1.00  0.00     0.004 A 
ATOM     10  C   UNL     1       8.586  -6.346  10.324  1.00  0.00     0.000 A 
ATOM     11  C   UNL     1       9.136  -4.904  12.137  1.00  0.00     0.000 A 
ATOM     12  C   UNL     1       8.202  -5.430  11.271  1.00  0.00     0.000 A 
ENDBRANCH   6   7
ENDBRANCH   1   6
TORSDOF 4
ENDMDL
