@<TRIPOS>MOLECULE
/home/cewinharhar/GITHUB/reincatalyze/data/processed/docking_pred/2023-May-02-0947_maxeplen10_maxtrainstep1000_seadep32_gamma099_lrac9e-4_lrcr1e-3/69e2ce579100b0ee4b56c8bb4a95d1562fd611af_ligand_2.pdbqt
 12 12 0 0 0
SMALL
GASTEIGER

@<TRIPOS>ATOM
      1  C          8.4050   -0.6620   -2.0670 C.3     1  UNL1        0.1270
      2  C          8.3750   -1.9010   -2.8780 C.2     1  UNL1        0.3030
      3  O          7.2880   -2.4130   -3.2440 O.2     1  UNL1       -0.2520
      4  O          9.5490   -2.5320   -3.2560 O.3     1  UNL1       -0.4810
      5  H          9.6430   -3.5420   -3.1180 H       1  UNL1        0.2960
      6  C          7.0300   -0.0660   -2.0670 C.3     1  UNL1        0.0470
      7  C          6.4570    0.1060   -0.7330 C.2     1  UNL1       -0.0470
      8  C          5.8060    1.2680   -0.3910 C.2     1  UNL1        0.0040
      9  C          6.5720   -0.9140    0.1840 C.2     1  UNL1        0.0040
     10  C          5.2820    1.3620    0.9000 C.2     1  UNL1        0.0000
     11  C          6.0540   -0.8190    1.4600 C.2     1  UNL1        0.0000
     12  C          5.4010    0.3430    1.8100 C.2     1  UNL1        0.0000
@<TRIPOS>BOND
     1     4     5    1
     2     4     2    1
     3     3     2    2
     4     2     1    1
     5     1     6    1
     6     6     7    1
     7     7     8    2
     8     7     9    1
     9     8    10    1
    10     9    11    2
    11    10    12    2
    12    11    12    1
