@<TRIPOS>MOLECULE
/home/cewinharhar/GITHUB/reincatalyze/data/processed/docking_pred/2023-May-02-0947_maxeplen10_maxtrainstep1000_seadep32_gamma099_lrac9e-4_lrcr1e-3/6b66a19e3843729fbb18dde59d8ef2ce5f9236cc_ligand_2.pdbqt
 12 12 0 0 0
SMALL
GASTEIGER

@<TRIPOS>ATOM
      1  C          8.4070   -0.6510   -2.0820 C.3     1  UNL1        0.1270
      2  C          8.3790   -1.8970   -2.8840 C.2     1  UNL1        0.3030
      3  O          7.2920   -2.4220   -3.2330 O.2     1  UNL1       -0.2520
      4  O          9.5550   -2.5200   -3.2710 O.3     1  UNL1       -0.4810
      5  H          9.5090   -3.3500   -3.8680 H       1  UNL1        0.2960
      6  C          7.0300   -0.0600   -2.0820 C.3     1  UNL1        0.0470
      7  C          6.4540    0.1030   -0.7480 C.2     1  UNL1       -0.0470
      8  C          5.8040    1.2650   -0.4000 C.2     1  UNL1        0.0040
      9  C          6.5660   -0.9230    0.1620 C.2     1  UNL1        0.0040
     10  C          5.2770    1.3510    0.8900 C.2     1  UNL1        0.0000
     11  C          6.0450   -0.8350    1.4370 C.2     1  UNL1        0.0000
     12  C          5.3930    0.3250    1.7940 C.2     1  UNL1        0.0000
@<TRIPOS>BOND
     1     5     4    1
     2     4     2    1
     3     3     2    2
     4     2     1    1
     5     1     6    1
     6     6     7    1
     7     7     8    2
     8     7     9    1
     9     8    10    1
    10     9    11    2
    11    10    12    2
    12    11    12    1
