@<TRIPOS>MOLECULE
/home/cewinharhar/GITHUB/reincatalyze/data/processed/docking_pred/2023-May-02-0947_maxeplen10_maxtrainstep1000_seadep32_gamma099_lrac9e-4_lrcr1e-3/6ceeb54199aca0c96a32aff90fdf9e1d9b8e1f8c_ligand_2.pdbqt
 12 12 0 0 0
SMALL
GASTEIGER

@<TRIPOS>ATOM
      1  C          8.4030   -0.6520   -2.0810 C.3     1  UNL1        0.1270
      2  C          8.3730   -1.9020   -2.8770 C.2     1  UNL1        0.3030
      3  O          7.2860   -2.4090   -3.2500 O.2     1  UNL1       -0.2520
      4  O          9.5470   -2.5460   -3.2320 O.3     1  UNL1       -0.4810
      5  H          9.7140   -3.5000   -2.9010 H       1  UNL1        0.2960
      6  C          7.0240   -0.0660   -2.0730 C.3     1  UNL1        0.0470
      7  C          6.4580    0.1020   -0.7350 C.2     1  UNL1       -0.0470
      8  C          5.8040    1.2620   -0.3890 C.2     1  UNL1        0.0040
      9  C          6.5830   -0.9170    0.1800 C.2     1  UNL1        0.0040
     10  C          5.2870    1.3530    0.9050 C.2     1  UNL1        0.0000
     11  C          6.0720   -0.8250    1.4590 C.2     1  UNL1        0.0000
     12  C          5.4160    0.3340    1.8140 C.2     1  UNL1        0.0000
@<TRIPOS>BOND
     1     3     2    2
     2     4     5    1
     3     4     2    1
     4     2     1    1
     5     1     6    1
     6     6     7    1
     7     7     8    2
     8     7     9    1
     9     8    10    1
    10     9    11    2
    11    10    12    2
    12    11    12    1
