@<TRIPOS>MOLECULE
/home/cewinharhar/GITHUB/reincatalyze/data/processed/docking_pred/2023-May-02-0947_maxeplen10_maxtrainstep1000_seadep32_gamma099_lrac9e-4_lrcr1e-3/6dc168e099aae66a1c19408847f7f9495b2b5216_ligand_2.pdbqt
 12 12 0 0 0
SMALL
GASTEIGER

@<TRIPOS>ATOM
      1  C          8.4050   -0.6440   -2.0890 C.3     1  UNL1        0.1270
      2  C          8.3760   -1.8960   -2.8810 C.2     1  UNL1        0.3030
      3  O          7.2900   -2.4140   -3.2400 O.2     1  UNL1       -0.2520
      4  O          9.5520   -2.5310   -3.2490 O.3     1  UNL1       -0.4810
      5  H          9.9280   -3.2720   -2.6530 H       1  UNL1        0.2960
      6  C          7.0260   -0.0590   -2.0830 C.3     1  UNL1        0.0470
      7  C          6.4560    0.1080   -0.7470 C.2     1  UNL1       -0.0470
      8  C          5.8060    1.2690   -0.4000 C.2     1  UNL1        0.0040
      9  C          6.5750   -0.9140    0.1660 C.2     1  UNL1        0.0040
     10  C          5.2850    1.3590    0.8930 C.2     1  UNL1        0.0000
     11  C          6.0610   -0.8240    1.4440 C.2     1  UNL1        0.0000
     12  C          5.4080    0.3360    1.8000 C.2     1  UNL1        0.0000
@<TRIPOS>BOND
     1     4     2    1
     2     4     5    1
     3     3     2    2
     4     2     1    1
     5     1     6    1
     6     6     7    1
     7     7     8    2
     8     7     9    1
     9     8    10    1
    10     9    11    2
    11    10    12    2
    12    11    12    1
