MODEL 1
REMARK VINA RESULT:      -7.3      0.000      0.000
REMARK SMILES O=C(O)CCc1ccccc1
REMARK SMILES IDX 4 1 2 2 1 3 3 4 5 6 6 7 7 8 11 9 8 10 10 11 9 12
REMARK H PARENT 3 5
REMARK Flexibility Score: inf
ROOT
ATOM      1  C   UNL     1       8.405  -0.644  -2.089  1.00  0.00     0.127 C 
ENDROOT
BRANCH   1   2
ATOM      2  C   UNL     1       8.376  -1.896  -2.881  1.00  0.00     0.303 C 
ATOM      3  O   UNL     1       7.290  -2.414  -3.240  1.00  0.00    -0.252 OA
BRANCH   2   4
ATOM      4  O   UNL     1       9.552  -2.531  -3.249  1.00  0.00    -0.481 OA
ATOM      5  H   UNL     1       9.928  -3.272  -2.653  1.00  0.00     0.296 HD
ENDBRANCH   2   4
ENDBRANCH   1   2
BRANCH   1   6
ATOM      6  C   UNL     1       7.026  -0.059  -2.083  1.00  0.00     0.047 C 
BRANCH   6   7
ATOM      7  C   UNL     1       6.456   0.108  -0.747  1.00  0.00    -0.047 A 
ATOM      8  C   UNL     1       5.806   1.269  -0.400  1.00  0.00     0.004 A 
ATOM      9  C   UNL     1       6.575  -0.914   0.166  1.00  0.00     0.004 A 
ATOM     10  C   UNL     1       5.285   1.359   0.893  1.00  0.00     0.000 A 
ATOM     11  C   UNL     1       6.061  -0.824   1.444  1.00  0.00     0.000 A 
ATOM     12  C   UNL     1       5.408   0.336   1.800  1.00  0.00     0.000 A 
ENDBRANCH   6   7
ENDBRANCH   1   6
TORSDOF 4
ENDMDL
