@<TRIPOS>MOLECULE
/home/cewinharhar/GITHUB/reincatalyze/data/processed/docking_pred/2023-May-02-0947_maxeplen10_maxtrainstep1000_seadep32_gamma099_lrac9e-4_lrcr1e-3/6e6a373552f8835a6ba7a6c6fa001d8bbefa4498_ligand_2.pdbqt
 12 12 0 0 0
SMALL
GASTEIGER

@<TRIPOS>ATOM
      1  C          8.2630    0.2760   -2.2220 C.3     1  UNL1        0.1270
      2  C          9.5120   -0.0080   -1.4770 C.2     1  UNL1        0.3030
      3  O          9.8100   -1.1770   -1.1270 O.2     1  UNL1       -0.2520
      4  O         10.3880    1.0120   -1.1450 O.3     1  UNL1       -0.4810
      5  H         10.0960    1.9850   -1.2720 H       1  UNL1        0.2960
      6  C          7.1950   -0.6470   -1.7210 C.3     1  UNL1        0.0470
      7  C          6.5030   -0.1620   -0.5280 C.2     1  UNL1       -0.0470
      8  C          5.9190    1.0830   -0.5110 C.2     1  UNL1        0.0040
      9  C          6.4370   -0.9690    0.5850 C.2     1  UNL1        0.0040
     10  C          5.2730    1.4810    0.6620 C.2     1  UNL1        0.0000
     11  C          5.7990   -0.5740    1.7440 C.2     1  UNL1        0.0000
     12  C          5.2120    0.6720    1.7690 C.2     1  UNL1        0.0000
@<TRIPOS>BOND
     1     1     6    1
     2     1     2    1
     3     6     7    1
     4     2     4    1
     5     2     3    2
     6     5     4    1
     7     7     8    2
     8     7     9    1
     9     8    10    1
    10     9    11    2
    11    10    12    2
    12    11    12    1
