@<TRIPOS>MOLECULE
/home/cewinharhar/GITHUB/reincatalyze/data/processed/docking_pred/2023-May-02-0947_maxeplen10_maxtrainstep1000_seadep32_gamma099_lrac9e-4_lrcr1e-3/6e6a373552f8835a6ba7a6c6fa001d8bbefa4498_ligand_2.pdbqt
 12 12 0 0 0
SMALL
GASTEIGER

@<TRIPOS>ATOM
      1  C          5.7470    1.0110   -0.1450 C.3     1  UNL1        0.1270
      2  C          5.3290    1.5630    1.1650 C.2     1  UNL1        0.3030
      3  O          5.3710    2.7970    1.3950 O.2     1  UNL1       -0.2520
      4  O          4.8770    0.7290    2.1750 O.3     1  UNL1       -0.4810
      5  H          5.3860    0.6970    3.0630 H       1  UNL1        0.2960
      6  C          6.4740   -0.2770    0.0970 C.3     1  UNL1        0.0470
      7  C          7.9200   -0.1890   -0.0970 C.2     1  UNL1       -0.0470
      8  C          8.4620    0.7670   -0.9250 C.2     1  UNL1        0.0040
      9  C          8.7410   -1.0750    0.5610 C.2     1  UNL1        0.0040
     10  C          9.8510    0.7930   -1.0630 C.2     1  UNL1        0.0000
     11  C         10.1140   -1.0480    0.4240 C.2     1  UNL1        0.0000
     12  C         10.6650   -0.0950   -0.4040 C.2     1  UNL1        0.0000
@<TRIPOS>BOND
     1    10     8    1
     2    10    12    2
     3     8     7    2
     4    12    11    1
     5     1     6    1
     6     1     2    1
     7     7     6    1
     8     7     9    1
     9    11     9    2
    10     2     3    2
    11     2     4    1
    12     4     5    1
