MODEL 1
REMARK VINA RESULT:      -7.3      0.000      0.000
REMARK SMILES O=C(O)CCc1ccccc1
REMARK SMILES IDX 4 1 2 2 1 3 3 4 5 6 6 7 7 8 11 9 8 10 10 11 9 12
REMARK H PARENT 3 5
REMARK Flexibility Score: inf
ROOT
ATOM      1  C   UNL     1       8.440  -0.638  -2.154  1.00  0.00     0.127 C 
ENDROOT
BRANCH   1   2
ATOM      2  C   UNL     1       8.491  -1.911  -2.911  1.00  0.00     0.303 C 
ATOM      3  O   UNL     1       9.577  -2.517  -3.093  1.00  0.00    -0.252 OA
BRANCH   2   4
ATOM      4  O   UNL     1       7.339  -2.470  -3.440  1.00  0.00    -0.481 OA
ATOM      5  H   UNL     1       6.997  -2.146  -4.349  1.00  0.00     0.296 HD
ENDBRANCH   2   4
ENDBRANCH   1   2
BRANCH   1   6
ATOM      6  C   UNL     1       7.024  -0.148  -2.152  1.00  0.00     0.047 C 
BRANCH   6   7
ATOM      7  C   UNL     1       6.473   0.073  -0.816  1.00  0.00    -0.047 A 
ATOM      8  C   UNL     1       5.832   1.250  -0.506  1.00  0.00     0.004 A 
ATOM      9  C   UNL     1       6.600  -0.913   0.134  1.00  0.00     0.004 A 
ATOM     10  C   UNL     1       5.329   1.392   0.789  1.00  0.00     0.000 A 
ATOM     11  C   UNL     1       6.103  -0.771   1.415  1.00  0.00     0.000 A 
ATOM     12  C   UNL     1       5.460   0.405   1.734  1.00  0.00     0.000 A 
ENDBRANCH   6   7
ENDBRANCH   1   6
TORSDOF 4
ENDMDL
