@<TRIPOS>MOLECULE
/home/cewinharhar/GITHUB/reincatalyze/data/processed/docking_pred/2023-May-02-0947_maxeplen10_maxtrainstep1000_seadep32_gamma099_lrac9e-4_lrcr1e-3/73f03501d88ed0f960f592fe5f6124e73644cb01_ligand_2.pdbqt
 12 12 0 0 0
SMALL
GASTEIGER

@<TRIPOS>ATOM
      1  C          7.9520   -1.2020    3.0860 C.3     1  UNL1        0.1270
      2  C          6.6580   -1.3410    2.3780 C.2     1  UNL1        0.3030
      3  O          5.7600   -0.4710    2.4870 O.2     1  UNL1       -0.2520
      4  O          6.4040   -2.4400    1.5730 O.3     1  UNL1       -0.4810
      5  H          6.7100   -3.3680    1.8800 H       1  UNL1        0.2960
      6  C          9.0260   -1.7990    2.2280 C.3     1  UNL1        0.0470
      7  C         10.0730   -2.4890    2.9800 C.2     1  UNL1       -0.0470
      8  C         10.4330   -2.0630    4.2370 C.2     1  UNL1        0.0040
      9  C         10.6990   -3.5760    2.4150 C.2     1  UNL1        0.0040
     10  C         11.4400   -2.7700    4.8970 C.2     1  UNL1        0.0000
     11  C         11.6950   -4.2740    3.0690 C.2     1  UNL1        0.0000
     12  C         12.0620   -3.8530    4.3290 C.2     1  UNL1        0.0000
@<TRIPOS>BOND
     1     4     5    1
     2     4     2    1
     3     6     7    1
     4     6     1    1
     5     2     3    2
     6     2     1    1
     7     9     7    2
     8     9    11    1
     9     7     8    1
    10    11    12    2
    11     8    10    2
    12    12    10    1
