@<TRIPOS>MOLECULE
/home/cewinharhar/GITHUB/reincatalyze/data/processed/docking_pred/2023-May-02-0947_maxeplen10_maxtrainstep1000_seadep32_gamma099_lrac9e-4_lrcr1e-3/73f03501d88ed0f960f592fe5f6124e73644cb01_ligand_2.pdbqt
 12 12 0 0 0
SMALL
GASTEIGER

@<TRIPOS>ATOM
      1  C          6.6320    0.3660    2.3340 C.3     1  UNL1        0.1270
      2  C          5.3250    0.6850    1.7130 C.2     1  UNL1        0.3030
      3  O          5.2400    0.9980    0.5000 O.2     1  UNL1       -0.2520
      4  O          4.1570    0.6470    2.4580 O.3     1  UNL1       -0.4810
      5  H          3.7050    1.5260    2.7270 H       1  UNL1        0.2960
      6  C          6.8040   -1.1220    2.3310 C.3     1  UNL1        0.0470
      7  C          8.0680   -1.5760    2.9070 C.2     1  UNL1       -0.0470
      8  C          8.3360   -1.3970    4.2440 C.2     1  UNL1        0.0040
      9  C          8.9930   -2.1910    2.0960 C.2     1  UNL1        0.0040
     10  C          9.5640   -1.8560    4.7270 C.2     1  UNL1        0.0000
     11  C         10.2070   -2.6440    2.5740 C.2     1  UNL1        0.0000
     12  C         10.4830   -2.4680    3.9120 C.2     1  UNL1        0.0000
@<TRIPOS>BOND
     1     3     2    2
     2     2     1    1
     3     2     4    1
     4     9    11    1
     5     9     7    2
     6     6     1    1
     7     6     7    1
     8     4     5    1
     9    11    12    2
    10     7     8    1
    11    12    10    1
    12     8    10    2
