MODEL 1
REMARK VINA RESULT:      -6.6      0.000      0.000
REMARK SMILES O=C(O)CCc1ccccc1
REMARK SMILES IDX 4 1 2 2 1 3 3 4 5 6 6 7 7 8 11 9 8 10 10 11 9 12
REMARK H PARENT 3 5
REMARK Flexibility Score: inf
ROOT
ATOM      1  C   UNL     1       7.295  -0.446   2.690  1.00  0.00     0.127 C 
ENDROOT
BRANCH   1   2
ATOM      2  C   UNL     1       5.946  -0.619   2.100  1.00  0.00     0.303 C 
ATOM      3  O   UNL     1       5.007   0.165   2.384  1.00  0.00    -0.252 OA
BRANCH   2   4
ATOM      4  O   UNL     1       5.685  -1.653   1.216  1.00  0.00    -0.481 OA
ATOM      5  H   UNL     1       6.416  -2.344   1.023  1.00  0.00     0.296 HD
ENDBRANCH   2   4
ENDBRANCH   1   2
BRANCH   1   6
ATOM      6  C   UNL     1       7.563  -1.608   3.598  1.00  0.00     0.047 C 
BRANCH   6   7
ATOM      7  C   UNL     1       8.892  -1.592   4.207  1.00  0.00    -0.047 A 
ATOM      8  C   UNL     1       9.949  -2.235   3.606  1.00  0.00     0.004 A 
ATOM      9  C   UNL     1       9.078  -0.922   5.394  1.00  0.00     0.004 A 
ATOM     10  C   UNL     1      11.190  -2.177   4.244  1.00  0.00     0.000 A 
ATOM     11  C   UNL     1      10.305  -0.866   6.024  1.00  0.00     0.000 A 
ATOM     12  C   UNL     1      11.370  -1.507   5.429  1.00  0.00     0.000 A 
ENDBRANCH   6   7
ENDBRANCH   1   6
TORSDOF 4
ENDMDL
MODEL 2
REMARK VINA RESULT:      -6.4      1.419      2.370
REMARK SMILES O=C(O)CCc1ccccc1
REMARK SMILES IDX 4 1 2 2 1 3 3 4 5 6 6 7 7 8 11 9 8 10 10 11 9 12
REMARK H PARENT 3 5
REMARK Flexibility Score: inf
ROOT
ATOM      1  C   UNL     1       7.952  -1.202   3.086  1.00  0.00     0.127 C 
ENDROOT
BRANCH   1   2
ATOM      2  C   UNL     1       6.658  -1.341   2.378  1.00  0.00     0.303 C 
ATOM      3  O   UNL     1       5.760  -0.471   2.487  1.00  0.00    -0.252 OA
BRANCH   2   4
ATOM      4  O   UNL     1       6.404  -2.440   1.573  1.00  0.00    -0.481 OA
ATOM      5  H   UNL     1       6.710  -3.368   1.880  1.00  0.00     0.296 HD
ENDBRANCH   2   4
ENDBRANCH   1   2
BRANCH   1   6
ATOM      6  C   UNL     1       9.026  -1.799   2.228  1.00  0.00     0.047 C 
BRANCH   6   7
ATOM      7  C   UNL     1      10.073  -2.489   2.980  1.00  0.00    -0.047 A 
ATOM      8  C   UNL     1      10.433  -2.063   4.237  1.00  0.00     0.004 A 
ATOM      9  C   UNL     1      10.699  -3.576   2.415  1.00  0.00     0.004 A 
ATOM     10  C   UNL     1      11.440  -2.770   4.897  1.00  0.00     0.000 A 
ATOM     11  C   UNL     1      11.695  -4.274   3.069  1.00  0.00     0.000 A 
ATOM     12  C   UNL     1      12.062  -3.853   4.329  1.00  0.00     0.000 A 
ENDBRANCH   6   7
ENDBRANCH   1   6
TORSDOF 4
ENDMDL
MODEL 3
REMARK VINA RESULT:      -6.1      1.396      2.335
REMARK SMILES O=C(O)CCc1ccccc1
REMARK SMILES IDX 4 1 2 2 1 3 3 4 5 6 6 7 7 8 11 9 8 10 10 11 9 12
REMARK H PARENT 3 5
REMARK Flexibility Score: inf
ROOT
ATOM      1  C   UNL     1       6.632   0.366   2.334  1.00  0.00     0.127 C 
ENDROOT
BRANCH   1   2
ATOM      2  C   UNL     1       5.325   0.685   1.713  1.00  0.00     0.303 C 
ATOM      3  O   UNL     1       5.240   0.998   0.500  1.00  0.00    -0.252 OA
BRANCH   2   4
ATOM      4  O   UNL     1       4.157   0.647   2.458  1.00  0.00    -0.481 OA
ATOM      5  H   UNL     1       3.705   1.526   2.727  1.00  0.00     0.296 HD
ENDBRANCH   2   4
ENDBRANCH   1   2
BRANCH   1   6
ATOM      6  C   UNL     1       6.804  -1.122   2.331  1.00  0.00     0.047 C 
BRANCH   6   7
ATOM      7  C   UNL     1       8.068  -1.576   2.907  1.00  0.00    -0.047 A 
ATOM      8  C   UNL     1       8.336  -1.397   4.244  1.00  0.00     0.004 A 
ATOM      9  C   UNL     1       8.993  -2.191   2.096  1.00  0.00     0.004 A 
ATOM     10  C   UNL     1       9.564  -1.856   4.727  1.00  0.00     0.000 A 
ATOM     11  C   UNL     1      10.207  -2.644   2.574  1.00  0.00     0.000 A 
ATOM     12  C   UNL     1      10.483  -2.468   3.912  1.00  0.00     0.000 A 
ENDBRANCH   6   7
ENDBRANCH   1   6
TORSDOF 4
ENDMDL
