@<TRIPOS>MOLECULE
/home/cewinharhar/GITHUB/reincatalyze/data/processed/docking_pred/2023-May-02-0947_maxeplen10_maxtrainstep1000_seadep32_gamma099_lrac9e-4_lrcr1e-3/73f03501d88ed0f960f592fe5f6124e73644cb01_ligand_2.pdbqt
 12 12 0 0 0
SMALL
GASTEIGER

@<TRIPOS>ATOM
      1  C         12.9030   -6.5120   11.7480 C.3     1  UNL1        0.1270
      2  C         14.2500   -6.4120   11.1390 C.2     1  UNL1        0.3030
      3  O         14.8240   -7.4210   10.6580 O.2     1  UNL1       -0.2520
      4  O         14.9160   -5.1980   11.0830 O.3     1  UNL1       -0.4810
      5  H         15.9260   -5.1880   10.9150 H       1  UNL1        0.2960
      6  C         11.9150   -6.8020   10.6600 C.3     1  UNL1        0.0470
      7  C         10.5690   -6.3010   10.9300 C.2     1  UNL1       -0.0470
      8  C          9.4940   -6.7400   10.1920 C.2     1  UNL1        0.0040
      9  C         10.3840   -5.3830   11.9370 C.2     1  UNL1        0.0040
     10  C          8.2360   -6.2190   10.5060 C.2     1  UNL1        0.0000
     11  C          9.1400   -4.8690   12.2460 C.2     1  UNL1        0.0000
     12  C          8.0580   -5.3020   11.5110 C.2     1  UNL1        0.0000
@<TRIPOS>BOND
     1     8    10    1
     2     8     7    2
     3    10    12    2
     4     3     2    2
     5     6     7    1
     6     6     1    1
     7     5     4    1
     8     7     9    1
     9     4     2    1
    10     2     1    1
    11    12    11    1
    12     9    11    2
