@<TRIPOS>MOLECULE
/home/cewinharhar/GITHUB/reincatalyze/data/processed/docking_pred/2023-May-02-0947_maxeplen10_maxtrainstep1000_seadep32_gamma099_lrac9e-4_lrcr1e-3/73f03501d88ed0f960f592fe5f6124e73644cb01_ligand_2.pdbqt
 12 12 0 0 0
SMALL
GASTEIGER

@<TRIPOS>ATOM
      1  C          7.2950   -0.4460    2.6900 C.3     1  UNL1        0.1270
      2  C          5.9460   -0.6190    2.1000 C.2     1  UNL1        0.3030
      3  O          5.0070    0.1650    2.3840 O.2     1  UNL1       -0.2520
      4  O          5.6850   -1.6530    1.2160 O.3     1  UNL1       -0.4810
      5  H          6.4160   -2.3440    1.0230 H       1  UNL1        0.2960
      6  C          7.5630   -1.6080    3.5980 C.3     1  UNL1        0.0470
      7  C          8.8920   -1.5920    4.2070 C.2     1  UNL1       -0.0470
      8  C          9.9490   -2.2350    3.6060 C.2     1  UNL1        0.0040
      9  C          9.0780   -0.9220    5.3940 C.2     1  UNL1        0.0040
     10  C         11.1900   -2.1770    4.2440 C.2     1  UNL1        0.0000
     11  C         10.3050   -0.8660    6.0240 C.2     1  UNL1        0.0000
     12  C         11.3700   -1.5070    5.4290 C.2     1  UNL1        0.0000
@<TRIPOS>BOND
     1     5     4    1
     2     4     2    1
     3     2     3    2
     4     2     1    1
     5     1     6    1
     6     6     7    1
     7     8     7    2
     8     8    10    1
     9     7     9    1
    10    10    12    2
    11     9    11    2
    12    12    11    1
