@<TRIPOS>MOLECULE
/home/cewinharhar/GITHUB/reincatalyze/data/processed/docking_pred/2023-May-02-0947_maxeplen10_maxtrainstep1000_seadep32_gamma099_lrac9e-4_lrcr1e-3/7473f82790d6809f011fa27bf7bcba9a4b9bdb46_ligand_2.pdbqt
 12 12 0 0 0
SMALL
GASTEIGER

@<TRIPOS>ATOM
      1  C          8.3500    0.2630   -2.2840 C.3     1  UNL1        0.1270
      2  C          9.5430    0.0030   -1.4450 C.2     1  UNL1        0.3030
      3  O          9.8170   -1.1560   -1.0450 O.2     1  UNL1       -0.2520
      4  O         10.3930    1.0340   -1.0790 O.3     1  UNL1       -0.4810
      5  H         10.9890    1.4680   -1.7890 H       1  UNL1        0.2960
      6  C          7.2370   -0.6190   -1.8060 C.3     1  UNL1        0.0470
      7  C          6.5420   -0.1120   -0.6240 C.2     1  UNL1       -0.0470
      8  C          5.9310    1.1200   -0.6420 C.2     1  UNL1        0.0040
      9  C          6.5020   -0.8840    0.5140 C.2     1  UNL1        0.0040
     10  C          5.2850    1.5400    0.5230 C.2     1  UNL1        0.0000
     11  C          5.8640   -0.4670    1.6650 C.2     1  UNL1        0.0000
     12  C          5.2490    0.7660    1.6550 C.2     1  UNL1        0.0000
@<TRIPOS>BOND
     1     1     6    1
     2     1     2    1
     3     6     7    1
     4     5     4    1
     5     2     4    1
     6     2     3    2
     7     8     7    2
     8     8    10    1
     9     7     9    1
    10     9    11    2
    11    10    12    2
    12    12    11    1
