@<TRIPOS>MOLECULE
/home/cewinharhar/GITHUB/reincatalyze/data/processed/docking_pred/2023-May-02-0947_maxeplen10_maxtrainstep1000_seadep32_gamma099_lrac9e-4_lrcr1e-3/7473f82790d6809f011fa27bf7bcba9a4b9bdb46_ligand_2.pdbqt
 12 12 0 0 0
SMALL
GASTEIGER

@<TRIPOS>ATOM
      1  C          8.4360   -0.6370   -2.1430 C.3     1  UNL1        0.1270
      2  C          8.4740   -1.9030   -2.9110 C.2     1  UNL1        0.3030
      3  O          9.5500   -2.5250   -3.0900 O.2     1  UNL1       -0.2520
      4  O          7.3170   -2.4380   -3.4550 O.3     1  UNL1       -0.4810
      5  H          6.8240   -3.1800   -2.9520 H       1  UNL1        0.2960
      6  C          7.0240   -0.1380   -2.1260 C.3     1  UNL1        0.0470
      7  C          6.4800    0.0600   -0.7830 C.2     1  UNL1       -0.0470
      8  C          5.8380    1.2310   -0.4500 C.2     1  UNL1        0.0040
      9  C          6.6140   -0.9420    0.1500 C.2     1  UNL1        0.0040
     10  C          5.3420    1.3510    0.8500 C.2     1  UNL1        0.0000
     11  C          6.1230   -0.8210    1.4350 C.2     1  UNL1        0.0000
     12  C          5.4800    0.3480    1.7770 C.2     1  UNL1        0.0000
@<TRIPOS>BOND
     1     4     5    1
     2     4     2    1
     3     3     2    2
     4     2     1    1
     5     1     6    1
     6     6     7    1
     7     7     8    2
     8     7     9    1
     9     8    10    1
    10     9    11    2
    11    10    12    2
    12    11    12    1
