@<TRIPOS>MOLECULE
/home/cewinharhar/GITHUB/reincatalyze/data/processed/docking_pred/2023-May-02-0947_maxeplen10_maxtrainstep1000_seadep32_gamma099_lrac9e-4_lrcr1e-3/76d14433275938f70f74ce69856b36729c59e426_ligand_2.pdbqt
 12 12 0 0 0
SMALL
GASTEIGER

@<TRIPOS>ATOM
      1  C          8.4340   -0.6320   -2.1310 C.3     1  UNL1        0.1270
      2  C          8.4710   -1.9000   -2.8960 C.2     1  UNL1        0.3030
      3  O          9.5500   -2.5150   -3.0860 O.2     1  UNL1       -0.2520
      4  O          7.3120   -2.4430   -3.4270 O.3     1  UNL1       -0.4810
      5  H          7.0920   -3.4260   -3.2460 H       1  UNL1        0.2960
      6  C          7.0220   -0.1320   -2.1160 C.3     1  UNL1        0.0470
      7  C          6.4720    0.0550   -0.7740 C.2     1  UNL1       -0.0470
      8  C          5.8360    1.2270   -0.4320 C.2     1  UNL1        0.0040
      9  C          6.5930   -0.9580    0.1480 C.2     1  UNL1        0.0040
     10  C          5.3340    1.3360    0.8670 C.2     1  UNL1        0.0000
     11  C          6.0960   -0.8480    1.4320 C.2     1  UNL1        0.0000
     12  C          5.4590    0.3230    1.7830 C.2     1  UNL1        0.0000
@<TRIPOS>BOND
     1     4     5    1
     2     4     2    1
     3     3     2    2
     4     2     1    1
     5     1     6    1
     6     6     7    1
     7     7     8    2
     8     7     9    1
     9     8    10    1
    10     9    11    2
    11    10    12    2
    12    11    12    1
