@<TRIPOS>MOLECULE
/home/cewinharhar/GITHUB/reincatalyze/data/processed/docking_pred/2023-May-02-0947_maxeplen10_maxtrainstep1000_seadep32_gamma099_lrac9e-4_lrcr1e-3/79094ef31ed65e340e791eab6f4e997ef8bc8970_ligand_2.pdbqt
 12 12 0 0 0
SMALL
GASTEIGER

@<TRIPOS>ATOM
      1  C          8.4040   -0.6640   -2.0660 C.3     1  UNL1        0.1270
      2  C          8.3730   -1.9060   -2.8740 C.2     1  UNL1        0.3030
      3  O          7.2870   -2.4100   -3.2520 O.2     1  UNL1       -0.2520
      4  O          9.5470   -2.5470   -3.2360 O.3     1  UNL1       -0.4810
      5  H         10.1240   -2.1510   -3.9830 H       1  UNL1        0.2960
      6  C          7.0290   -0.0700   -2.0640 C.3     1  UNL1        0.0470
      7  C          6.4570    0.1000   -0.7300 C.2     1  UNL1       -0.0470
      8  C          5.8030    1.2610   -0.3870 C.2     1  UNL1        0.0040
      9  C          6.5760   -0.9190    0.1870 C.2     1  UNL1        0.0040
     10  C          5.2800    1.3530    0.9050 C.2     1  UNL1        0.0000
     11  C          6.0600   -0.8260    1.4640 C.2     1  UNL1        0.0000
     12  C          5.4040    0.3340    1.8150 C.2     1  UNL1        0.0000
@<TRIPOS>BOND
     1     5     4    1
     2     3     2    2
     3     4     2    1
     4     2     1    1
     5     1     6    1
     6     6     7    1
     7     7     8    2
     8     7     9    1
     9     8    10    1
    10     9    11    2
    11    10    12    2
    12    11    12    1
