@<TRIPOS>MOLECULE
/home/cewinharhar/GITHUB/reincatalyze/data/processed/docking_pred/2023-May-02-0947_maxeplen10_maxtrainstep1000_seadep32_gamma099_lrac9e-4_lrcr1e-3/79495f175fd15f32955b26bb978cae7af324a937_ligand_2.pdbqt
 12 12 0 0 0
SMALL
GASTEIGER

@<TRIPOS>ATOM
      1  C          8.5670   -0.6000   -2.2660 C.3     1  UNL1        0.1270
      2  C          8.5540   -1.9130   -2.9540 C.2     1  UNL1        0.3030
      3  O          9.6140   -2.5620   -3.1370 O.2     1  UNL1       -0.2520
      4  O          7.3690   -2.4610   -3.4160 O.3     1  UNL1       -0.4810
      5  H          6.5270   -1.8790   -3.4490 H       1  UNL1        0.2960
      6  C          7.1550   -0.1090   -2.1630 C.3     1  UNL1        0.0470
      7  C          6.7460    0.2480   -0.8060 C.2     1  UNL1       -0.0470
      8  C          5.7640    1.1860   -0.5910 C.2     1  UNL1        0.0040
      9  C          7.3560   -0.3680    0.2630 C.2     1  UNL1        0.0040
     10  C          5.4240    1.4770    0.7320 C.2     1  UNL1        0.0000
     11  C          7.0190   -0.0790    1.5700 C.2     1  UNL1        0.0000
     12  C          6.0360    0.8600    1.7940 C.2     1  UNL1        0.0000
@<TRIPOS>BOND
     1     5     4    1
     2     4     2    1
     3     3     2    2
     4     2     1    1
     5     1     6    1
     6     6     7    1
     7     7     8    2
     8     7     9    1
     9     8    10    1
    10     9    11    2
    11    10    12    2
    12    11    12    1
