MODEL 1
REMARK VINA RESULT:      -7.2      0.000      0.000
REMARK SMILES O=C(O)CCc1ccccc1
REMARK SMILES IDX 4 1 2 2 1 3 3 4 5 6 6 7 7 8 11 9 8 10 10 11 9 12
REMARK H PARENT 3 5
REMARK Flexibility Score: inf
ROOT
ATOM      1  C   UNL     1       8.567  -0.600  -2.266  1.00  0.00     0.127 C 
ENDROOT
BRANCH   1   2
ATOM      2  C   UNL     1       8.554  -1.913  -2.954  1.00  0.00     0.303 C 
ATOM      3  O   UNL     1       9.614  -2.562  -3.137  1.00  0.00    -0.252 OA
BRANCH   2   4
ATOM      4  O   UNL     1       7.369  -2.461  -3.416  1.00  0.00    -0.481 OA
ATOM      5  H   UNL     1       6.527  -1.879  -3.449  1.00  0.00     0.296 HD
ENDBRANCH   2   4
ENDBRANCH   1   2
BRANCH   1   6
ATOM      6  C   UNL     1       7.155  -0.109  -2.163  1.00  0.00     0.047 C 
BRANCH   6   7
ATOM      7  C   UNL     1       6.746   0.248  -0.806  1.00  0.00    -0.047 A 
ATOM      8  C   UNL     1       5.764   1.186  -0.591  1.00  0.00     0.004 A 
ATOM      9  C   UNL     1       7.356  -0.368   0.263  1.00  0.00     0.004 A 
ATOM     10  C   UNL     1       5.424   1.477   0.732  1.00  0.00     0.000 A 
ATOM     11  C   UNL     1       7.019  -0.079   1.570  1.00  0.00     0.000 A 
ATOM     12  C   UNL     1       6.036   0.860   1.794  1.00  0.00     0.000 A 
ENDBRANCH   6   7
ENDBRANCH   1   6
TORSDOF 4
ENDMDL
MODEL 2
REMARK VINA RESULT:      -6.9      3.325      5.114
REMARK SMILES O=C(O)CCc1ccccc1
REMARK SMILES IDX 4 1 2 2 1 3 3 4 5 6 6 7 7 8 11 9 8 10 10 11 9 12
REMARK H PARENT 3 5
REMARK Flexibility Score: inf
ROOT
ATOM      1  C   UNL     1       5.020   1.772   0.654  1.00  0.00     0.127 C 
ENDROOT
BRANCH   1   2
ATOM      2  C   UNL     1       4.574   1.110   1.902  1.00  0.00     0.303 C 
ATOM      3  O   UNL     1       3.454   1.365   2.410  1.00  0.00    -0.252 OA
BRANCH   2   4
ATOM      4  O   UNL     1       5.384   0.188   2.546  1.00  0.00    -0.481 OA
ATOM      5  H   UNL     1       5.444  -0.766   2.181  1.00  0.00     0.296 HD
ENDBRANCH   2   4
ENDBRANCH   1   2
BRANCH   1   6
ATOM      6  C   UNL     1       6.517   1.849   0.671  1.00  0.00     0.047 C 
BRANCH   6   7
ATOM      7  C   UNL     1       7.165   1.063  -0.377  1.00  0.00    -0.047 A 
ATOM      8  C   UNL     1       8.499   1.235  -0.663  1.00  0.00     0.004 A 
ATOM      9  C   UNL     1       6.424   0.141  -1.080  1.00  0.00     0.004 A 
ATOM     10  C   UNL     1       9.052   0.450  -1.676  1.00  0.00     0.000 A 
ATOM     11  C   UNL     1       6.972  -0.634  -2.082  1.00  0.00     0.000 A 
ATOM     12  C   UNL     1       8.308  -0.467  -2.375  1.00  0.00     0.000 A 
ENDBRANCH   6   7
ENDBRANCH   1   6
TORSDOF 4
ENDMDL
