@<TRIPOS>MOLECULE
/home/cewinharhar/GITHUB/reincatalyze/data/processed/docking_pred/2023-May-02-0947_maxeplen10_maxtrainstep1000_seadep32_gamma099_lrac9e-4_lrcr1e-3/79495f175fd15f32955b26bb978cae7af324a937_ligand_2.pdbqt
 12 12 0 0 0
SMALL
GASTEIGER

@<TRIPOS>ATOM
      1  C          5.0200    1.7720    0.6540 C.3     1  UNL1        0.1270
      2  C          4.5740    1.1100    1.9020 C.2     1  UNL1        0.3030
      3  O          3.4540    1.3650    2.4100 O.2     1  UNL1       -0.2520
      4  O          5.3840    0.1880    2.5460 O.3     1  UNL1       -0.4810
      5  H          5.4440   -0.7660    2.1810 H       1  UNL1        0.2960
      6  C          6.5170    1.8490    0.6710 C.3     1  UNL1        0.0470
      7  C          7.1650    1.0630   -0.3770 C.2     1  UNL1       -0.0470
      8  C          8.4990    1.2350   -0.6630 C.2     1  UNL1        0.0040
      9  C          6.4240    0.1410   -1.0800 C.2     1  UNL1        0.0040
     10  C          9.0520    0.4500   -1.6760 C.2     1  UNL1        0.0000
     11  C          6.9720   -0.6340   -2.0820 C.2     1  UNL1        0.0000
     12  C          8.3080   -0.4670   -2.3750 C.2     1  UNL1        0.0000
@<TRIPOS>BOND
     1    12    11    2
     2    12    10    1
     3    11     9    1
     4    10     8    2
     5     9     7    2
     6     8     7    1
     7     7     6    1
     8     1     6    1
     9     1     2    1
    10     2     3    2
    11     2     4    1
    12     5     4    1
