@<TRIPOS>MOLECULE
/home/cewinharhar/GITHUB/reincatalyze/data/processed/docking_pred/2023-May-02-0947_maxeplen10_maxtrainstep1000_seadep32_gamma099_lrac9e-4_lrcr1e-3/7ac8f9624e71b352d93dccd4dc48cb56e96c53c0_ligand_2.pdbqt
 12 12 0 0 0
SMALL
GASTEIGER

@<TRIPOS>ATOM
      1  C          7.2880   -1.2600   -2.2010 C.3     1  UNL1        0.1270
      2  C          8.7350   -1.3680   -2.4990 C.2     1  UNL1        0.3030
      3  O          9.1930   -2.3310   -3.1630 O.2     1  UNL1       -0.2520
      4  O          9.6260   -0.4050   -2.0520 O.3     1  UNL1       -0.4810
      5  H         10.4730   -0.6980   -1.5560 H       1  UNL1        0.2960
      6  C          7.0970   -1.4330   -0.7250 C.3     1  UNL1        0.0470
      7  C          6.3730   -0.3360   -0.0860 C.2     1  UNL1       -0.0470
      8  C          5.9210   -0.4510    1.2080 C.2     1  UNL1        0.0040
      9  C          6.1470    0.8220   -0.7950 C.2     1  UNL1        0.0040
     10  C          5.2380    0.6380    1.7550 C.2     1  UNL1        0.0000
     11  C          5.4720    1.8970   -0.2520 C.2     1  UNL1        0.0000
     12  C          5.0150    1.7900    1.0430 C.2     1  UNL1        0.0000
@<TRIPOS>BOND
     1     3     2    2
     2     2     1    1
     3     2     4    1
     4     1     6    1
     5     4     5    1
     6     9    11    1
     7     9     7    2
     8     6     7    1
     9    11    12    2
    10     7     8    1
    11    12    10    1
    12     8    10    2
