@<TRIPOS>MOLECULE
/home/cewinharhar/GITHUB/reincatalyze/data/processed/docking_pred/2023-May-02-0947_maxeplen10_maxtrainstep1000_seadep32_gamma099_lrac9e-4_lrcr1e-3/7ac8f9624e71b352d93dccd4dc48cb56e96c53c0_ligand_2.pdbqt
 12 12 0 0 0
SMALL
GASTEIGER

@<TRIPOS>ATOM
      1  C          8.4050   -0.6640   -2.0650 C.3     1  UNL1        0.1270
      2  C          8.3750   -1.9030   -2.8770 C.2     1  UNL1        0.3030
      3  O          7.2880   -2.4130   -3.2460 O.2     1  UNL1       -0.2520
      4  O          9.5490   -2.5340   -3.2530 O.3     1  UNL1       -0.4810
      5  H         10.1330   -2.1140   -3.9820 H       1  UNL1        0.2960
      6  C          7.0310   -0.0670   -2.0650 C.3     1  UNL1        0.0470
      7  C          6.4560    0.1040   -0.7310 C.2     1  UNL1       -0.0470
      8  C          5.8060    1.2670   -0.3900 C.2     1  UNL1        0.0040
      9  C          6.5710   -0.9160    0.1850 C.2     1  UNL1        0.0040
     10  C          5.2810    1.3610    0.9010 C.2     1  UNL1        0.0000
     11  C          6.0530   -0.8210    1.4610 C.2     1  UNL1        0.0000
     12  C          5.4000    0.3410    1.8110 C.2     1  UNL1        0.0000
@<TRIPOS>BOND
     1     5     4    1
     2     4     2    1
     3     3     2    2
     4     2     1    1
     5     1     6    1
     6     6     7    1
     7     7     8    2
     8     7     9    1
     9     8    10    1
    10     9    11    2
    11    10    12    2
    12    11    12    1
