@<TRIPOS>MOLECULE
/home/cewinharhar/GITHUB/reincatalyze/data/processed/docking_pred/2023-May-02-0947_maxeplen10_maxtrainstep1000_seadep32_gamma099_lrac9e-4_lrcr1e-3/7d60c2a66717a3f4b6d307e9593656cfb0aaeeb8_ligand_2.pdbqt
 12 12 0 0 0
SMALL
GASTEIGER

@<TRIPOS>ATOM
      1  C          8.2670   -6.2500   10.7370 C.3     1  UNL1        0.1270
      2  C          8.4400   -4.8870   11.2940 C.2     1  UNL1        0.3030
      3  O          7.6120   -3.9750   11.0490 O.2     1  UNL1       -0.2520
      4  O          9.5240   -4.5820   12.1010 O.3     1  UNL1       -0.4810
      5  H         10.3040   -5.2420   12.1640 H       1  UNL1        0.2960
      6  C          9.6110   -6.7600   10.3150 C.3     1  UNL1        0.0470
      7  C          9.9270   -8.0940   10.8210 C.2     1  UNL1       -0.0470
      8  C         10.9000   -8.8610   10.2230 C.2     1  UNL1        0.0040
      9  C          9.2390   -8.5800   11.9090 C.2     1  UNL1        0.0040
     10  C         11.1490  -10.1260   10.7600 C.2     1  UNL1        0.0000
     11  C          9.4870   -9.8300   12.4380 C.2     1  UNL1        0.0000
     12  C         10.4590  -10.6060   11.8450 C.2     1  UNL1        0.0000
@<TRIPOS>BOND
     1     8    10    1
     2     8     7    2
     3     6     1    1
     4     6     7    1
     5     1     2    1
     6    10    12    2
     7     7     9    1
     8     3     2    2
     9     2     4    1
    10    12    11    1
    11     9    11    2
    12     4     5    1
