@<TRIPOS>MOLECULE
/home/cewinharhar/GITHUB/reincatalyze/data/processed/docking_pred/2023-May-02-0947_maxeplen10_maxtrainstep1000_seadep32_gamma099_lrac9e-4_lrcr1e-3/7d60c2a66717a3f4b6d307e9593656cfb0aaeeb8_ligand_2.pdbqt
 12 12 0 0 0
SMALL
GASTEIGER

@<TRIPOS>ATOM
      1  C          8.0990   -6.0390   11.4200 C.3     1  UNL1        0.1270
      2  C          7.9960   -4.5620   11.3720 C.2     1  UNL1        0.3030
      3  O          8.3120   -3.8550   12.3610 O.2     1  UNL1       -0.2520
      4  O          7.5460   -3.9180   10.2310 O.3     1  UNL1       -0.4810
      5  H          6.7410   -4.2980    9.7250 H       1  UNL1        0.2960
      6  C          8.8510   -6.4980   10.2080 C.3     1  UNL1        0.0470
      7  C         10.1660   -7.0630   10.5020 C.2     1  UNL1       -0.0470
      8  C         11.2280   -6.2470   10.8180 C.2     1  UNL1        0.0040
      9  C         10.3340   -8.4280   10.4640 C.2     1  UNL1        0.0040
     10  C         12.4550   -6.8560   11.0890 C.2     1  UNL1        0.0000
     11  C         11.5490   -9.0280   10.7320 C.2     1  UNL1        0.0000
     12  C         12.6170   -8.2180   11.0480 C.2     1  UNL1        0.0000
@<TRIPOS>BOND
     1     5     4    1
     2     6     7    1
     3     6     1    1
     4     4     2    1
     5     9     7    2
     6     9    11    1
     7     7     8    1
     8    11    12    2
     9     8    10    2
    10    12    10    1
    11     2     1    1
    12     2     3    2
