@<TRIPOS>MOLECULE
/home/cewinharhar/GITHUB/reincatalyze/data/processed/docking_pred/2023-May-02-0947_maxeplen10_maxtrainstep1000_seadep32_gamma099_lrac9e-4_lrcr1e-3/7d60c2a66717a3f4b6d307e9593656cfb0aaeeb8_ligand_2.pdbqt
 12 12 0 0 0
SMALL
GASTEIGER

@<TRIPOS>ATOM
      1  C          8.4360   -0.6420   -2.1240 C.3     1  UNL1        0.1270
      2  C          8.4760   -1.9050   -2.8990 C.2     1  UNL1        0.3030
      3  O          9.5550   -2.5180   -3.0880 O.2     1  UNL1       -0.2520
      4  O          7.3190   -2.4440   -3.4370 O.3     1  UNL1       -0.4810
      5  H          6.6560   -1.8290   -3.9180 H       1  UNL1        0.2960
      6  C          7.0240   -0.1390   -2.1160 C.3     1  UNL1        0.0470
      7  C          6.4690    0.0540   -0.7780 C.2     1  UNL1       -0.0470
      8  C          5.8290    1.2250   -0.4440 C.2     1  UNL1        0.0040
      9  C          6.5910   -0.9530    0.1510 C.2     1  UNL1        0.0040
     10  C          5.3220    1.3400    0.8530 C.2     1  UNL1        0.0000
     11  C          6.0900   -0.8380    1.4330 C.2     1  UNL1        0.0000
     12  C          5.4480    0.3320    1.7760 C.2     1  UNL1        0.0000
@<TRIPOS>BOND
     1     5     4    1
     2     4     2    1
     3     3     2    2
     4     2     1    1
     5     1     6    1
     6     6     7    1
     7     7     8    2
     8     7     9    1
     9     8    10    1
    10     9    11    2
    11    10    12    2
    12    11    12    1
