@<TRIPOS>MOLECULE
/home/cewinharhar/GITHUB/reincatalyze/data/processed/docking_pred/2023-May-02-0947_maxeplen10_maxtrainstep1000_seadep32_gamma099_lrac9e-4_lrcr1e-3/7d60c2a66717a3f4b6d307e9593656cfb0aaeeb8_ligand_2.pdbqt
 12 12 0 0 0
SMALL
GASTEIGER

@<TRIPOS>ATOM
      1  C         12.4350   -7.9310   10.9460 C.3     1  UNL1        0.1270
      2  C         13.3630   -8.1160    9.8050 C.2     1  UNL1        0.3030
      3  O         14.2320   -9.0220    9.8140 O.2     1  UNL1       -0.2520
      4  O         13.2960   -7.2900    8.6940 O.3     1  UNL1       -0.4810
      5  H         14.0210   -6.5820    8.5530 H       1  UNL1        0.2960
      6  C         12.1980   -6.4630   11.1260 C.3     1  UNL1        0.0470
      7  C         10.7860   -6.0930   11.2010 C.2     1  UNL1       -0.0470
      8  C         10.3430   -5.1910   12.1400 C.2     1  UNL1        0.0040
      9  C          9.8970   -6.6570   10.3150 C.2     1  UNL1        0.0040
     10  C          8.9810   -4.8840   12.1520 C.2     1  UNL1        0.0000
     11  C          8.5500   -6.3530   10.3290 C.2     1  UNL1        0.0000
     12  C          8.0980   -5.4500   11.2680 C.2     1  UNL1        0.0000
@<TRIPOS>BOND
     1     5     4    1
     2     4     2    1
     3     2     3    2
     4     2     1    1
     5     9    11    1
     6     9     7    2
     7    11    12    2
     8     1     6    1
     9     6     7    1
    10     7     8    1
    11    12    10    1
    12     8    10    2
