MODEL 1
REMARK VINA RESULT:      -7.1      0.000      0.000
REMARK SMILES O=C(O)CCc1ccccc1
REMARK SMILES IDX 4 1 2 2 1 3 3 4 5 6 6 7 7 8 11 9 8 10 10 11 9 12
REMARK H PARENT 3 5
REMARK Flexibility Score: inf
ROOT
ATOM      1  C   UNL     1       8.400  -0.645  -2.068  1.00  0.00     0.127 C 
ENDROOT
BRANCH   1   2
ATOM      2  C   UNL     1       8.399  -1.864  -2.910  1.00  0.00     0.303 C 
ATOM      3  O   UNL     1       7.327  -2.443  -3.216  1.00  0.00    -0.252 OA
BRANCH   2   4
ATOM      4  O   UNL     1       9.586  -2.401  -3.384  1.00  0.00    -0.481 OA
ATOM      5  H   UNL     1       9.694  -2.568  -4.388  1.00  0.00     0.296 HD
ENDBRANCH   2   4
ENDBRANCH   1   2
BRANCH   1   6
ATOM      6  C   UNL     1       7.016  -0.071  -2.070  1.00  0.00     0.047 C 
BRANCH   6   7
ATOM      7  C   UNL     1       6.447   0.112  -0.736  1.00  0.00    -0.047 A 
ATOM      8  C   UNL     1       5.797   1.278  -0.402  1.00  0.00     0.004 A 
ATOM      9  C   UNL     1       6.565  -0.900   0.189  1.00  0.00     0.004 A 
ATOM     10  C   UNL     1       5.277   1.383   0.890  1.00  0.00     0.000 A 
ATOM     11  C   UNL     1       6.050  -0.794   1.466  1.00  0.00     0.000 A 
ATOM     12  C   UNL     1       5.399   0.371   1.809  1.00  0.00     0.000 A 
ENDBRANCH   6   7
ENDBRANCH   1   6
TORSDOF 4
ENDMDL
MODEL 2
REMARK VINA RESULT:      -6.6      1.084      2.118
REMARK SMILES O=C(O)CCc1ccccc1
REMARK SMILES IDX 4 1 2 2 1 3 3 4 5 6 6 7 7 8 11 9 8 10 10 11 9 12
REMARK H PARENT 3 5
REMARK Flexibility Score: inf
ROOT
ATOM      1  C   UNL     1       8.674  -0.207  -3.236  1.00  0.00     0.127 C 
ENDROOT
BRANCH   1   2
ATOM      2  C   UNL     1       8.675  -1.688  -3.261  1.00  0.00     0.303 C 
ATOM      3  O   UNL     1       9.749  -2.339  -3.237  1.00  0.00    -0.252 OA
BRANCH   2   4
ATOM      4  O   UNL     1       7.487  -2.398  -3.310  1.00  0.00    -0.481 OA
ATOM      5  H   UNL     1       6.727  -2.062  -3.908  1.00  0.00     0.296 HD
ENDBRANCH   2   4
ENDBRANCH   1   2
BRANCH   1   6
ATOM      6  C   UNL     1       9.155   0.242  -1.890  1.00  0.00     0.047 C 
BRANCH   6   7
ATOM      7  C   UNL     1       8.150   0.134  -0.834  1.00  0.00    -0.047 A 
ATOM      8  C   UNL     1       8.412  -0.574   0.316  1.00  0.00     0.004 A 
ATOM      9  C   UNL     1       6.932   0.753  -1.000  1.00  0.00     0.004 A 
ATOM     10  C   UNL     1       7.406  -0.634   1.283  1.00  0.00     0.000 A 
ATOM     11  C   UNL     1       5.939   0.691  -0.043  1.00  0.00     0.000 A 
ATOM     12  C   UNL     1       6.193  -0.016   1.112  1.00  0.00     0.000 A 
ENDBRANCH   6   7
ENDBRANCH   1   6
TORSDOF 4
ENDMDL
