@<TRIPOS>MOLECULE
/home/cewinharhar/GITHUB/reincatalyze/data/processed/docking_pred/2023-May-02-0947_maxeplen10_maxtrainstep1000_seadep32_gamma099_lrac9e-4_lrcr1e-3/80ffcc0cdcaea1df7ad243f542ab1163fa4dc1ce_ligand_2.pdbqt
 12 12 0 0 0
SMALL
GASTEIGER

@<TRIPOS>ATOM
      1  C          8.6740   -0.2070   -3.2360 C.3     1  UNL1        0.1270
      2  C          8.6750   -1.6880   -3.2610 C.2     1  UNL1        0.3030
      3  O          9.7490   -2.3390   -3.2370 O.2     1  UNL1       -0.2520
      4  O          7.4870   -2.3980   -3.3100 O.3     1  UNL1       -0.4810
      5  H          6.7270   -2.0620   -3.9080 H       1  UNL1        0.2960
      6  C          9.1550    0.2420   -1.8900 C.3     1  UNL1        0.0470
      7  C          8.1500    0.1340   -0.8340 C.2     1  UNL1       -0.0470
      8  C          8.4120   -0.5740    0.3160 C.2     1  UNL1        0.0040
      9  C          6.9320    0.7530   -1.0000 C.2     1  UNL1        0.0040
     10  C          7.4060   -0.6340    1.2830 C.2     1  UNL1        0.0000
     11  C          5.9390    0.6910   -0.0430 C.2     1  UNL1        0.0000
     12  C          6.1930   -0.0160    1.1120 C.2     1  UNL1        0.0000
@<TRIPOS>BOND
     1     5     4    1
     2     4     2    1
     3     2     3    2
     4     2     1    1
     5     1     6    1
     6     6     7    1
     7     9     7    2
     8     9    11    1
     9     7     8    1
    10    11    12    2
    11     8    10    2
    12    12    10    1
