@<TRIPOS>MOLECULE
/home/cewinharhar/GITHUB/reincatalyze/data/processed/docking_pred/2023-May-02-0947_maxeplen10_maxtrainstep1000_seadep32_gamma099_lrac9e-4_lrcr1e-3/80ffcc0cdcaea1df7ad243f542ab1163fa4dc1ce_ligand_2.pdbqt
 12 12 0 0 0
SMALL
GASTEIGER

@<TRIPOS>ATOM
      1  C          8.4000   -0.6450   -2.0680 C.3     1  UNL1        0.1270
      2  C          8.3990   -1.8640   -2.9100 C.2     1  UNL1        0.3030
      3  O          7.3270   -2.4430   -3.2160 O.2     1  UNL1       -0.2520
      4  O          9.5860   -2.4010   -3.3840 O.3     1  UNL1       -0.4810
      5  H          9.6940   -2.5680   -4.3880 H       1  UNL1        0.2960
      6  C          7.0160   -0.0710   -2.0700 C.3     1  UNL1        0.0470
      7  C          6.4470    0.1120   -0.7360 C.2     1  UNL1       -0.0470
      8  C          5.7970    1.2780   -0.4020 C.2     1  UNL1        0.0040
      9  C          6.5650   -0.9000    0.1890 C.2     1  UNL1        0.0040
     10  C          5.2770    1.3830    0.8900 C.2     1  UNL1        0.0000
     11  C          6.0500   -0.7940    1.4660 C.2     1  UNL1        0.0000
     12  C          5.3990    0.3710    1.8090 C.2     1  UNL1        0.0000
@<TRIPOS>BOND
     1     5     4    1
     2     4     2    1
     3     3     2    2
     4     2     1    1
     5     6     1    1
     6     6     7    1
     7     7     8    2
     8     7     9    1
     9     8    10    1
    10     9    11    2
    11    10    12    2
    12    11    12    1
