@<TRIPOS>MOLECULE
/home/cewinharhar/GITHUB/reincatalyze/data/processed/docking_pred/2023-May-02-0947_maxeplen10_maxtrainstep1000_seadep32_gamma099_lrac9e-4_lrcr1e-3/82066193004a6cdbe54a2a950d109d8cafa96b54_ligand_2.pdbqt
 12 12 0 0 0
SMALL
GASTEIGER

@<TRIPOS>ATOM
      1  C          5.7470    1.0080   -0.1400 C.3     1  UNL1        0.1270
      2  C          5.3100    1.5060    1.1850 C.2     1  UNL1        0.3030
      3  O          5.2760    2.7360    1.4390 O.2     1  UNL1       -0.2520
      4  O          4.9240    0.6260    2.1830 O.3     1  UNL1       -0.4810
      5  H          3.9280    0.4380    2.3280 H       1  UNL1        0.2960
      6  C          6.4740   -0.2870    0.0600 C.3     1  UNL1        0.0470
      7  C          7.9220   -0.1900   -0.1180 C.2     1  UNL1       -0.0470
      8  C          8.4650    0.7580   -0.9530 C.2     1  UNL1        0.0040
      9  C          8.7420   -1.0610    0.5620 C.2     1  UNL1        0.0040
     10  C          9.8560    0.7930   -1.0750 C.2     1  UNL1        0.0000
     11  C         10.1160   -1.0250    0.4400 C.2     1  UNL1        0.0000
     12  C         10.6690   -0.0780   -0.3950 C.2     1  UNL1        0.0000
@<TRIPOS>BOND
     1    10     8    1
     2    10    12    2
     3     8     7    2
     4    12    11    1
     5     1     6    1
     6     1     2    1
     7     7     6    1
     8     7     9    1
     9    11     9    2
    10     2     3    2
    11     2     4    1
    12     4     5    1
