@<TRIPOS>MOLECULE
/home/cewinharhar/GITHUB/reincatalyze/data/processed/docking_pred/2023-May-02-0947_maxeplen10_maxtrainstep1000_seadep32_gamma099_lrac9e-4_lrcr1e-3/82066193004a6cdbe54a2a950d109d8cafa96b54_ligand_2.pdbqt
 12 12 0 0 0
SMALL
GASTEIGER

@<TRIPOS>ATOM
      1  C          8.3460    0.1530   -2.2920 C.3     1  UNL1        0.1270
      2  C          9.5470   -0.0380   -1.4440 C.2     1  UNL1        0.3030
      3  O          9.8810   -1.1770   -1.0360 O.2     1  UNL1       -0.2520
      4  O         10.3360    1.0410   -1.0780 O.3     1  UNL1       -0.4810
      5  H         10.9440    1.4770   -1.7770 H       1  UNL1        0.2960
      6  C          7.2530   -0.7240   -1.7630 C.3     1  UNL1        0.0470
      7  C          6.5530   -0.1700   -0.6050 C.2     1  UNL1       -0.0470
      8  C          6.4730   -0.8770    0.5720 C.2     1  UNL1        0.0040
      9  C          5.9750    1.0740   -0.7030 C.2     1  UNL1        0.0040
     10  C          5.7900   -0.2850    1.6380 C.2     1  UNL1        0.0000
     11  C          5.3000    1.6570    0.3520 C.2     1  UNL1        0.0000
     12  C          5.2140    0.9560    1.5340 C.2     1  UNL1        0.0000
@<TRIPOS>BOND
     1     1     6    1
     2     1     2    1
     3     5     4    1
     4     6     7    1
     5     2     4    1
     6     2     3    2
     7     9     7    2
     8     9    11    1
     9     7     8    1
    10    11    12    2
    11     8    10    2
    12    12    10    1
