@<TRIPOS>MOLECULE
/home/cewinharhar/GITHUB/reincatalyze/data/processed/docking_pred/2023-May-02-0947_maxeplen10_maxtrainstep1000_seadep32_gamma099_lrac9e-4_lrcr1e-3/82066193004a6cdbe54a2a950d109d8cafa96b54_ligand_2.pdbqt
 12 12 0 0 0
SMALL
GASTEIGER

@<TRIPOS>ATOM
      1  C          5.0200    1.7780    0.6560 C.3     1  UNL1        0.1270
      2  C          4.5620    1.1160    1.9000 C.2     1  UNL1        0.3030
      3  O          3.4370    1.3720    2.3980 O.2     1  UNL1       -0.2520
      4  O          5.3650    0.1930    2.5510 O.3     1  UNL1       -0.4810
      5  H          5.7650    0.4320    3.4630 H       1  UNL1        0.2960
      6  C          6.5170    1.8420    0.6800 C.3     1  UNL1        0.0470
      7  C          7.1630    1.0590   -0.3720 C.2     1  UNL1       -0.0470
      8  C          8.4970    1.2310   -0.6580 C.2     1  UNL1        0.0040
      9  C          6.4200    0.1400   -1.0760 C.2     1  UNL1        0.0040
     10  C          9.0480    0.4490   -1.6750 C.2     1  UNL1        0.0000
     11  C          6.9670   -0.6330   -2.0810 C.2     1  UNL1        0.0000
     12  C          8.3020   -0.4660   -2.3750 C.2     1  UNL1        0.0000
@<TRIPOS>BOND
     1    12    11    2
     2    12    10    1
     3    11     9    1
     4    10     8    2
     5     9     7    2
     6     8     7    1
     7     7     6    1
     8     1     6    1
     9     1     2    1
    10     2     3    2
    11     2     4    1
    12     4     5    1
