MODEL 1
REMARK VINA RESULT:      -7.2      0.000      0.000
REMARK SMILES O=C(O)CCc1ccccc1
REMARK SMILES IDX 4 1 2 2 1 3 3 4 5 6 6 7 7 8 11 9 8 10 10 11 9 12
REMARK H PARENT 3 5
REMARK Flexibility Score: inf
ROOT
ATOM      1  C   UNL     1       8.564  -0.602  -2.271  1.00  0.00     0.127 C 
ENDROOT
BRANCH   1   2
ATOM      2  C   UNL     1       8.546  -1.912  -2.963  1.00  0.00     0.303 C 
ATOM      3  O   UNL     1       9.601  -2.569  -3.142  1.00  0.00    -0.252 OA
BRANCH   2   4
ATOM      4  O   UNL     1       7.358  -2.450  -3.433  1.00  0.00    -0.481 OA
ATOM      5  H   UNL     1       7.116  -3.416  -3.195  1.00  0.00     0.296 HD
ENDBRANCH   2   4
ENDBRANCH   1   2
BRANCH   1   6
ATOM      6  C   UNL     1       7.156  -0.100  -2.175  1.00  0.00     0.047 C 
BRANCH   6   7
ATOM      7  C   UNL     1       6.743   0.256  -0.818  1.00  0.00    -0.047 A 
ATOM      8  C   UNL     1       5.772   1.207  -0.606  1.00  0.00     0.004 A 
ATOM      9  C   UNL     1       7.337  -0.373   0.251  1.00  0.00     0.004 A 
ATOM     10  C   UNL     1       5.426   1.496   0.716  1.00  0.00     0.000 A 
ATOM     11  C   UNL     1       6.995  -0.085   1.558  1.00  0.00     0.000 A 
ATOM     12  C   UNL     1       6.023   0.866   1.779  1.00  0.00     0.000 A 
ENDBRANCH   6   7
ENDBRANCH   1   6
TORSDOF 4
ENDMDL
MODEL 2
REMARK VINA RESULT:      -6.9      3.329      5.115
REMARK SMILES O=C(O)CCc1ccccc1
REMARK SMILES IDX 4 1 2 2 1 3 3 4 5 6 6 7 7 8 11 9 8 10 10 11 9 12
REMARK H PARENT 3 5
REMARK Flexibility Score: inf
ROOT
ATOM      1  C   UNL     1       5.020   1.778   0.656  1.00  0.00     0.127 C 
ENDROOT
BRANCH   1   2
ATOM      2  C   UNL     1       4.562   1.116   1.900  1.00  0.00     0.303 C 
ATOM      3  O   UNL     1       3.437   1.372   2.398  1.00  0.00    -0.252 OA
BRANCH   2   4
ATOM      4  O   UNL     1       5.365   0.193   2.551  1.00  0.00    -0.481 OA
ATOM      5  H   UNL     1       5.765   0.432   3.463  1.00  0.00     0.296 HD
ENDBRANCH   2   4
ENDBRANCH   1   2
BRANCH   1   6
ATOM      6  C   UNL     1       6.517   1.842   0.680  1.00  0.00     0.047 C 
BRANCH   6   7
ATOM      7  C   UNL     1       7.163   1.059  -0.372  1.00  0.00    -0.047 A 
ATOM      8  C   UNL     1       8.497   1.231  -0.658  1.00  0.00     0.004 A 
ATOM      9  C   UNL     1       6.420   0.140  -1.076  1.00  0.00     0.004 A 
ATOM     10  C   UNL     1       9.048   0.449  -1.675  1.00  0.00     0.000 A 
ATOM     11  C   UNL     1       6.967  -0.633  -2.081  1.00  0.00     0.000 A 
ATOM     12  C   UNL     1       8.302  -0.466  -2.375  1.00  0.00     0.000 A 
ENDBRANCH   6   7
ENDBRANCH   1   6
TORSDOF 4
ENDMDL
