MODEL 1
REMARK VINA RESULT:      -7.0      0.000      0.000
REMARK SMILES O=C(O)CCc1ccccc1
REMARK SMILES IDX 4 1 2 2 1 3 3 4 5 6 6 7 7 8 11 9 8 10 10 11 9 12
REMARK H PARENT 3 5
REMARK Flexibility Score: inf
ROOT
ATOM      1  C   UNL     1       8.608  -0.676  -2.073  1.00  0.00     0.127 C 
ENDROOT
BRANCH   1   2
ATOM      2  C   UNL     1       8.656  -1.915  -2.884  1.00  0.00     0.303 C 
ATOM      3  O   UNL     1       9.746  -2.489  -3.132  1.00  0.00    -0.252 OA
BRANCH   2   4
ATOM      4  O   UNL     1       7.496  -2.475  -3.395  1.00  0.00    -0.481 OA
ATOM      5  H   UNL     1       6.634  -1.922  -3.401  1.00  0.00     0.296 HD
ENDBRANCH   2   4
ENDBRANCH   1   2
BRANCH   1   6
ATOM      6  C   UNL     1       7.207  -0.147  -2.103  1.00  0.00     0.047 C 
BRANCH   6   7
ATOM      7  C   UNL     1       6.601   0.009  -0.782  1.00  0.00    -0.047 A 
ATOM      8  C   UNL     1       6.659  -1.008   0.142  1.00  0.00     0.004 A 
ATOM      9  C   UNL     1       5.969   1.190  -0.468  1.00  0.00     0.004 A 
ATOM     10  C   UNL     1       6.060  -0.790   1.385  1.00  0.00     0.000 A 
ATOM     11  C   UNL     1       5.377   1.404   0.761  1.00  0.00     0.000 A 
ATOM     12  C   UNL     1       5.430   0.390   1.692  1.00  0.00     0.000 A 
ENDBRANCH   6   7
ENDBRANCH   1   6
TORSDOF 4
ENDMDL
