@<TRIPOS>MOLECULE
/home/cewinharhar/GITHUB/reincatalyze/data/processed/docking_pred/2023-May-02-0947_maxeplen10_maxtrainstep1000_seadep32_gamma099_lrac9e-4_lrcr1e-3/8651a6b7cbc4b018fd9bb7015a505d05e6fdae34_ligand_2.pdbqt
 12 12 0 0 0
SMALL
GASTEIGER

@<TRIPOS>ATOM
      1  C          8.6080   -0.6760   -2.0730 C.3     1  UNL1        0.1270
      2  C          8.6560   -1.9150   -2.8840 C.2     1  UNL1        0.3030
      3  O          9.7460   -2.4890   -3.1320 O.2     1  UNL1       -0.2520
      4  O          7.4960   -2.4750   -3.3950 O.3     1  UNL1       -0.4810
      5  H          6.6340   -1.9220   -3.4010 H       1  UNL1        0.2960
      6  C          7.2070   -0.1470   -2.1030 C.3     1  UNL1        0.0470
      7  C          6.6010    0.0090   -0.7820 C.2     1  UNL1       -0.0470
      8  C          6.6590   -1.0080    0.1420 C.2     1  UNL1        0.0040
      9  C          5.9690    1.1900   -0.4680 C.2     1  UNL1        0.0040
     10  C          6.0600   -0.7900    1.3850 C.2     1  UNL1        0.0000
     11  C          5.3770    1.4040    0.7610 C.2     1  UNL1        0.0000
     12  C          5.4300    0.3900    1.6920 C.2     1  UNL1        0.0000
@<TRIPOS>BOND
     1     5     4    1
     2     4     2    1
     3     3     2    2
     4     2     1    1
     5     6     1    1
     6     6     7    1
     7     7     9    2
     8     7     8    1
     9     9    11    1
    10     8    10    2
    11    11    12    2
    12    10    12    1
