@<TRIPOS>MOLECULE
/home/cewinharhar/GITHUB/reincatalyze/data/processed/docking_pred/2023-May-02-0947_maxeplen10_maxtrainstep1000_seadep32_gamma099_lrac9e-4_lrcr1e-3/87c24324279ed01ab1d4888e5c128f335f215516_ligand_2.pdbqt
 12 12 0 0 0
SMALL
GASTEIGER

@<TRIPOS>ATOM
      1  C          5.9210   -0.8900    1.7670 C.3     1  UNL1        0.1270
      2  C          5.3610    0.4530    2.0470 C.2     1  UNL1        0.3030
      3  O          4.1880    0.5930    2.4730 O.2     1  UNL1       -0.2520
      4  O          6.1190    1.5950    1.8440 O.3     1  UNL1       -0.4810
      5  H          5.7130    2.5100    2.0560 H       1  UNL1        0.2960
      6  C          7.3840   -0.7410    1.4850 C.3     1  UNL1        0.0470
      7  C          7.7090   -0.6470    0.0620 C.2     1  UNL1       -0.0470
      8  C          8.8490   -0.0040   -0.3580 C.2     1  UNL1        0.0040
      9  C          6.8590   -1.2150   -0.8590 C.2     1  UNL1        0.0040
     10  C          9.0970    0.0460   -1.7320 C.2     1  UNL1        0.0000
     11  C          7.1050   -1.1640   -2.2170 C.2     1  UNL1        0.0000
     12  C          8.2450   -0.5210   -2.6460 C.2     1  UNL1        0.0000
@<TRIPOS>BOND
     1    12    11    2
     2    12    10    1
     3    11     9    1
     4    10     8    2
     5     9     7    2
     6     8     7    1
     7     7     6    1
     8     6     1    1
     9     1     2    1
    10     4     2    1
    11     4     5    1
    12     2     3    2
