@<TRIPOS>MOLECULE
/home/cewinharhar/GITHUB/reincatalyze/data/processed/docking_pred/2023-May-02-0947_maxeplen10_maxtrainstep1000_seadep32_gamma099_lrac9e-4_lrcr1e-3/87c24324279ed01ab1d4888e5c128f335f215516_ligand_2.pdbqt
 12 12 0 0 0
SMALL
GASTEIGER

@<TRIPOS>ATOM
      1  C          4.9860   -0.0940    1.9550 C.3     1  UNL1        0.1270
      2  C          4.2660    1.2010    1.9270 C.2     1  UNL1        0.3030
      3  O          4.6610    2.1500    1.2060 O.2     1  UNL1       -0.2520
      4  O          3.1320    1.4000    2.6990 O.3     1  UNL1       -0.4810
      5  H          2.2550    0.9490    2.4260 H       1  UNL1        0.2960
      6  C          6.4280    0.1630    1.6430 C.3     1  UNL1        0.0470
      7  C          6.9540   -0.6520    0.5490 C.2     1  UNL1       -0.0470
      8  C          6.5780   -0.4090   -0.7520 C.2     1  UNL1        0.0040
      9  C          7.8350   -1.6690    0.8320 C.2     1  UNL1        0.0040
     10  C          7.1200   -1.2260   -1.7470 C.2     1  UNL1        0.0000
     11  C          8.3700   -2.4760   -0.1530 C.2     1  UNL1        0.0000
     12  C          7.9980   -2.2400   -1.4580 C.2     1  UNL1        0.0000
@<TRIPOS>BOND
     1    10    12    2
     2    10     8    1
     3    12    11    1
     4     8     7    2
     5    11     9    2
     6     7     9    1
     7     7     6    1
     8     3     2    2
     9     6     1    1
    10     2     1    1
    11     2     4    1
    12     5     4    1
