@<TRIPOS>MOLECULE
/home/cewinharhar/GITHUB/reincatalyze/data/processed/docking_pred/2023-May-02-0947_maxeplen10_maxtrainstep1000_seadep32_gamma099_lrac9e-4_lrcr1e-3/87c24324279ed01ab1d4888e5c128f335f215516_ligand_2.pdbqt
 12 12 0 0 0
SMALL
GASTEIGER

@<TRIPOS>ATOM
      1  C          8.3170   -0.6940   -2.1580 C.3     1  UNL1        0.1270
      2  C          8.4370   -1.9550   -2.9270 C.2     1  UNL1        0.3030
      3  O          9.5510   -2.5090   -3.0990 O.2     1  UNL1       -0.2520
      4  O          7.3180   -2.5590   -3.4780 O.3     1  UNL1       -0.4810
      5  H          6.7400   -2.0340   -4.1390 H       1  UNL1        0.2960
      6  C          6.8900   -0.5380   -1.7280 C.3     1  UNL1        0.0470
      7  C          6.6820   -0.7000   -0.2900 C.2     1  UNL1       -0.0470
      8  C          7.2800   -1.7310    0.3960 C.2     1  UNL1        0.0040
      9  C          5.8790    0.1960    0.3770 C.2     1  UNL1        0.0040
     10  C          7.0380   -1.8240    1.7680 C.2     1  UNL1        0.0000
     11  C          5.6400    0.1030    1.7340 C.2     1  UNL1        0.0000
     12  C          6.2350   -0.9280    2.4280 C.2     1  UNL1        0.0000
@<TRIPOS>BOND
     1     5     4    1
     2     4     2    1
     3     3     2    2
     4     2     1    1
     5     1     6    1
     6     6     7    1
     7     7     9    2
     8     7     8    1
     9     9    11    1
    10     8    10    2
    11    11    12    2
    12    10    12    1
