@<TRIPOS>MOLECULE
/home/cewinharhar/GITHUB/reincatalyze/data/processed/docking_pred/2023-May-02-0947_maxeplen10_maxtrainstep1000_seadep32_gamma099_lrac9e-4_lrcr1e-3/8a11bcf53d23875e79cb17a52aa7b3de0dc85e7d_ligand_2.pdbqt
 12 12 0 0 0
SMALL
GASTEIGER

@<TRIPOS>ATOM
      1  C          8.4330   -0.6380   -2.1320 C.3     1  UNL1        0.1270
      2  C          8.4690   -1.9010   -2.9060 C.2     1  UNL1        0.3030
      3  O          9.5470   -2.5190   -3.0940 O.2     1  UNL1       -0.2520
      4  O          7.3110   -2.4370   -3.4440 O.3     1  UNL1       -0.4810
      5  H          6.5020   -1.8290   -3.5990 H       1  UNL1        0.2960
      6  C          7.0230   -0.1330   -2.1210 C.3     1  UNL1        0.0470
      7  C          6.4700    0.0570   -0.7810 C.2     1  UNL1       -0.0470
      8  C          5.8360    1.2290   -0.4410 C.2     1  UNL1        0.0040
      9  C          6.5890   -0.9550    0.1440 C.2     1  UNL1        0.0040
     10  C          5.3310    1.3410    0.8570 C.2     1  UNL1        0.0000
     11  C          6.0900   -0.8420    1.4260 C.2     1  UNL1        0.0000
     12  C          5.4540    0.3290    1.7750 C.2     1  UNL1        0.0000
@<TRIPOS>BOND
     1     5     4    1
     2     4     2    1
     3     3     2    2
     4     2     1    1
     5     1     6    1
     6     6     7    1
     7     7     8    2
     8     7     9    1
     9     8    10    1
    10     9    11    2
    11    10    12    2
    12    11    12    1
