@<TRIPOS>MOLECULE
/home/cewinharhar/GITHUB/reincatalyze/data/processed/docking_pred/2023-May-02-0947_maxeplen10_maxtrainstep1000_seadep32_gamma099_lrac9e-4_lrcr1e-3/8f258178c278a1f8efc989ef7d8625b520fa90c8_ligand_2.pdbqt
 12 12 0 0 0
SMALL
GASTEIGER

@<TRIPOS>ATOM
      1  C          7.2570   -1.2540   -2.1720 C.3     1  UNL1        0.1270
      2  C          8.6960   -1.3140   -2.5240 C.2     1  UNL1        0.3030
      3  O          9.5050   -0.4500   -2.1030 O.2     1  UNL1       -0.2520
      4  O          9.1880   -2.3280   -3.3290 O.3     1  UNL1       -0.4810
      5  H         10.1680   -2.6100   -3.2370 H       1  UNL1        0.2960
      6  C          7.1340   -1.3240   -0.6800 C.3     1  UNL1        0.0470
      7  C          6.3820   -0.2160   -0.0930 C.2     1  UNL1       -0.0470
      8  C          5.9430   -0.2760    1.2090 C.2     1  UNL1        0.0040
      9  C          6.1170    0.8950   -0.8590 C.2     1  UNL1        0.0040
     10  C          5.2320    0.8190    1.7040 C.2     1  UNL1        0.0000
     11  C          5.4130    1.9770   -0.3680 C.2     1  UNL1        0.0000
     12  C          4.9690    1.9250    0.9350 C.2     1  UNL1        0.0000
@<TRIPOS>BOND
     1     4     5    1
     2     4     2    1
     3     2     1    1
     4     2     3    2
     5     1     6    1
     6     9    11    1
     7     9     7    2
     8     6     7    1
     9    11    12    2
    10     7     8    1
    11    12    10    1
    12     8    10    2
