MODEL 1
REMARK VINA RESULT:      -7.3      0.000      0.000
REMARK SMILES O=C(O)CCc1ccccc1
REMARK SMILES IDX 4 1 2 2 1 3 3 4 5 6 6 7 7 8 11 9 8 10 10 11 9 12
REMARK H PARENT 3 5
REMARK Flexibility Score: inf
ROOT
ATOM      1  C   UNL     1       8.460  -0.678  -2.081  1.00  0.00     0.127 C 
ENDROOT
BRANCH   1   2
ATOM      2  C   UNL     1       8.473  -1.920  -2.889  1.00  0.00     0.303 C 
ATOM      3  O   UNL     1       9.538  -2.554  -3.091  1.00  0.00    -0.252 OA
BRANCH   2   4
ATOM      4  O   UNL     1       7.305  -2.417  -3.445  1.00  0.00    -0.481 OA
ATOM      5  H   UNL     1       6.476  -1.818  -3.487  1.00  0.00     0.296 HD
ENDBRANCH   2   4
ENDBRANCH   1   2
BRANCH   1   6
ATOM      6  C   UNL     1       7.061  -0.143  -2.061  1.00  0.00     0.047 C 
BRANCH   6   7
ATOM      7  C   UNL     1       6.504   0.017  -0.719  1.00  0.00    -0.047 A 
ATOM      8  C   UNL     1       5.807   1.152  -0.377  1.00  0.00     0.004 A 
ATOM      9  C   UNL     1       6.681  -0.987   0.205  1.00  0.00     0.004 A 
ATOM     10  C   UNL     1       5.302   1.237   0.923  1.00  0.00     0.000 A 
ATOM     11  C   UNL     1       6.182  -0.902   1.489  1.00  0.00     0.000 A 
ATOM     12  C   UNL     1       5.484   0.233   1.841  1.00  0.00     0.000 A 
ENDBRANCH   6   7
ENDBRANCH   1   6
TORSDOF 4
ENDMDL
