@<TRIPOS>MOLECULE
/home/cewinharhar/GITHUB/reincatalyze/data/processed/docking_pred/2023-May-02-0947_maxeplen10_maxtrainstep1000_seadep32_gamma099_lrac9e-4_lrcr1e-3/8f3f3cc121b2e0b9b67c9595347d7d2b0dd21437_ligand_2.pdbqt
 12 12 0 0 0
SMALL
GASTEIGER

@<TRIPOS>ATOM
      1  C          8.4600   -0.6780   -2.0810 C.3     1  UNL1        0.1270
      2  C          8.4730   -1.9200   -2.8890 C.2     1  UNL1        0.3030
      3  O          9.5380   -2.5540   -3.0910 O.2     1  UNL1       -0.2520
      4  O          7.3050   -2.4170   -3.4450 O.3     1  UNL1       -0.4810
      5  H          6.4760   -1.8180   -3.4870 H       1  UNL1        0.2960
      6  C          7.0610   -0.1430   -2.0610 C.3     1  UNL1        0.0470
      7  C          6.5040    0.0170   -0.7190 C.2     1  UNL1       -0.0470
      8  C          5.8070    1.1520   -0.3770 C.2     1  UNL1        0.0040
      9  C          6.6810   -0.9870    0.2050 C.2     1  UNL1        0.0040
     10  C          5.3020    1.2370    0.9230 C.2     1  UNL1        0.0000
     11  C          6.1820   -0.9020    1.4890 C.2     1  UNL1        0.0000
     12  C          5.4840    0.2330    1.8410 C.2     1  UNL1        0.0000
@<TRIPOS>BOND
     1     5     4    1
     2     4     2    1
     3     3     2    2
     4     2     1    1
     5     1     6    1
     6     6     7    1
     7     7     8    2
     8     7     9    1
     9     8    10    1
    10     9    11    2
    11    10    12    2
    12    11    12    1
