@<TRIPOS>MOLECULE
/home/cewinharhar/GITHUB/reincatalyze/data/processed/docking_pred/2023-May-02-0947_maxeplen10_maxtrainstep1000_seadep32_gamma099_lrac9e-4_lrcr1e-3/8f7c925e970cb887b69f6e81c5db99fda922d0ae_ligand_2.pdbqt
 12 12 0 0 0
SMALL
GASTEIGER

@<TRIPOS>ATOM
      1  C          8.4050   -0.6550   -2.0790 C.3     1  UNL1        0.1270
      2  C          8.3730   -1.9040   -2.8750 C.2     1  UNL1        0.3030
      3  O          7.2860   -2.4090   -3.2510 O.2     1  UNL1       -0.2520
      4  O          9.5460   -2.5520   -3.2280 O.3     1  UNL1       -0.4810
      5  H         10.2970   -2.6370   -2.5380 H       1  UNL1        0.2960
      6  C          7.0270   -0.0660   -2.0700 C.3     1  UNL1        0.0470
      7  C          6.4610    0.1030   -0.7330 C.2     1  UNL1       -0.0470
      8  C          5.8080    1.2640   -0.3880 C.2     1  UNL1        0.0040
      9  C          6.5860   -0.9160    0.1830 C.2     1  UNL1        0.0040
     10  C          5.2910    1.3560    0.9070 C.2     1  UNL1        0.0000
     11  C          6.0750   -0.8220    1.4620 C.2     1  UNL1        0.0000
     12  C          5.4200    0.3370    1.8160 C.2     1  UNL1        0.0000
@<TRIPOS>BOND
     1     3     2    2
     2     4     2    1
     3     4     5    1
     4     2     1    1
     5     1     6    1
     6     6     7    1
     7     7     8    2
     8     7     9    1
     9     8    10    1
    10     9    11    2
    11    10    12    2
    12    11    12    1
