@<TRIPOS>MOLECULE
/home/cewinharhar/GITHUB/reincatalyze/data/processed/docking_pred/2023-May-02-0947_maxeplen10_maxtrainstep1000_seadep32_gamma099_lrac9e-4_lrcr1e-3/8f7e92428ebbeefdf44ae8ea1c0956f20f305f25_ligand_2.pdbqt
 12 12 0 0 0
SMALL
GASTEIGER

@<TRIPOS>ATOM
      1  C          7.9500   -1.2620    3.1250 C.3     1  UNL1        0.1270
      2  C          6.6700   -1.3520    2.3830 C.2     1  UNL1        0.3030
      3  O          5.7930   -0.4600    2.4890 O.2     1  UNL1       -0.2520
      4  O          6.4060   -2.4280    1.5510 O.3     1  UNL1       -0.4810
      5  H          7.0370   -3.2340    1.5580 H       1  UNL1        0.2960
      6  C          9.0370   -1.8160    2.2560 C.3     1  UNL1        0.0470
      7  C         10.0940   -2.5070    2.9930 C.2     1  UNL1       -0.0470
      8  C         10.4790   -2.0740    4.2410 C.2     1  UNL1        0.0040
      9  C         10.7030   -3.6020    2.4260 C.2     1  UNL1        0.0040
     10  C         11.4940   -2.7830    4.8880 C.2     1  UNL1        0.0000
     11  C         11.7060   -4.3010    3.0670 C.2     1  UNL1        0.0000
     12  C         12.0980   -3.8740    4.3170 C.2     1  UNL1        0.0000
@<TRIPOS>BOND
     1     4     5    1
     2     4     2    1
     3     6     7    1
     4     6     1    1
     5     2     3    2
     6     2     1    1
     7     9     7    2
     8     9    11    1
     9     7     8    1
    10    11    12    2
    11     8    10    2
    12    12    10    1
