@<TRIPOS>MOLECULE
/home/cewinharhar/GITHUB/reincatalyze/data/processed/docking_pred/2023-May-02-0947_maxeplen10_maxtrainstep1000_seadep32_gamma099_lrac9e-4_lrcr1e-3/8f7e92428ebbeefdf44ae8ea1c0956f20f305f25_ligand_2.pdbqt
 12 12 0 0 0
SMALL
GASTEIGER

@<TRIPOS>ATOM
      1  C          6.6370    0.3800    2.3400 C.3     1  UNL1        0.1270
      2  C          5.3310    0.6980    1.7160 C.2     1  UNL1        0.3030
      3  O          5.2480    1.0020    0.5000 O.2     1  UNL1       -0.2520
      4  O          4.1630    0.6680    2.4600 O.3     1  UNL1       -0.4810
      5  H          3.9310   -0.1740    2.9940 H       1  UNL1        0.2960
      6  C          6.8080   -1.1090    2.3430 C.3     1  UNL1        0.0470
      7  C          8.0720   -1.5610    2.9220 C.2     1  UNL1       -0.0470
      8  C          8.3390   -1.3780    4.2580 C.2     1  UNL1        0.0040
      9  C          8.9970   -2.1790    2.1130 C.2     1  UNL1        0.0040
     10  C          9.5660   -1.8360    4.7430 C.2     1  UNL1        0.0000
     11  C         10.2100   -2.6310    2.5930 C.2     1  UNL1        0.0000
     12  C         10.4860   -2.4510    3.9310 C.2     1  UNL1        0.0000
@<TRIPOS>BOND
     1     3     2    2
     2     2     1    1
     3     2     4    1
     4     9    11    1
     5     9     7    2
     6     1     6    1
     7     6     7    1
     8     4     5    1
     9    11    12    2
    10     7     8    1
    11    12    10    1
    12     8    10    2
