@<TRIPOS>MOLECULE
/home/cewinharhar/GITHUB/reincatalyze/data/processed/docking_pred/2023-May-02-0947_maxeplen10_maxtrainstep1000_seadep32_gamma099_lrac9e-4_lrcr1e-3/9282b18981f6708324b0af4486d36de930a99903_ligand_2.pdbqt
 12 12 0 0 0
SMALL
GASTEIGER

@<TRIPOS>ATOM
      1  C          8.2120   -6.0970   11.4320 C.3     1  UNL1        0.1270
      2  C          8.0490   -4.6270   11.3340 C.2     1  UNL1        0.3030
      3  O          7.6320   -4.0880   10.2790 O.2     1  UNL1       -0.2520
      4  O          8.3540   -3.8050   12.4070 O.3     1  UNL1       -0.4810
      5  H          7.8880   -3.9600   13.3050 H       1  UNL1        0.2960
      6  C          8.8980   -6.5780   10.1900 C.3     1  UNL1        0.0470
      7  C         10.1920   -7.2130   10.4330 C.2     1  UNL1       -0.0470
      8  C         10.3090   -8.5830   10.4620 C.2     1  UNL1        0.0040
      9  C         11.3000   -6.4230   10.6320 C.2     1  UNL1        0.0040
     10  C         11.5760   -9.1210   10.6980 C.2     1  UNL1        0.0000
     11  C         12.5520   -6.9560   10.8660 C.2     1  UNL1        0.0000
     12  C         12.6780   -8.3280   10.8970 C.2     1  UNL1        0.0000
@<TRIPOS>BOND
     1     6     7    1
     2     6     1    1
     3     3     2    2
     4     7     8    2
     5     7     9    1
     6     8    10    1
     7     9    11    2
     8    10    12    2
     9    11    12    1
    10     2     1    1
    11     2     4    1
    12     4     5    1
