@<TRIPOS>MOLECULE
/home/cewinharhar/GITHUB/reincatalyze/data/processed/docking_pred/2023-May-02-0947_maxeplen10_maxtrainstep1000_seadep32_gamma099_lrac9e-4_lrcr1e-3/9282b18981f6708324b0af4486d36de930a99903_ligand_2.pdbqt
 12 12 0 0 0
SMALL
GASTEIGER

@<TRIPOS>ATOM
      1  C         12.3890   -7.8450   10.3580 C.3     1  UNL1        0.1270
      2  C         13.6670   -7.7680    9.6110 C.2     1  UNL1        0.3030
      3  O         14.7700   -7.9310   10.1900 O.2     1  UNL1       -0.2520
      4  O         13.6800   -7.5120    8.2490 O.3     1  UNL1       -0.4810
      5  H         13.5900   -8.2920    7.5920 H       1  UNL1        0.2960
      6  C         12.1320   -6.5100   10.9890 C.3     1  UNL1        0.0470
      7  C         10.7160   -6.1580   11.0790 C.2     1  UNL1       -0.0470
      8  C          9.8020   -6.6890   10.1980 C.2     1  UNL1        0.0040
      9  C         10.3020   -5.2870   12.0600 C.2     1  UNL1        0.0040
     10  C          8.4660   -6.3090   10.3430 C.2     1  UNL1        0.0000
     11  C          8.9800   -4.9130   12.2020 C.2     1  UNL1        0.0000
     12  C          8.0590   -5.4390   11.3230 C.2     1  UNL1        0.0000
@<TRIPOS>BOND
     1     5     4    1
     2     4     2    1
     3     2     3    2
     4     2     1    1
     5     8    10    1
     6     8     7    2
     7    10    12    2
     8     1     6    1
     9     6     7    1
    10     7     9    1
    11    12    11    1
    12     9    11    2
