@<TRIPOS>MOLECULE
/home/cewinharhar/GITHUB/reincatalyze/data/processed/docking_pred/2023-May-02-0947_maxeplen10_maxtrainstep1000_seadep32_gamma099_lrac9e-4_lrcr1e-3/9282b18981f6708324b0af4486d36de930a99903_ligand_2.pdbqt
 12 12 0 0 0
SMALL
GASTEIGER

@<TRIPOS>ATOM
      1  C          7.9330   -6.4740   10.9300 C.3     1  UNL1        0.1270
      2  C          8.3020   -5.0430   11.0360 C.2     1  UNL1        0.3030
      3  O          9.2400   -4.6660   11.7820 O.2     1  UNL1       -0.2520
      4  O          7.6200   -4.0780   10.3130 O.3     1  UNL1       -0.4810
      5  H          7.7190   -4.0520    9.2950 H       1  UNL1        0.2960
      6  C          8.5240   -7.2010   12.1000 C.3     1  UNL1        0.0470
      7  C          9.3950   -8.3140   11.7280 C.2     1  UNL1       -0.0470
      8  C         10.3150   -8.1800   10.7150 C.2     1  UNL1        0.0040
      9  C          9.2880   -9.5060   12.4080 C.2     1  UNL1        0.0040
     10  C         11.1150   -9.2850   10.4150 C.2     1  UNL1        0.0000
     11  C         10.0790  -10.5970   12.1100 C.2     1  UNL1        0.0000
     12  C         11.0030  -10.4710   11.0950 C.2     1  UNL1        0.0000
@<TRIPOS>BOND
     1     5     4    1
     2     4     2    1
     3    10     8    1
     4    10    12    2
     5     8     7    2
     6     1     2    1
     7     1     6    1
     8     2     3    2
     9    12    11    1
    10     7     6    1
    11     7     9    1
    12    11     9    2
