@<TRIPOS>MOLECULE
/home/cewinharhar/GITHUB/reincatalyze/data/processed/docking_pred/2023-May-02-0947_maxeplen10_maxtrainstep1000_seadep32_gamma099_lrac9e-4_lrcr1e-3/9282b18981f6708324b0af4486d36de930a99903_ligand_2.pdbqt
 12 12 0 0 0
SMALL
GASTEIGER

@<TRIPOS>ATOM
      1  C          6.2810   -0.5520    2.7300 C.3     1  UNL1        0.1270
      2  C          7.0900   -1.4840    1.9100 C.2     1  UNL1        0.3030
      3  O          8.2550   -1.1860    1.5460 O.2     1  UNL1       -0.2520
      4  O          6.5820   -2.7130    1.5210 O.3     1  UNL1       -0.4810
      5  H          5.6120   -2.9480    1.7490 H       1  UNL1        0.2960
      6  C          5.1980    0.0170    1.8650 C.3     1  UNL1        0.0470
      7  C          5.5150    1.3270    1.3000 C.2     1  UNL1       -0.0470
      8  C          4.8570    1.7910    0.1850 C.2     1  UNL1        0.0040
      9  C          6.4830    2.1000    1.9000 C.2     1  UNL1        0.0040
     10  C          5.2110    3.0520   -0.3000 C.2     1  UNL1        0.0000
     11  C          6.8320    3.3470    1.4190 C.2     1  UNL1        0.0000
     12  C          6.1780    3.8180    0.3010 C.2     1  UNL1        0.0000
@<TRIPOS>BOND
     1    10     8    1
     2    10    12    2
     3     8     7    2
     4    12    11    1
     5     7     6    1
     6     7     9    1
     7    11     9    2
     8     4     5    1
     9     4     2    1
    10     3     2    2
    11     6     1    1
    12     2     1    1
