@<TRIPOS>MOLECULE
/home/cewinharhar/GITHUB/reincatalyze/data/processed/docking_pred/2023-May-02-0947_maxeplen10_maxtrainstep1000_seadep32_gamma099_lrac9e-4_lrcr1e-3/939bd1e5684a89eea32cbd4f4170b12915347732_ligand_2.pdbqt
 12 12 0 0 0
SMALL
GASTEIGER

@<TRIPOS>ATOM
      1  C          7.4090   -1.4290   -1.1210 C.3     1  UNL1        0.1270
      2  C          8.3030   -2.6070   -1.0200 C.2     1  UNL1        0.3030
      3  O          8.6540   -3.0630    0.0950 O.2     1  UNL1       -0.2520
      4  O          8.7770   -3.2380   -2.1590 O.3     1  UNL1       -0.4810
      5  H          8.6040   -2.8140   -3.0750 H       1  UNL1        0.2960
      6  C          7.2410   -0.8470    0.2490 C.3     1  UNL1        0.0470
      7  C          6.3580    0.3170    0.2970 C.2     1  UNL1       -0.0470
      8  C          5.7880    0.7200    1.4820 C.2     1  UNL1        0.0040
      9  C          6.1020    1.0130   -0.8620 C.2     1  UNL1        0.0040
     10  C          4.9560    1.8410    1.4530 C.2     1  UNL1        0.0000
     11  C          5.2790    2.1210   -0.8890 C.2     1  UNL1        0.0000
     12  C          4.7030    2.5310    0.2940 C.2     1  UNL1        0.0000
@<TRIPOS>BOND
     1     5     4    1
     2     4     2    1
     3     1     2    1
     4     1     6    1
     5     2     3    2
     6    11     9    1
     7    11    12    2
     8     9     7    2
     9     6     7    1
    10    12    10    1
    11     7     8    1
    12    10     8    2
