MODEL 1
REMARK VINA RESULT:      -7.4      0.000      0.000
REMARK SMILES O=C(O)CCc1ccccc1
REMARK SMILES IDX 4 1 2 2 1 3 3 4 5 6 6 7 7 8 11 9 8 10 10 11 9 12
REMARK H PARENT 3 5
REMARK Flexibility Score: inf
ROOT
ATOM      1  C   UNL     1       8.463  -0.671  -2.064  1.00  0.00     0.127 C 
ENDROOT
BRANCH   1   2
ATOM      2  C   UNL     1       8.480  -1.910  -2.876  1.00  0.00     0.303 C 
ATOM      3  O   UNL     1       9.550  -2.529  -3.097  1.00  0.00    -0.252 OA
BRANCH   2   4
ATOM      4  O   UNL     1       7.310  -2.422  -3.415  1.00  0.00    -0.481 OA
ATOM      5  H   UNL     1       6.648  -1.786  -3.869  1.00  0.00     0.296 HD
ENDBRANCH   2   4
ENDBRANCH   1   2
BRANCH   1   6
ATOM      6  C   UNL     1       7.070  -0.118  -2.078  1.00  0.00     0.047 C 
BRANCH   6   7
ATOM      7  C   UNL     1       6.489   0.062  -0.749  1.00  0.00    -0.047 A 
ATOM      8  C   UNL     1       5.841   1.229  -0.416  1.00  0.00     0.004 A 
ATOM      9  C   UNL     1       6.592  -0.955   0.172  1.00  0.00     0.004 A 
ATOM     10  C   UNL     1       5.309   1.331   0.871  1.00  0.00     0.000 A 
ATOM     11  C   UNL     1       6.065  -0.852   1.445  1.00  0.00     0.000 A 
ATOM     12  C   UNL     1       5.416   0.314   1.786  1.00  0.00     0.000 A 
ENDBRANCH   6   7
ENDBRANCH   1   6
TORSDOF 4
ENDMDL
MODEL 2
REMARK VINA RESULT:      -5.8      1.546      2.368
REMARK SMILES O=C(O)CCc1ccccc1
REMARK SMILES IDX 4 1 2 2 1 3 3 4 5 6 6 7 7 8 11 9 8 10 10 11 9 12
REMARK H PARENT 3 5
REMARK Flexibility Score: inf
ROOT
ATOM      1  C   UNL     1       7.409  -1.429  -1.121  1.00  0.00     0.127 C 
ENDROOT
BRANCH   1   2
ATOM      2  C   UNL     1       8.303  -2.607  -1.020  1.00  0.00     0.303 C 
ATOM      3  O   UNL     1       8.654  -3.063   0.095  1.00  0.00    -0.252 OA
BRANCH   2   4
ATOM      4  O   UNL     1       8.777  -3.238  -2.159  1.00  0.00    -0.481 OA
ATOM      5  H   UNL     1       8.604  -2.814  -3.075  1.00  0.00     0.296 HD
ENDBRANCH   2   4
ENDBRANCH   1   2
BRANCH   1   6
ATOM      6  C   UNL     1       7.241  -0.847   0.249  1.00  0.00     0.047 C 
BRANCH   6   7
ATOM      7  C   UNL     1       6.358   0.317   0.297  1.00  0.00    -0.047 A 
ATOM      8  C   UNL     1       5.788   0.720   1.482  1.00  0.00     0.004 A 
ATOM      9  C   UNL     1       6.102   1.013  -0.862  1.00  0.00     0.004 A 
ATOM     10  C   UNL     1       4.956   1.841   1.453  1.00  0.00     0.000 A 
ATOM     11  C   UNL     1       5.279   2.121  -0.889  1.00  0.00     0.000 A 
ATOM     12  C   UNL     1       4.703   2.531   0.294  1.00  0.00     0.000 A 
ENDBRANCH   6   7
ENDBRANCH   1   6
TORSDOF 4
ENDMDL
