@<TRIPOS>MOLECULE
/home/cewinharhar/GITHUB/reincatalyze/data/processed/docking_pred/2023-May-02-0947_maxeplen10_maxtrainstep1000_seadep32_gamma099_lrac9e-4_lrcr1e-3/93b19c8378935853b44d27bbf459025f9fc44a5e_ligand_2.pdbqt
 12 12 0 0 0
SMALL
GASTEIGER

@<TRIPOS>ATOM
      1  C          8.7140    0.6180   -1.7600 C.3     1  UNL1        0.1270
      2  C          9.8440   -0.1350   -1.1650 C.2     1  UNL1        0.3030
      3  O          9.7780   -1.3770   -0.9910 O.2     1  UNL1       -0.2520
      4  O         11.0070    0.5140   -0.7840 O.3     1  UNL1       -0.4810
      5  H         11.7270    0.7060   -1.4870 H       1  UNL1        0.2960
      6  C          7.4760   -0.2180   -1.6400 C.3     1  UNL1        0.0470
      7  C          6.6580    0.0970   -0.4700 C.2     1  UNL1       -0.0470
      8  C          5.9610    1.2810   -0.3970 C.2     1  UNL1        0.0040
      9  C          6.5880   -0.8080    0.5640 C.2     1  UNL1        0.0040
     10  C          5.1990    1.5140    0.7500 C.2     1  UNL1        0.0000
     11  C          5.8350   -0.5760    1.6970 C.2     1  UNL1        0.0000
     12  C          5.1340    0.6080    1.7780 C.2     1  UNL1        0.0000
@<TRIPOS>BOND
     1     1     6    1
     2     1     2    1
     3     6     7    1
     4     5     4    1
     5     2     3    2
     6     2     4    1
     7     7     8    2
     8     7     9    1
     9     8    10    1
    10     9    11    2
    11    10    12    2
    12    11    12    1
