MODEL 1
REMARK VINA RESULT:      -7.1      0.000      0.000
REMARK SMILES O=C(O)CCc1ccccc1
REMARK SMILES IDX 4 1 2 2 1 3 3 4 5 6 6 7 7 8 11 9 8 10 10 11 9 12
REMARK H PARENT 3 5
REMARK Flexibility Score: inf
ROOT
ATOM      1  C   UNL     1       8.466  -0.633  -2.126  1.00  0.00     0.127 C 
ENDROOT
BRANCH   1   2
ATOM      2  C   UNL     1       8.492  -1.905  -2.886  1.00  0.00     0.303 C 
ATOM      3  O   UNL     1       9.566  -2.529  -3.073  1.00  0.00    -0.252 OA
BRANCH   2   4
ATOM      4  O   UNL     1       7.329  -2.441  -3.414  1.00  0.00    -0.481 OA
ATOM      5  H   UNL     1       6.917  -2.019  -4.250  1.00  0.00     0.296 HD
ENDBRANCH   2   4
ENDBRANCH   1   2
BRANCH   1   6
ATOM      6  C   UNL     1       7.056  -0.124  -2.110  1.00  0.00     0.047 C 
BRANCH   6   7
ATOM      7  C   UNL     1       6.491   0.019  -0.769  1.00  0.00    -0.047 A 
ATOM      8  C   UNL     1       6.613  -0.992   0.157  1.00  0.00     0.004 A 
ATOM      9  C   UNL     1       5.835   1.181  -0.437  1.00  0.00     0.004 A 
ATOM     10  C   UNL     1       6.049  -0.786   1.418  1.00  0.00     0.000 A 
ATOM     11  C   UNL     1       5.278   1.383   0.810  1.00  0.00     0.000 A 
ATOM     12  C   UNL     1       5.394   0.375   1.743  1.00  0.00     0.000 A 
ENDBRANCH   6   7
ENDBRANCH   1   6
TORSDOF 4
ENDMDL
MODEL 2
REMARK VINA RESULT:      -6.6      1.356      2.208
REMARK SMILES O=C(O)CCc1ccccc1
REMARK SMILES IDX 4 1 2 2 1 3 3 4 5 6 6 7 7 8 11 9 8 10 10 11 9 12
REMARK H PARENT 3 5
REMARK Flexibility Score: inf
ROOT
ATOM      1  C   UNL     1       8.286  -0.574  -2.153  1.00  0.00     0.127 C 
ENDROOT
BRANCH   1   2
ATOM      2  C   UNL     1       8.309  -1.844  -2.917  1.00  0.00     0.303 C 
ATOM      3  O   UNL     1       7.246  -2.394  -3.296  1.00  0.00    -0.252 OA
BRANCH   2   4
ATOM      4  O   UNL     1       9.509  -2.460  -3.234  1.00  0.00    -0.481 OA
ATOM      5  H   UNL     1       9.620  -3.462  -3.055  1.00  0.00     0.296 HD
ENDBRANCH   2   4
ENDBRANCH   1   2
BRANCH   1   6
ATOM      6  C   UNL     1       6.979  -0.486  -1.426  1.00  0.00     0.047 C 
BRANCH   6   7
ATOM      7  C   UNL     1       6.793   0.762  -0.687  1.00  0.00    -0.047 A 
ATOM      8  C   UNL     1       5.556   1.358  -0.613  1.00  0.00     0.004 A 
ATOM      9  C   UNL     1       7.874   1.338  -0.060  1.00  0.00     0.004 A 
ATOM     10  C   UNL     1       5.451   2.548   0.111  1.00  0.00     0.000 A 
ATOM     11  C   UNL     1       7.769   2.514   0.655  1.00  0.00     0.000 A 
ATOM     12  C   UNL     1       6.533   3.118   0.734  1.00  0.00     0.000 A 
ENDBRANCH   6   7
ENDBRANCH   1   6
TORSDOF 4
ENDMDL
