@<TRIPOS>MOLECULE
/home/cewinharhar/GITHUB/reincatalyze/data/processed/docking_pred/2023-May-02-0947_maxeplen10_maxtrainstep1000_seadep32_gamma099_lrac9e-4_lrcr1e-3/93f5b296c54773c487a3666b5d29638d3a74aef5_ligand_2.pdbqt
 12 12 0 0 0
SMALL
GASTEIGER

@<TRIPOS>ATOM
      1  C          8.4660   -0.6330   -2.1260 C.3     1  UNL1        0.1270
      2  C          8.4920   -1.9050   -2.8860 C.2     1  UNL1        0.3030
      3  O          9.5660   -2.5290   -3.0730 O.2     1  UNL1       -0.2520
      4  O          7.3290   -2.4410   -3.4140 O.3     1  UNL1       -0.4810
      5  H          6.9170   -2.0190   -4.2500 H       1  UNL1        0.2960
      6  C          7.0560   -0.1240   -2.1100 C.3     1  UNL1        0.0470
      7  C          6.4910    0.0190   -0.7690 C.2     1  UNL1       -0.0470
      8  C          6.6130   -0.9920    0.1570 C.2     1  UNL1        0.0040
      9  C          5.8350    1.1810   -0.4370 C.2     1  UNL1        0.0040
     10  C          6.0490   -0.7860    1.4180 C.2     1  UNL1        0.0000
     11  C          5.2780    1.3830    0.8100 C.2     1  UNL1        0.0000
     12  C          5.3940    0.3750    1.7430 C.2     1  UNL1        0.0000
@<TRIPOS>BOND
     1     5     4    1
     2     4     2    1
     3     3     2    2
     4     2     1    1
     5     1     6    1
     6     6     7    1
     7     7     9    2
     8     7     8    1
     9     9    11    1
    10     8    10    2
    11    11    12    2
    12    10    12    1
