@<TRIPOS>MOLECULE
/home/cewinharhar/GITHUB/reincatalyze/data/processed/docking_pred/2023-May-02-0947_maxeplen10_maxtrainstep1000_seadep32_gamma099_lrac9e-4_lrcr1e-3/93f5b296c54773c487a3666b5d29638d3a74aef5_ligand_2.pdbqt
 12 12 0 0 0
SMALL
GASTEIGER

@<TRIPOS>ATOM
      1  C          8.2860   -0.5740   -2.1530 C.3     1  UNL1        0.1270
      2  C          8.3090   -1.8440   -2.9170 C.2     1  UNL1        0.3030
      3  O          7.2460   -2.3940   -3.2960 O.2     1  UNL1       -0.2520
      4  O          9.5090   -2.4600   -3.2340 O.3     1  UNL1       -0.4810
      5  H          9.6200   -3.4620   -3.0550 H       1  UNL1        0.2960
      6  C          6.9790   -0.4860   -1.4260 C.3     1  UNL1        0.0470
      7  C          6.7930    0.7620   -0.6870 C.2     1  UNL1       -0.0470
      8  C          5.5560    1.3580   -0.6130 C.2     1  UNL1        0.0040
      9  C          7.8740    1.3380   -0.0600 C.2     1  UNL1        0.0040
     10  C          5.4510    2.5480    0.1110 C.2     1  UNL1        0.0000
     11  C          7.7690    2.5140    0.6550 C.2     1  UNL1        0.0000
     12  C          6.5330    3.1180    0.7340 C.2     1  UNL1        0.0000
@<TRIPOS>BOND
     1     3     2    2
     2     4     5    1
     3     4     2    1
     4     2     1    1
     5     1     6    1
     6     6     7    1
     7     7     8    2
     8     7     9    1
     9     8    10    1
    10     9    11    2
    11    10    12    2
    12    11    12    1
