@<TRIPOS>MOLECULE
/home/cewinharhar/GITHUB/reincatalyze/data/processed/docking_pred/2023-May-02-0947_maxeplen10_maxtrainstep1000_seadep32_gamma099_lrac9e-4_lrcr1e-3/96aa1335557473cc7235c71144735280de1f686e_ligand_2.pdbqt
 12 12 0 0 0
SMALL
GASTEIGER

@<TRIPOS>ATOM
      1  C          8.5490   -0.6020   -2.2700 C.3     1  UNL1        0.1270
      2  C          8.5310   -1.9120   -2.9630 C.2     1  UNL1        0.3030
      3  O          9.5850   -2.5750   -3.1290 O.2     1  UNL1       -0.2520
      4  O          7.3470   -2.4420   -3.4490 O.3     1  UNL1       -0.4810
      5  H          7.3360   -3.4030   -3.8020 H       1  UNL1        0.2960
      6  C          7.1370   -0.1130   -2.1520 C.3     1  UNL1        0.0470
      7  C          6.7400    0.2330   -0.7880 C.2     1  UNL1       -0.0470
      8  C          5.7730    1.1840   -0.5570 C.2     1  UNL1        0.0040
      9  C          7.3450   -0.4060    0.2700 C.2     1  UNL1        0.0040
     10  C          5.4430    1.4630    0.7710 C.2     1  UNL1        0.0000
     11  C          7.0170   -0.1290    1.5820 C.2     1  UNL1        0.0000
     12  C          6.0500    0.8230    1.8220 C.2     1  UNL1        0.0000
@<TRIPOS>BOND
     1     5     4    1
     2     4     2    1
     3     3     2    2
     4     2     1    1
     5     1     6    1
     6     6     7    1
     7     7     8    2
     8     7     9    1
     9     8    10    1
    10     9    11    2
    11    10    12    2
    12    11    12    1
