MODEL 1
REMARK VINA RESULT:      -7.2      0.000      0.000
REMARK SMILES O=C(O)CCc1ccccc1
REMARK SMILES IDX 4 1 2 2 1 3 3 4 5 6 6 7 7 8 11 9 8 10 10 11 9 12
REMARK H PARENT 3 5
REMARK Flexibility Score: inf
ROOT
ATOM      1  C   UNL     1       8.549  -0.602  -2.270  1.00  0.00     0.127 C 
ENDROOT
BRANCH   1   2
ATOM      2  C   UNL     1       8.531  -1.912  -2.963  1.00  0.00     0.303 C 
ATOM      3  O   UNL     1       9.585  -2.575  -3.129  1.00  0.00    -0.252 OA
BRANCH   2   4
ATOM      4  O   UNL     1       7.347  -2.442  -3.449  1.00  0.00    -0.481 OA
ATOM      5  H   UNL     1       7.336  -3.403  -3.802  1.00  0.00     0.296 HD
ENDBRANCH   2   4
ENDBRANCH   1   2
BRANCH   1   6
ATOM      6  C   UNL     1       7.137  -0.113  -2.152  1.00  0.00     0.047 C 
BRANCH   6   7
ATOM      7  C   UNL     1       6.740   0.233  -0.788  1.00  0.00    -0.047 A 
ATOM      8  C   UNL     1       5.773   1.184  -0.557  1.00  0.00     0.004 A 
ATOM      9  C   UNL     1       7.345  -0.406   0.270  1.00  0.00     0.004 A 
ATOM     10  C   UNL     1       5.443   1.463   0.771  1.00  0.00     0.000 A 
ATOM     11  C   UNL     1       7.017  -0.129   1.582  1.00  0.00     0.000 A 
ATOM     12  C   UNL     1       6.050   0.823   1.822  1.00  0.00     0.000 A 
ENDBRANCH   6   7
ENDBRANCH   1   6
TORSDOF 4
ENDMDL
MODEL 2
REMARK VINA RESULT:      -6.9      3.322      5.103
REMARK SMILES O=C(O)CCc1ccccc1
REMARK SMILES IDX 4 1 2 2 1 3 3 4 5 6 6 7 7 8 11 9 8 10 10 11 9 12
REMARK H PARENT 3 5
REMARK Flexibility Score: inf
ROOT
ATOM      1  C   UNL     1       5.045   1.770   0.644  1.00  0.00     0.127 C 
ENDROOT
BRANCH   1   2
ATOM      2  C   UNL     1       4.601   1.111   1.895  1.00  0.00     0.303 C 
ATOM      3  O   UNL     1       3.482   1.367   2.404  1.00  0.00    -0.252 OA
BRANCH   2   4
ATOM      4  O   UNL     1       5.413   0.192   2.540  1.00  0.00    -0.481 OA
ATOM      5  H   UNL     1       5.258  -0.808   2.386  1.00  0.00     0.296 HD
ENDBRANCH   2   4
ENDBRANCH   1   2
BRANCH   1   6
ATOM      6  C   UNL     1       6.541   1.845   0.656  1.00  0.00     0.047 C 
BRANCH   6   7
ATOM      7  C   UNL     1       7.184   1.047  -0.387  1.00  0.00    -0.047 A 
ATOM      8  C   UNL     1       8.518   1.217  -0.680  1.00  0.00     0.004 A 
ATOM      9  C   UNL     1       6.440   0.118  -1.076  1.00  0.00     0.004 A 
ATOM     10  C   UNL     1       9.066   0.420  -1.688  1.00  0.00     0.000 A 
ATOM     11  C   UNL     1       6.984  -0.669  -2.072  1.00  0.00     0.000 A 
ATOM     12  C   UNL     1       8.319  -0.505  -2.372  1.00  0.00     0.000 A 
ENDBRANCH   6   7
ENDBRANCH   1   6
TORSDOF 4
ENDMDL
