@<TRIPOS>MOLECULE
/home/cewinharhar/GITHUB/reincatalyze/data/processed/docking_pred/2023-May-02-0947_maxeplen10_maxtrainstep1000_seadep32_gamma099_lrac9e-4_lrcr1e-3/97a603521aa4ec025b6db977763cb198737ffc85_ligand_2.pdbqt
 12 12 0 0 0
SMALL
GASTEIGER

@<TRIPOS>ATOM
      1  C          8.4750   -0.6590   -2.0840 C.3     1  UNL1        0.1270
      2  C          8.4850   -1.9050   -2.8860 C.2     1  UNL1        0.3030
      3  O          9.5520   -2.5320   -3.1020 O.2     1  UNL1       -0.2520
      4  O          7.3130   -2.4140   -3.4210 O.3     1  UNL1       -0.4810
      5  H          7.2230   -2.5030   -4.4370 H       1  UNL1        0.2960
      6  C          7.0840   -0.1030   -2.0960 C.3     1  UNL1        0.0470
      7  C          6.4990    0.0630   -0.7670 C.2     1  UNL1       -0.0470
      8  C          5.8470    1.2250   -0.4250 C.2     1  UNL1        0.0040
      9  C          6.6040   -0.9620    0.1450 C.2     1  UNL1        0.0040
     10  C          5.3120    1.3130    0.8620 C.2     1  UNL1        0.0000
     11  C          6.0740   -0.8730    1.4170 C.2     1  UNL1        0.0000
     12  C          5.4200    0.2880    1.7680 C.2     1  UNL1        0.0000
@<TRIPOS>BOND
     1     5     4    1
     2     4     2    1
     3     3     2    2
     4     2     1    1
     5     6     1    1
     6     6     7    1
     7     7     8    2
     8     7     9    1
     9     8    10    1
    10     9    11    2
    11    10    12    2
    12    11    12    1
