@<TRIPOS>MOLECULE
/home/cewinharhar/GITHUB/reincatalyze/data/processed/docking_pred/2023-May-02-0947_maxeplen10_maxtrainstep1000_seadep32_gamma099_lrac9e-4_lrcr1e-3/97a603521aa4ec025b6db977763cb198737ffc85_ligand_2.pdbqt
 12 12 0 0 0
SMALL
GASTEIGER

@<TRIPOS>ATOM
      1  C          8.3090   -0.5800   -2.1350 C.3     1  UNL1        0.1270
      2  C          8.3250   -1.8490   -2.9010 C.2     1  UNL1        0.3030
      3  O          7.2580   -2.3960   -3.2740 O.2     1  UNL1       -0.2520
      4  O          9.5210   -2.4670   -3.2260 O.3     1  UNL1       -0.4810
      5  H         10.3760   -1.9060   -3.2830 H       1  UNL1        0.2960
      6  C          6.9630   -0.4330   -1.4930 C.3     1  UNL1        0.0470
      7  C          6.8050    0.7960   -0.7180 C.2     1  UNL1       -0.0470
      8  C          7.8820    1.3720   -0.0850 C.2     1  UNL1        0.0040
      9  C          5.5610    1.3760   -0.6270 C.2     1  UNL1        0.0040
     10  C          7.6580    2.5460    0.6370 C.2     1  UNL1        0.0000
     11  C          5.3410    2.5370    0.0890 C.2     1  UNL1        0.0000
     12  C          6.4150    3.1200    0.7260 C.2     1  UNL1        0.0000
@<TRIPOS>BOND
     1     5     4    1
     2     3     2    2
     3     4     2    1
     4     2     1    1
     5     1     6    1
     6     6     7    1
     7     7     9    2
     8     7     8    1
     9     9    11    1
    10     8    10    2
    11    11    12    2
    12    10    12    1
