MODEL 1
REMARK VINA RESULT:      -7.1      0.000      0.000
REMARK SMILES O=C(O)CCc1ccccc1
REMARK SMILES IDX 4 1 2 2 1 3 3 4 5 6 6 7 7 8 11 9 8 10 10 11 9 12
REMARK H PARENT 3 5
REMARK Flexibility Score: inf
ROOT
ATOM      1  C   UNL     1       8.475  -0.659  -2.084  1.00  0.00     0.127 C 
ENDROOT
BRANCH   1   2
ATOM      2  C   UNL     1       8.485  -1.905  -2.886  1.00  0.00     0.303 C 
ATOM      3  O   UNL     1       9.552  -2.532  -3.102  1.00  0.00    -0.252 OA
BRANCH   2   4
ATOM      4  O   UNL     1       7.313  -2.414  -3.421  1.00  0.00    -0.481 OA
ATOM      5  H   UNL     1       7.223  -2.503  -4.437  1.00  0.00     0.296 HD
ENDBRANCH   2   4
ENDBRANCH   1   2
BRANCH   1   6
ATOM      6  C   UNL     1       7.084  -0.103  -2.096  1.00  0.00     0.047 C 
BRANCH   6   7
ATOM      7  C   UNL     1       6.499   0.063  -0.767  1.00  0.00    -0.047 A 
ATOM      8  C   UNL     1       5.847   1.225  -0.425  1.00  0.00     0.004 A 
ATOM      9  C   UNL     1       6.604  -0.962   0.145  1.00  0.00     0.004 A 
ATOM     10  C   UNL     1       5.312   1.313   0.862  1.00  0.00     0.000 A 
ATOM     11  C   UNL     1       6.074  -0.873   1.417  1.00  0.00     0.000 A 
ATOM     12  C   UNL     1       5.420   0.288   1.768  1.00  0.00     0.000 A 
ENDBRANCH   6   7
ENDBRANCH   1   6
TORSDOF 4
ENDMDL
MODEL 2
REMARK VINA RESULT:      -6.6      1.394      2.214
REMARK SMILES O=C(O)CCc1ccccc1
REMARK SMILES IDX 4 1 2 2 1 3 3 4 5 6 6 7 7 8 11 9 8 10 10 11 9 12
REMARK H PARENT 3 5
REMARK Flexibility Score: inf
ROOT
ATOM      1  C   UNL     1       8.309  -0.580  -2.135  1.00  0.00     0.127 C 
ENDROOT
BRANCH   1   2
ATOM      2  C   UNL     1       8.325  -1.849  -2.901  1.00  0.00     0.303 C 
ATOM      3  O   UNL     1       7.258  -2.396  -3.274  1.00  0.00    -0.252 OA
BRANCH   2   4
ATOM      4  O   UNL     1       9.521  -2.467  -3.226  1.00  0.00    -0.481 OA
ATOM      5  H   UNL     1      10.376  -1.906  -3.283  1.00  0.00     0.296 HD
ENDBRANCH   2   4
ENDBRANCH   1   2
BRANCH   1   6
ATOM      6  C   UNL     1       6.963  -0.433  -1.493  1.00  0.00     0.047 C 
BRANCH   6   7
ATOM      7  C   UNL     1       6.805   0.796  -0.718  1.00  0.00    -0.047 A 
ATOM      8  C   UNL     1       7.882   1.372  -0.085  1.00  0.00     0.004 A 
ATOM      9  C   UNL     1       5.561   1.376  -0.627  1.00  0.00     0.004 A 
ATOM     10  C   UNL     1       7.658   2.546   0.637  1.00  0.00     0.000 A 
ATOM     11  C   UNL     1       5.341   2.537   0.089  1.00  0.00     0.000 A 
ATOM     12  C   UNL     1       6.415   3.120   0.726  1.00  0.00     0.000 A 
ENDBRANCH   6   7
ENDBRANCH   1   6
TORSDOF 4
ENDMDL
