@<TRIPOS>MOLECULE
/home/cewinharhar/GITHUB/reincatalyze/data/processed/docking_pred/2023-May-02-0947_maxeplen10_maxtrainstep1000_seadep32_gamma099_lrac9e-4_lrcr1e-3/97b80f67ae9ab19215981068b7c743dd8d1e9d0d_ligand_2.pdbqt
 12 12 0 0 0
SMALL
GASTEIGER

@<TRIPOS>ATOM
      1  C          8.4020   -0.6520   -2.0810 C.3     1  UNL1        0.1270
      2  C          8.3720   -1.9010   -2.8780 C.2     1  UNL1        0.3030
      3  O          7.2860   -2.4100   -3.2500 O.2     1  UNL1       -0.2520
      4  O          9.5470   -2.5440   -3.2360 O.3     1  UNL1       -0.4810
      5  H          9.7160   -3.4980   -2.9060 H       1  UNL1        0.2960
      6  C          7.0240   -0.0660   -2.0730 C.3     1  UNL1        0.0470
      7  C          6.4560    0.1020   -0.7360 C.2     1  UNL1       -0.0470
      8  C          5.8020    1.2610   -0.3900 C.2     1  UNL1        0.0040
      9  C          6.5810   -0.9180    0.1780 C.2     1  UNL1        0.0040
     10  C          5.2840    1.3520    0.9040 C.2     1  UNL1        0.0000
     11  C          6.0690   -0.8270    1.4570 C.2     1  UNL1        0.0000
     12  C          5.4120    0.3320    1.8120 C.2     1  UNL1        0.0000
@<TRIPOS>BOND
     1     3     2    2
     2     4     5    1
     3     4     2    1
     4     2     1    1
     5     1     6    1
     6     6     7    1
     7     7     8    2
     8     7     9    1
     9     8    10    1
    10     9    11    2
    11    10    12    2
    12    11    12    1
