@<TRIPOS>MOLECULE
/home/cewinharhar/GITHUB/reincatalyze/data/processed/docking_pred/2023-May-02-0947_maxeplen10_maxtrainstep1000_seadep32_gamma099_lrac9e-4_lrcr1e-3/98ce2146f260201d1ebb2f82702d5d512d51d1e1_ligand_2.pdbqt
 12 12 0 0 0
SMALL
GASTEIGER

@<TRIPOS>ATOM
      1  C          8.4350   -0.6360   -2.1470 C.3     1  UNL1        0.1270
      2  C          8.4750   -1.9080   -2.9080 C.2     1  UNL1        0.3030
      3  O          9.5530   -2.5270   -3.0850 O.2     1  UNL1       -0.2520
      4  O          7.3190   -2.4500   -3.4460 O.3     1  UNL1       -0.4810
      5  H          6.6700   -2.9530   -2.8350 H       1  UNL1        0.2960
      6  C          7.0200   -0.1430   -2.1290 C.3     1  UNL1        0.0470
      7  C          6.4780    0.0570   -0.7870 C.2     1  UNL1       -0.0470
      8  C          5.8410    1.2300   -0.4530 C.2     1  UNL1        0.0040
      9  C          6.6080   -0.9450    0.1460 C.2     1  UNL1        0.0040
     10  C          5.3460    1.3520    0.8470 C.2     1  UNL1        0.0000
     11  C          6.1180   -0.8230    1.4320 C.2     1  UNL1        0.0000
     12  C          5.4800    0.3490    1.7740 C.2     1  UNL1        0.0000
@<TRIPOS>BOND
     1     4     2    1
     2     4     5    1
     3     3     2    2
     4     2     1    1
     5     1     6    1
     6     6     7    1
     7     7     8    2
     8     7     9    1
     9     8    10    1
    10     9    11    2
    11    10    12    2
    12    11    12    1
