MODEL 1
REMARK VINA RESULT:      -7.3      0.000      0.000
REMARK SMILES O=C(O)CCc1ccccc1
REMARK SMILES IDX 4 1 2 2 1 3 3 4 5 6 6 7 7 8 11 9 8 10 10 11 9 12
REMARK H PARENT 3 5
REMARK Flexibility Score: inf
ROOT
ATOM      1  C   UNL     1       8.435  -0.636  -2.147  1.00  0.00     0.127 C 
ENDROOT
BRANCH   1   2
ATOM      2  C   UNL     1       8.475  -1.908  -2.908  1.00  0.00     0.303 C 
ATOM      3  O   UNL     1       9.553  -2.527  -3.085  1.00  0.00    -0.252 OA
BRANCH   2   4
ATOM      4  O   UNL     1       7.319  -2.450  -3.446  1.00  0.00    -0.481 OA
ATOM      5  H   UNL     1       6.670  -2.953  -2.835  1.00  0.00     0.296 HD
ENDBRANCH   2   4
ENDBRANCH   1   2
BRANCH   1   6
ATOM      6  C   UNL     1       7.020  -0.143  -2.129  1.00  0.00     0.047 C 
BRANCH   6   7
ATOM      7  C   UNL     1       6.478   0.057  -0.787  1.00  0.00    -0.047 A 
ATOM      8  C   UNL     1       5.841   1.230  -0.453  1.00  0.00     0.004 A 
ATOM      9  C   UNL     1       6.608  -0.945   0.146  1.00  0.00     0.004 A 
ATOM     10  C   UNL     1       5.346   1.352   0.847  1.00  0.00     0.000 A 
ATOM     11  C   UNL     1       6.118  -0.823   1.432  1.00  0.00     0.000 A 
ATOM     12  C   UNL     1       5.480   0.349   1.774  1.00  0.00     0.000 A 
ENDBRANCH   6   7
ENDBRANCH   1   6
TORSDOF 4
ENDMDL
