@<TRIPOS>MOLECULE
/home/cewinharhar/GITHUB/reincatalyze/data/processed/docking_pred/2023-May-02-0947_maxeplen10_maxtrainstep1000_seadep32_gamma099_lrac9e-4_lrcr1e-3/9a7d3f5f853688f06c0e35b58fb12e655ab1ce10_ligand_2.pdbqt
 12 12 0 0 0
SMALL
GASTEIGER

@<TRIPOS>ATOM
      1  C          6.3360   -0.5300    2.7340 C.3     1  UNL1        0.1270
      2  C          7.1030   -1.4880    1.9030 C.2     1  UNL1        0.3030
      3  O          8.2700   -1.2270    1.5200 O.2     1  UNL1       -0.2520
      4  O          6.5520   -2.7010    1.5260 O.3     1  UNL1       -0.4810
      5  H          7.0810   -3.5630    1.6840 H       1  UNL1        0.2960
      6  C          5.2270    0.0340    1.8990 C.3     1  UNL1        0.0470
      7  C          5.5320    1.3340    1.3040 C.2     1  UNL1       -0.0470
      8  C          4.8880    1.7550    0.1640 C.2     1  UNL1        0.0040
      9  C          6.4740    2.1400    1.9010 C.2     1  UNL1        0.0040
     10  C          5.2290    3.0090   -0.3470 C.2     1  UNL1        0.0000
     11  C          6.8100    3.3800    1.3940 C.2     1  UNL1        0.0000
     12  C          6.1700    3.8090    0.2510 C.2     1  UNL1        0.0000
@<TRIPOS>BOND
     1    10     8    1
     2    10    12    2
     3     8     7    2
     4    12    11    1
     5     7     6    1
     6     7     9    1
     7    11     9    2
     8     3     2    2
     9     4     5    1
    10     4     2    1
    11     6     1    1
    12     2     1    1
