@<TRIPOS>MOLECULE
/home/cewinharhar/GITHUB/reincatalyze/data/processed/docking_pred/2023-May-02-0947_maxeplen10_maxtrainstep1000_seadep32_gamma099_lrac9e-4_lrcr1e-3/9a7d3f5f853688f06c0e35b58fb12e655ab1ce10_ligand_2.pdbqt
 12 12 0 0 0
SMALL
GASTEIGER

@<TRIPOS>ATOM
      1  C          8.1810   -6.1350   11.4440 C.3     1  UNL1        0.1270
      2  C          8.2680   -4.6630   11.5930 C.2     1  UNL1        0.3030
      3  O          7.4960   -3.8990   10.9630 O.2     1  UNL1       -0.2520
      4  O          9.2060   -4.0890   12.4350 O.3     1  UNL1       -0.4810
      5  H          9.6320   -3.1950   12.1750 H       1  UNL1        0.2960
      6  C          8.8970   -6.5240   10.1870 C.3     1  UNL1        0.0470
      7  C         10.1680   -7.2100   10.4140 C.2     1  UNL1       -0.0470
      8  C         10.2230   -8.5830   10.4860 C.2     1  UNL1        0.0040
      9  C         11.3170   -6.4670   10.5540 C.2     1  UNL1        0.0040
     10  C         11.4700   -9.1710   10.7040 C.2     1  UNL1        0.0000
     11  C         12.5490   -7.0500   10.7700 C.2     1  UNL1        0.0000
     12  C         12.6130   -8.4250   10.8440 C.2     1  UNL1        0.0000
@<TRIPOS>BOND
     1     6     7    1
     2     6     1    1
     3     7     8    2
     4     7     9    1
     5     8    10    1
     6     9    11    2
     7    10    12    2
     8    11    12    1
     9     3     2    2
    10     1     2    1
    11     2     4    1
    12     5     4    1
