@<TRIPOS>MOLECULE
/home/cewinharhar/GITHUB/reincatalyze/data/processed/docking_pred/2023-May-02-0947_maxeplen10_maxtrainstep1000_seadep32_gamma099_lrac9e-4_lrcr1e-3/9a7d3f5f853688f06c0e35b58fb12e655ab1ce10_ligand_2.pdbqt
 12 12 0 0 0
SMALL
GASTEIGER

@<TRIPOS>ATOM
      1  C          7.9980   -6.4290   10.7740 C.3     1  UNL1        0.1270
      2  C          8.2880   -4.9870   10.9600 C.2     1  UNL1        0.3030
      3  O          9.1440   -4.5970   11.7920 O.2     1  UNL1       -0.2520
      4  O          7.6200   -4.0270   10.2160 O.3     1  UNL1       -0.4810
      5  H          6.5980   -4.0470   10.1760 H       1  UNL1        0.2960
      6  C          8.4590   -7.1620   11.9960 C.3     1  UNL1        0.0470
      7  C          9.3290   -8.3020   11.7120 C.2     1  UNL1       -0.0470
      8  C          9.2360   -9.4600   12.4490 C.2     1  UNL1        0.0040
      9  C         10.2480   -8.2080   10.6920 C.2     1  UNL1        0.0040
     10  C         10.0980  -10.5090   12.1210 C.2     1  UNL1        0.0000
     11  C         11.1000   -9.2450   10.3700 C.2     1  UNL1        0.0000
     12  C         11.0130  -10.4080   11.1040 C.2     1  UNL1        0.0000
@<TRIPOS>BOND
     1     5     4    1
     2     4     2    1
     3    11     9    1
     4    11    12    2
     5     9     7    2
     6     1     2    1
     7     1     6    1
     8     2     3    2
     9    12    10    1
    10     7     6    1
    11     7     8    1
    12    10     8    2
