MODEL 1
REMARK VINA RESULT:      -5.5      0.000      0.000
REMARK SMILES O=C(O)CCc1ccccc1
REMARK SMILES IDX 4 1 2 2 1 3 3 4 5 6 6 7 7 8 11 9 8 10 10 11 9 12
REMARK H PARENT 3 5
REMARK Flexibility Score: inf
ROOT
ATOM      1  C   UNL     1       6.336  -0.530   2.734  1.00  0.00     0.127 C 
ENDROOT
BRANCH   1   2
ATOM      2  C   UNL     1       7.103  -1.488   1.903  1.00  0.00     0.303 C 
ATOM      3  O   UNL     1       8.270  -1.227   1.520  1.00  0.00    -0.252 OA
BRANCH   2   4
ATOM      4  O   UNL     1       6.552  -2.701   1.526  1.00  0.00    -0.481 OA
ATOM      5  H   UNL     1       7.081  -3.563   1.684  1.00  0.00     0.296 HD
ENDBRANCH   2   4
ENDBRANCH   1   2
BRANCH   1   6
ATOM      6  C   UNL     1       5.227   0.034   1.899  1.00  0.00     0.047 C 
BRANCH   6   7
ATOM      7  C   UNL     1       5.532   1.334   1.304  1.00  0.00    -0.047 A 
ATOM      8  C   UNL     1       4.888   1.755   0.164  1.00  0.00     0.004 A 
ATOM      9  C   UNL     1       6.474   2.140   1.901  1.00  0.00     0.004 A 
ATOM     10  C   UNL     1       5.229   3.009  -0.347  1.00  0.00     0.000 A 
ATOM     11  C   UNL     1       6.810   3.380   1.394  1.00  0.00     0.000 A 
ATOM     12  C   UNL     1       6.170   3.809   0.251  1.00  0.00     0.000 A 
ENDBRANCH   6   7
ENDBRANCH   1   6
TORSDOF 4
ENDMDL
MODEL 2
REMARK VINA RESULT:      -3.7     11.690     14.243
REMARK SMILES O=C(O)CCc1ccccc1
REMARK SMILES IDX 4 1 2 2 1 3 3 4 5 6 6 7 7 8 11 9 8 10 10 11 9 12
REMARK H PARENT 3 5
REMARK Flexibility Score: inf
ROOT
ATOM      1  C   UNL     1       7.998  -6.429  10.774  1.00  0.00     0.127 C 
ENDROOT
BRANCH   1   2
ATOM      2  C   UNL     1       8.288  -4.987  10.960  1.00  0.00     0.303 C 
ATOM      3  O   UNL     1       9.144  -4.597  11.792  1.00  0.00    -0.252 OA
BRANCH   2   4
ATOM      4  O   UNL     1       7.620  -4.027  10.216  1.00  0.00    -0.481 OA
ATOM      5  H   UNL     1       6.598  -4.047  10.176  1.00  0.00     0.296 HD
ENDBRANCH   2   4
ENDBRANCH   1   2
BRANCH   1   6
ATOM      6  C   UNL     1       8.459  -7.162  11.996  1.00  0.00     0.047 C 
BRANCH   6   7
ATOM      7  C   UNL     1       9.329  -8.302  11.712  1.00  0.00    -0.047 A 
ATOM      8  C   UNL     1       9.236  -9.460  12.449  1.00  0.00     0.004 A 
ATOM      9  C   UNL     1      10.248  -8.208  10.692  1.00  0.00     0.004 A 
ATOM     10  C   UNL     1      10.098 -10.509  12.121  1.00  0.00     0.000 A 
ATOM     11  C   UNL     1      11.100  -9.245  10.370  1.00  0.00     0.000 A 
ATOM     12  C   UNL     1      11.013 -10.408  11.104  1.00  0.00     0.000 A 
ENDBRANCH   6   7
ENDBRANCH   1   6
TORSDOF 4
ENDMDL
MODEL 3
REMARK VINA RESULT:      -3.7     11.951     13.485
REMARK SMILES O=C(O)CCc1ccccc1
REMARK SMILES IDX 4 1 2 2 1 3 3 4 5 6 6 7 7 8 11 9 8 10 10 11 9 12
REMARK H PARENT 3 5
REMARK Flexibility Score: inf
ROOT
ATOM      1  C   UNL     1       8.181  -6.135  11.444  1.00  0.00     0.127 C 
ENDROOT
BRANCH   1   2
ATOM      2  C   UNL     1       8.268  -4.663  11.593  1.00  0.00     0.303 C 
ATOM      3  O   UNL     1       7.496  -3.899  10.963  1.00  0.00    -0.252 OA
BRANCH   2   4
ATOM      4  O   UNL     1       9.206  -4.089  12.435  1.00  0.00    -0.481 OA
ATOM      5  H   UNL     1       9.632  -3.195  12.175  1.00  0.00     0.296 HD
ENDBRANCH   2   4
ENDBRANCH   1   2
BRANCH   1   6
ATOM      6  C   UNL     1       8.897  -6.524  10.187  1.00  0.00     0.047 C 
BRANCH   6   7
ATOM      7  C   UNL     1      10.168  -7.210  10.414  1.00  0.00    -0.047 A 
ATOM      8  C   UNL     1      10.223  -8.583  10.486  1.00  0.00     0.004 A 
ATOM      9  C   UNL     1      11.317  -6.467  10.554  1.00  0.00     0.004 A 
ATOM     10  C   UNL     1      11.470  -9.171  10.704  1.00  0.00     0.000 A 
ATOM     11  C   UNL     1      12.549  -7.050  10.770  1.00  0.00     0.000 A 
ATOM     12  C   UNL     1      12.613  -8.425  10.844  1.00  0.00     0.000 A 
ENDBRANCH   6   7
ENDBRANCH   1   6
TORSDOF 4
ENDMDL
