@<TRIPOS>MOLECULE
/home/cewinharhar/GITHUB/reincatalyze/data/processed/docking_pred/2023-May-02-0947_maxeplen10_maxtrainstep1000_seadep32_gamma099_lrac9e-4_lrcr1e-3/9cf679a9c5542d052f5b9fd38195e755841f8057_ligand_2.pdbqt
 12 12 0 0 0
SMALL
GASTEIGER

@<TRIPOS>ATOM
      1  C          8.3400   -0.5440   -2.2710 C.3     1  UNL1        0.1270
      2  C          8.4230   -1.8620   -2.9420 C.2     1  UNL1        0.3030
      3  O          9.5210   -2.4540   -3.0810 O.2     1  UNL1       -0.2520
      4  O          7.2850   -2.4790   -3.4370 O.3     1  UNL1       -0.4810
      5  H          6.7250   -3.0690   -2.8160 H       1  UNL1        0.2960
      6  C          7.0040   -0.4380   -1.6020 C.3     1  UNL1        0.0470
      7  C          6.8380    0.7660   -0.7900 C.2     1  UNL1       -0.0470
      8  C          7.9160    1.3430   -0.1600 C.2     1  UNL1        0.0040
      9  C          5.5860    1.3230   -0.6630 C.2     1  UNL1        0.0040
     10  C          7.6840    2.4930    0.5980 C.2     1  UNL1        0.0000
     11  C          5.3590    2.4590    0.0880 C.2     1  UNL1        0.0000
     12  C          6.4330    3.0430    0.7230 C.2     1  UNL1        0.0000
@<TRIPOS>BOND
     1     4     2    1
     2     4     5    1
     3     3     2    2
     4     2     1    1
     5     1     6    1
     6     6     7    1
     7     7     9    2
     8     7     8    1
     9     9    11    1
    10     8    10    2
    11    11    12    2
    12    10    12    1
