MODEL 1
REMARK VINA RESULT:      -7.0      0.000      0.000
REMARK SMILES O=C(O)CCc1ccccc1
REMARK SMILES IDX 4 1 2 2 1 3 3 4 5 6 6 7 7 8 11 9 8 10 10 11 9 12
REMARK H PARENT 3 5
REMARK Flexibility Score: inf
ROOT
ATOM      1  C   UNL     1       8.406  -0.677  -2.052  1.00  0.00     0.127 C 
ENDROOT
BRANCH   1   2
ATOM      2  C   UNL     1       8.373  -1.914  -2.868  1.00  0.00     0.303 C 
ATOM      3  O   UNL     1       7.286  -2.410  -3.255  1.00  0.00    -0.252 OA
BRANCH   2   4
ATOM      4  O   UNL     1       9.546  -2.559  -3.227  1.00  0.00    -0.481 OA
ATOM      5  H   UNL     1       9.703  -3.521  -2.917  1.00  0.00     0.296 HD
ENDBRANCH   2   4
ENDBRANCH   1   2
BRANCH   1   6
ATOM      6  C   UNL     1       7.035  -0.073  -2.058  1.00  0.00     0.047 C 
BRANCH   6   7
ATOM      7  C   UNL     1       6.454   0.097  -0.727  1.00  0.00    -0.047 A 
ATOM      8  C   UNL     1       5.795   1.256  -0.390  1.00  0.00     0.004 A 
ATOM      9  C   UNL     1       6.572  -0.920   0.192  1.00  0.00     0.004 A 
ATOM     10  C   UNL     1       5.264   1.349   0.898  1.00  0.00     0.000 A 
ATOM     11  C   UNL     1       6.047  -0.827   1.465  1.00  0.00     0.000 A 
ATOM     12  C   UNL     1       5.386   0.332   1.811  1.00  0.00     0.000 A 
ENDBRANCH   6   7
ENDBRANCH   1   6
TORSDOF 4
ENDMDL
MODEL 2
REMARK VINA RESULT:      -6.8      1.419      2.186
REMARK SMILES O=C(O)CCc1ccccc1
REMARK SMILES IDX 4 1 2 2 1 3 3 4 5 6 6 7 7 8 11 9 8 10 10 11 9 12
REMARK H PARENT 3 5
REMARK Flexibility Score: inf
ROOT
ATOM      1  C   UNL     1       8.340  -0.544  -2.271  1.00  0.00     0.127 C 
ENDROOT
BRANCH   1   2
ATOM      2  C   UNL     1       8.423  -1.862  -2.942  1.00  0.00     0.303 C 
ATOM      3  O   UNL     1       9.521  -2.454  -3.081  1.00  0.00    -0.252 OA
BRANCH   2   4
ATOM      4  O   UNL     1       7.285  -2.479  -3.437  1.00  0.00    -0.481 OA
ATOM      5  H   UNL     1       6.725  -3.069  -2.816  1.00  0.00     0.296 HD
ENDBRANCH   2   4
ENDBRANCH   1   2
BRANCH   1   6
ATOM      6  C   UNL     1       7.004  -0.438  -1.602  1.00  0.00     0.047 C 
BRANCH   6   7
ATOM      7  C   UNL     1       6.838   0.766  -0.790  1.00  0.00    -0.047 A 
ATOM      8  C   UNL     1       7.916   1.343  -0.160  1.00  0.00     0.004 A 
ATOM      9  C   UNL     1       5.586   1.323  -0.663  1.00  0.00     0.004 A 
ATOM     10  C   UNL     1       7.684   2.493   0.598  1.00  0.00     0.000 A 
ATOM     11  C   UNL     1       5.359   2.459   0.088  1.00  0.00     0.000 A 
ATOM     12  C   UNL     1       6.433   3.043   0.723  1.00  0.00     0.000 A 
ENDBRANCH   6   7
ENDBRANCH   1   6
TORSDOF 4
ENDMDL
