@<TRIPOS>MOLECULE
/home/cewinharhar/GITHUB/reincatalyze/data/processed/docking_pred/2023-May-02-0947_maxeplen10_maxtrainstep1000_seadep32_gamma099_lrac9e-4_lrcr1e-3/9cf679a9c5542d052f5b9fd38195e755841f8057_ligand_2.pdbqt
 12 12 0 0 0
SMALL
GASTEIGER

@<TRIPOS>ATOM
      1  C          8.4060   -0.6770   -2.0520 C.3     1  UNL1        0.1270
      2  C          8.3730   -1.9140   -2.8680 C.2     1  UNL1        0.3030
      3  O          7.2860   -2.4100   -3.2550 O.2     1  UNL1       -0.2520
      4  O          9.5460   -2.5590   -3.2270 O.3     1  UNL1       -0.4810
      5  H          9.7030   -3.5210   -2.9170 H       1  UNL1        0.2960
      6  C          7.0350   -0.0730   -2.0580 C.3     1  UNL1        0.0470
      7  C          6.4540    0.0970   -0.7270 C.2     1  UNL1       -0.0470
      8  C          5.7950    1.2560   -0.3900 C.2     1  UNL1        0.0040
      9  C          6.5720   -0.9200    0.1920 C.2     1  UNL1        0.0040
     10  C          5.2640    1.3490    0.8980 C.2     1  UNL1        0.0000
     11  C          6.0470   -0.8270    1.4650 C.2     1  UNL1        0.0000
     12  C          5.3860    0.3320    1.8110 C.2     1  UNL1        0.0000
@<TRIPOS>BOND
     1     3     2    2
     2     4     5    1
     3     4     2    1
     4     2     1    1
     5     6     1    1
     6     6     7    1
     7     7     8    2
     8     7     9    1
     9     8    10    1
    10     9    11    2
    11    10    12    2
    12    11    12    1
