@<TRIPOS>MOLECULE
/home/cewinharhar/GITHUB/reincatalyze/data/processed/docking_pred/2023-May-02-0947_maxeplen10_maxtrainstep1000_seadep32_gamma099_lrac9e-4_lrcr1e-3/9fad910e57fbde25b93c61ef9d3287f531a6e420_ligand_2.pdbqt
 12 12 0 0 0
SMALL
GASTEIGER

@<TRIPOS>ATOM
      1  C          7.2460   -1.2410   -2.1770 C.3     1  UNL1        0.1270
      2  C          8.6830   -1.2930   -2.5340 C.2     1  UNL1        0.3030
      3  O          9.4900   -0.4260   -2.1170 O.2     1  UNL1       -0.2520
      4  O          9.1780   -2.3050   -3.3410 O.3     1  UNL1       -0.4810
      5  H          9.3490   -3.2300   -2.9370 H       1  UNL1        0.2960
      6  C          7.1290   -1.3080   -0.6850 C.3     1  UNL1        0.0470
      7  C          6.3760   -0.2010   -0.0970 C.2     1  UNL1       -0.0470
      8  C          5.9490   -0.2560    1.2090 C.2     1  UNL1        0.0040
      9  C          6.0990    0.9060   -0.8670 C.2     1  UNL1        0.0040
     10  C          5.2360    0.8390    1.7040 C.2     1  UNL1        0.0000
     11  C          5.3950    1.9870   -0.3760 C.2     1  UNL1        0.0000
     12  C          4.9620    1.9390    0.9320 C.2     1  UNL1        0.0000
@<TRIPOS>BOND
     1     4     5    1
     2     4     2    1
     3     2     1    1
     4     2     3    2
     5     1     6    1
     6     9    11    1
     7     9     7    2
     8     6     7    1
     9    11    12    2
    10     7     8    1
    11    12    10    1
    12     8    10    2
