MODEL 1
REMARK VINA RESULT:      -7.3      0.000      0.000
REMARK SMILES O=C(O)CCc1ccccc1
REMARK SMILES IDX 4 1 2 2 1 3 3 4 5 6 6 7 7 8 11 9 8 10 10 11 9 12
REMARK H PARENT 3 5
REMARK Flexibility Score: inf
ROOT
ATOM      1  C   UNL     1       8.405  -0.662  -2.070  1.00  0.00     0.127 C 
ENDROOT
BRANCH   1   2
ATOM      2  C   UNL     1       8.375  -1.904  -2.877  1.00  0.00     0.303 C 
ATOM      3  O   UNL     1       7.289  -2.414  -3.247  1.00  0.00    -0.252 OA
BRANCH   2   4
ATOM      4  O   UNL     1       9.550  -2.539  -3.246  1.00  0.00    -0.481 OA
ATOM      5  H   UNL     1       9.725  -3.496  -2.925  1.00  0.00     0.296 HD
ENDBRANCH   2   4
ENDBRANCH   1   2
BRANCH   1   6
ATOM      6  C   UNL     1       7.029  -0.068  -2.069  1.00  0.00     0.047 C 
BRANCH   6   7
ATOM      7  C   UNL     1       6.456   0.100  -0.735  1.00  0.00    -0.047 A 
ATOM      8  C   UNL     1       5.802   1.261  -0.391  1.00  0.00     0.004 A 
ATOM      9  C   UNL     1       6.574  -0.920   0.181  1.00  0.00     0.004 A 
ATOM     10  C   UNL     1       5.279   1.353   0.900  1.00  0.00     0.000 A 
ATOM     11  C   UNL     1       6.056  -0.828   1.457  1.00  0.00     0.000 A 
ATOM     12  C   UNL     1       5.400   0.332   1.809  1.00  0.00     0.000 A 
ENDBRANCH   6   7
ENDBRANCH   1   6
TORSDOF 4
ENDMDL
MODEL 2
REMARK VINA RESULT:      -7.0      1.042      1.959
REMARK SMILES O=C(O)CCc1ccccc1
REMARK SMILES IDX 4 1 2 2 1 3 3 4 5 6 6 7 7 8 11 9 8 10 10 11 9 12
REMARK H PARENT 3 5
REMARK Flexibility Score: inf
ROOT
ATOM      1  C   UNL     1       7.246  -1.241  -2.177  1.00  0.00     0.127 C 
ENDROOT
BRANCH   1   2
ATOM      2  C   UNL     1       8.683  -1.293  -2.534  1.00  0.00     0.303 C 
ATOM      3  O   UNL     1       9.490  -0.426  -2.117  1.00  0.00    -0.252 OA
BRANCH   2   4
ATOM      4  O   UNL     1       9.178  -2.305  -3.341  1.00  0.00    -0.481 OA
ATOM      5  H   UNL     1       9.349  -3.230  -2.937  1.00  0.00     0.296 HD
ENDBRANCH   2   4
ENDBRANCH   1   2
BRANCH   1   6
ATOM      6  C   UNL     1       7.129  -1.308  -0.685  1.00  0.00     0.047 C 
BRANCH   6   7
ATOM      7  C   UNL     1       6.376  -0.201  -0.097  1.00  0.00    -0.047 A 
ATOM      8  C   UNL     1       5.949  -0.256   1.209  1.00  0.00     0.004 A 
ATOM      9  C   UNL     1       6.099   0.906  -0.867  1.00  0.00     0.004 A 
ATOM     10  C   UNL     1       5.236   0.839   1.704  1.00  0.00     0.000 A 
ATOM     11  C   UNL     1       5.395   1.987  -0.376  1.00  0.00     0.000 A 
ATOM     12  C   UNL     1       4.962   1.939   0.932  1.00  0.00     0.000 A 
ENDBRANCH   6   7
ENDBRANCH   1   6
TORSDOF 4
ENDMDL
