@<TRIPOS>MOLECULE
/home/cewinharhar/GITHUB/reincatalyze/data/processed/docking_pred/2023-May-02-0947_maxeplen10_maxtrainstep1000_seadep32_gamma099_lrac9e-4_lrcr1e-3/9fad910e57fbde25b93c61ef9d3287f531a6e420_ligand_2.pdbqt
 12 12 0 0 0
SMALL
GASTEIGER

@<TRIPOS>ATOM
      1  C          8.4050   -0.6620   -2.0700 C.3     1  UNL1        0.1270
      2  C          8.3750   -1.9040   -2.8770 C.2     1  UNL1        0.3030
      3  O          7.2890   -2.4140   -3.2470 O.2     1  UNL1       -0.2520
      4  O          9.5500   -2.5390   -3.2460 O.3     1  UNL1       -0.4810
      5  H          9.7250   -3.4960   -2.9250 H       1  UNL1        0.2960
      6  C          7.0290   -0.0680   -2.0690 C.3     1  UNL1        0.0470
      7  C          6.4560    0.1000   -0.7350 C.2     1  UNL1       -0.0470
      8  C          5.8020    1.2610   -0.3910 C.2     1  UNL1        0.0040
      9  C          6.5740   -0.9200    0.1810 C.2     1  UNL1        0.0040
     10  C          5.2790    1.3530    0.9000 C.2     1  UNL1        0.0000
     11  C          6.0560   -0.8280    1.4570 C.2     1  UNL1        0.0000
     12  C          5.4000    0.3320    1.8090 C.2     1  UNL1        0.0000
@<TRIPOS>BOND
     1     3     2    2
     2     4     5    1
     3     4     2    1
     4     2     1    1
     5     1     6    1
     6     6     7    1
     7     7     8    2
     8     7     9    1
     9     8    10    1
    10     9    11    2
    11    10    12    2
    12    11    12    1
