@<TRIPOS>MOLECULE
/home/cewinharhar/GITHUB/reincatalyze/data/processed/docking_pred/2023-May-02-0947_maxeplen10_maxtrainstep1000_seadep32_gamma099_lrac9e-4_lrcr1e-3/a450f47ca4f24610d4ad642e19216dd37a68a7e2_ligand_2.pdbqt
 12 12 0 0 0
SMALL
GASTEIGER

@<TRIPOS>ATOM
      1  C          8.2800    0.2760   -2.2360 C.3     1  UNL1        0.1270
      2  C          9.5170   -0.0070   -1.4690 C.2     1  UNL1        0.3030
      3  O          9.8030   -1.1740   -1.1040 O.2     1  UNL1       -0.2520
      4  O         10.3930    1.0120   -1.1330 O.3     1  UNL1       -0.4810
      5  H         10.9990    0.9020   -0.3160 H       1  UNL1        0.2960
      6  C          7.2000   -0.6360   -1.7400 C.3     1  UNL1        0.0470
      7  C          6.5090   -0.1460   -0.5490 C.2     1  UNL1       -0.0470
      8  C          5.9240    1.0990   -0.5360 C.2     1  UNL1        0.0040
      9  C          6.4460   -0.9470    0.5680 C.2     1  UNL1        0.0040
     10  C          5.2810    1.5010    0.6360 C.2     1  UNL1        0.0000
     11  C          5.8100   -0.5480    1.7260 C.2     1  UNL1        0.0000
     12  C          5.2220    0.6980    1.7470 C.2     1  UNL1        0.0000
@<TRIPOS>BOND
     1     1     6    1
     2     1     2    1
     3     6     7    1
     4     2     4    1
     5     2     3    2
     6     4     5    1
     7     7     8    2
     8     7     9    1
     9     8    10    1
    10     9    11    2
    11    10    12    2
    12    11    12    1
