@<TRIPOS>MOLECULE
/home/cewinharhar/GITHUB/reincatalyze/data/processed/docking_pred/2023-May-02-0947_maxeplen10_maxtrainstep1000_seadep32_gamma099_lrac9e-4_lrcr1e-3/a450f47ca4f24610d4ad642e19216dd37a68a7e2_ligand_2.pdbqt
 12 12 0 0 0
SMALL
GASTEIGER

@<TRIPOS>ATOM
      1  C          8.6350   -0.6790   -2.0770 C.3     1  UNL1        0.1270
      2  C          8.6740   -1.9220   -2.8830 C.2     1  UNL1        0.3030
      3  O          9.7590   -2.5030   -3.1320 O.2     1  UNL1       -0.2520
      4  O          7.5090   -2.4780   -3.3860 O.3     1  UNL1       -0.4810
      5  H          7.5290   -2.9430   -4.2980 H       1  UNL1        0.2960
      6  C          7.2370   -0.1430   -2.1050 C.3     1  UNL1        0.0470
      7  C          6.6280   -0.0000   -0.7830 C.2     1  UNL1       -0.0470
      8  C          6.6970   -1.0200    0.1370 C.2     1  UNL1        0.0040
      9  C          5.9840    1.1730   -0.4640 C.2     1  UNL1        0.0040
     10  C          6.0940   -0.8140    1.3800 C.2     1  UNL1        0.0000
     11  C          5.3880    1.3750    0.7650 C.2     1  UNL1        0.0000
     12  C          5.4520    0.3570    1.6920 C.2     1  UNL1        0.0000
@<TRIPOS>BOND
     1     5     4    1
     2     4     2    1
     3     3     2    2
     4     2     1    1
     5     6     1    1
     6     6     7    1
     7     7     9    2
     8     7     8    1
     9     9    11    1
    10     8    10    2
    11    11    12    2
    12    10    12    1
