MODEL 1
REMARK VINA RESULT:      -7.0      0.000      0.000
REMARK SMILES O=C(O)CCc1ccccc1
REMARK SMILES IDX 4 1 2 2 1 3 3 4 5 6 6 7 7 8 11 9 8 10 10 11 9 12
REMARK H PARENT 3 5
REMARK Flexibility Score: inf
ROOT
ATOM      1  C   UNL     1       8.635  -0.679  -2.077  1.00  0.00     0.127 C 
ENDROOT
BRANCH   1   2
ATOM      2  C   UNL     1       8.674  -1.922  -2.883  1.00  0.00     0.303 C 
ATOM      3  O   UNL     1       9.759  -2.503  -3.132  1.00  0.00    -0.252 OA
BRANCH   2   4
ATOM      4  O   UNL     1       7.509  -2.478  -3.386  1.00  0.00    -0.481 OA
ATOM      5  H   UNL     1       7.529  -2.943  -4.298  1.00  0.00     0.296 HD
ENDBRANCH   2   4
ENDBRANCH   1   2
BRANCH   1   6
ATOM      6  C   UNL     1       7.237  -0.143  -2.105  1.00  0.00     0.047 C 
BRANCH   6   7
ATOM      7  C   UNL     1       6.628  -0.000  -0.783  1.00  0.00    -0.047 A 
ATOM      8  C   UNL     1       6.697  -1.020   0.137  1.00  0.00     0.004 A 
ATOM      9  C   UNL     1       5.984   1.173  -0.464  1.00  0.00     0.004 A 
ATOM     10  C   UNL     1       6.094  -0.814   1.380  1.00  0.00     0.000 A 
ATOM     11  C   UNL     1       5.388   1.375   0.765  1.00  0.00     0.000 A 
ATOM     12  C   UNL     1       5.452   0.357   1.692  1.00  0.00     0.000 A 
ENDBRANCH   6   7
ENDBRANCH   1   6
TORSDOF 4
ENDMDL
MODEL 2
REMARK VINA RESULT:      -6.6      1.552      2.378
REMARK SMILES O=C(O)CCc1ccccc1
REMARK SMILES IDX 4 1 2 2 1 3 3 4 5 6 6 7 7 8 11 9 8 10 10 11 9 12
REMARK H PARENT 3 5
REMARK Flexibility Score: inf
ROOT
ATOM      1  C   UNL     1       8.280   0.276  -2.236  1.00  0.00     0.127 C 
ENDROOT
BRANCH   1   2
ATOM      2  C   UNL     1       9.517  -0.007  -1.469  1.00  0.00     0.303 C 
ATOM      3  O   UNL     1       9.803  -1.174  -1.104  1.00  0.00    -0.252 OA
BRANCH   2   4
ATOM      4  O   UNL     1      10.393   1.012  -1.133  1.00  0.00    -0.481 OA
ATOM      5  H   UNL     1      10.999   0.902  -0.316  1.00  0.00     0.296 HD
ENDBRANCH   2   4
ENDBRANCH   1   2
BRANCH   1   6
ATOM      6  C   UNL     1       7.200  -0.636  -1.740  1.00  0.00     0.047 C 
BRANCH   6   7
ATOM      7  C   UNL     1       6.509  -0.146  -0.549  1.00  0.00    -0.047 A 
ATOM      8  C   UNL     1       5.924   1.099  -0.536  1.00  0.00     0.004 A 
ATOM      9  C   UNL     1       6.446  -0.947   0.568  1.00  0.00     0.004 A 
ATOM     10  C   UNL     1       5.281   1.501   0.636  1.00  0.00     0.000 A 
ATOM     11  C   UNL     1       5.810  -0.548   1.726  1.00  0.00     0.000 A 
ATOM     12  C   UNL     1       5.222   0.698   1.747  1.00  0.00     0.000 A 
ENDBRANCH   6   7
ENDBRANCH   1   6
TORSDOF 4
ENDMDL
