@<TRIPOS>MOLECULE
/home/cewinharhar/GITHUB/reincatalyze/data/processed/docking_pred/2023-May-02-0947_maxeplen10_maxtrainstep1000_seadep32_gamma099_lrac9e-4_lrcr1e-3/a5b16c92fd7591d551db5a31bdb9c28d24e6a5b8_ligand_2.pdbqt
 12 12 0 0 0
SMALL
GASTEIGER

@<TRIPOS>ATOM
      1  C          8.4090   -0.6580   -2.0650 C.3     1  UNL1        0.1270
      2  C          8.3790   -1.8960   -2.8790 C.2     1  UNL1        0.3030
      3  O          7.2920   -2.4120   -3.2390 O.2     1  UNL1       -0.2520
      4  O          9.5540   -2.5200   -3.2660 O.3     1  UNL1       -0.4810
      5  H         10.3500   -2.5340   -2.6220 H       1  UNL1        0.2960
      6  C          7.0360   -0.0590   -2.0680 C.3     1  UNL1        0.0470
      7  C          6.4610    0.1170   -0.7360 C.2     1  UNL1       -0.0470
      8  C          5.8090    1.2810   -0.3990 C.2     1  UNL1        0.0040
      9  C          6.5770   -0.8990    0.1850 C.2     1  UNL1        0.0040
     10  C          5.2840    1.3800    0.8920 C.2     1  UNL1        0.0000
     11  C          6.0580   -0.7990    1.4610 C.2     1  UNL1        0.0000
     12  C          5.4040    0.3640    1.8060 C.2     1  UNL1        0.0000
@<TRIPOS>BOND
     1     4     2    1
     2     4     5    1
     3     3     2    2
     4     2     1    1
     5     6     1    1
     6     6     7    1
     7     7     8    2
     8     7     9    1
     9     8    10    1
    10     9    11    2
    11    10    12    2
    12    11    12    1
