MODEL 1
REMARK VINA RESULT:      -7.3      0.000      0.000
REMARK SMILES O=C(O)CCc1ccccc1
REMARK SMILES IDX 4 1 2 2 1 3 3 4 5 6 6 7 7 8 11 9 8 10 10 11 9 12
REMARK H PARENT 3 5
REMARK Flexibility Score: inf
ROOT
ATOM      1  C   UNL     1       8.409  -0.658  -2.065  1.00  0.00     0.127 C 
ENDROOT
BRANCH   1   2
ATOM      2  C   UNL     1       8.379  -1.896  -2.879  1.00  0.00     0.303 C 
ATOM      3  O   UNL     1       7.292  -2.412  -3.239  1.00  0.00    -0.252 OA
BRANCH   2   4
ATOM      4  O   UNL     1       9.554  -2.520  -3.266  1.00  0.00    -0.481 OA
ATOM      5  H   UNL     1      10.350  -2.534  -2.622  1.00  0.00     0.296 HD
ENDBRANCH   2   4
ENDBRANCH   1   2
BRANCH   1   6
ATOM      6  C   UNL     1       7.036  -0.059  -2.068  1.00  0.00     0.047 C 
BRANCH   6   7
ATOM      7  C   UNL     1       6.461   0.117  -0.736  1.00  0.00    -0.047 A 
ATOM      8  C   UNL     1       5.809   1.281  -0.399  1.00  0.00     0.004 A 
ATOM      9  C   UNL     1       6.577  -0.899   0.185  1.00  0.00     0.004 A 
ATOM     10  C   UNL     1       5.284   1.380   0.892  1.00  0.00     0.000 A 
ATOM     11  C   UNL     1       6.058  -0.799   1.461  1.00  0.00     0.000 A 
ATOM     12  C   UNL     1       5.404   0.364   1.806  1.00  0.00     0.000 A 
ENDBRANCH   6   7
ENDBRANCH   1   6
TORSDOF 4
ENDMDL
