@<TRIPOS>MOLECULE
/home/cewinharhar/GITHUB/reincatalyze/data/processed/docking_pred/2023-May-02-0947_maxeplen10_maxtrainstep1000_seadep32_gamma099_lrac9e-4_lrcr1e-3/a614218f6e6a1b7d791f470f20b1a009abdeaae3_ligand_2.pdbqt
 12 12 0 0 0
SMALL
GASTEIGER

@<TRIPOS>ATOM
      1  C          5.0370    1.8220    0.6930 C.3     1  UNL1        0.1270
      2  C          4.5910    1.1890    1.9570 C.2     1  UNL1        0.3030
      3  O          5.2370    0.2450    2.4760 O.2     1  UNL1       -0.2520
      4  O          3.4430    1.6210    2.6010 O.3     1  UNL1       -0.4810
      5  H          3.3400    2.6150    2.8270 H       1  UNL1        0.2960
      6  C          6.5350    1.8560    0.6880 C.3     1  UNL1        0.0470
      7  C          7.1430    1.0590   -0.3760 C.2     1  UNL1       -0.0470
      8  C          6.3870    0.1810   -1.1170 C.2     1  UNL1        0.0040
      9  C          8.4880    1.1970   -0.6330 C.2     1  UNL1        0.0040
     10  C          7.0350   -0.5470   -2.1180 C.2     1  UNL1        0.0000
     11  C          9.1260    0.4770   -1.6230 C.2     1  UNL1        0.0000
     12  C          8.3760   -0.4060   -2.3690 C.2     1  UNL1        0.0000
@<TRIPOS>BOND
     1    12    10    2
     2    12    11    1
     3    10     8    1
     4    11     9    2
     5     8     7    2
     6     9     7    1
     7     7     6    1
     8     6     1    1
     9     1     2    1
    10     2     3    2
    11     2     4    1
    12     4     5    1
