@<TRIPOS>MOLECULE
/home/cewinharhar/GITHUB/reincatalyze/data/processed/docking_pred/2023-May-02-0947_maxeplen10_maxtrainstep1000_seadep32_gamma099_lrac9e-4_lrcr1e-3/a614218f6e6a1b7d791f470f20b1a009abdeaae3_ligand_2.pdbqt
 12 12 0 0 0
SMALL
GASTEIGER

@<TRIPOS>ATOM
      1  C          7.8930   -0.7710   -2.1640 C.3     1  UNL1        0.1270
      2  C          8.3310   -1.9380   -2.9650 C.2     1  UNL1        0.3030
      3  O          9.5310   -2.3070   -2.9740 O.2     1  UNL1       -0.2520
      4  O          7.4240   -2.6540   -3.7300 O.3     1  UNL1       -0.4810
      5  H          7.4260   -2.5400   -4.7470 H       1  UNL1        0.2960
      6  C          7.2920   -1.2750   -0.8870 C.3     1  UNL1        0.0470
      7  C          6.5000   -0.2790   -0.1680 C.2     1  UNL1       -0.0470
      8  C          6.1180   -0.4910    1.1360 C.2     1  UNL1        0.0040
      9  C          6.1390    0.8830   -0.8110 C.2     1  UNL1        0.0040
     10  C          5.3640    0.5040    1.7610 C.2     1  UNL1        0.0000
     11  C          5.3920    1.8660   -0.1910 C.2     1  UNL1        0.0000
     12  C          5.0050    1.6600    1.1150 C.2     1  UNL1        0.0000
@<TRIPOS>BOND
     1     5     4    1
     2     4     2    1
     3     3     2    2
     4     2     1    1
     5     1     6    1
     6     6     7    1
     7     9    11    1
     8     9     7    2
     9    11    12    2
    10     7     8    1
    11    12    10    1
    12     8    10    2
