MODEL 1
REMARK VINA RESULT:      -6.9      0.000      0.000
REMARK SMILES O=C(O)CCc1ccccc1
REMARK SMILES IDX 4 1 2 2 1 3 3 4 5 6 6 7 7 8 11 9 8 10 10 11 9 12
REMARK H PARENT 3 5
REMARK Flexibility Score: inf
ROOT
ATOM      1  C   UNL     1       7.267  -1.181  -1.876  1.00  0.00     0.127 C 
ENDROOT
BRANCH   1   2
ATOM      2  C   UNL     1       8.687  -1.148  -2.300  1.00  0.00     0.303 C 
ATOM      3  O   UNL     1       9.161  -2.031  -3.057  1.00  0.00    -0.252 OA
BRANCH   2   4
ATOM      4  O   UNL     1       9.533  -0.138  -1.870  1.00  0.00    -0.481 OA
ATOM      5  H   UNL     1      10.291  -0.362  -1.220  1.00  0.00     0.296 HD
ENDBRANCH   2   4
ENDBRANCH   1   2
BRANCH   1   6
ATOM      6  C   UNL     1       6.764   0.228  -1.806  1.00  0.00     0.047 C 
BRANCH   6   7
ATOM      7  C   UNL     1       6.147   0.576  -0.528  1.00  0.00    -0.047 A 
ATOM      8  C   UNL     1       5.470   1.764  -0.373  1.00  0.00     0.004 A 
ATOM      9  C   UNL     1       6.247  -0.301   0.527  1.00  0.00     0.004 A 
ATOM     10  C   UNL     1       4.905   2.030   0.876  1.00  0.00     0.000 A 
ATOM     11  C   UNL     1       5.687  -0.036   1.761  1.00  0.00     0.000 A 
ATOM     12  C   UNL     1       5.009   1.152   1.924  1.00  0.00     0.000 A 
ENDBRANCH   6   7
ENDBRANCH   1   6
TORSDOF 4
ENDMDL
MODEL 2
REMARK VINA RESULT:      -6.9      3.187      4.963
REMARK SMILES O=C(O)CCc1ccccc1
REMARK SMILES IDX 4 1 2 2 1 3 3 4 5 6 6 7 7 8 11 9 8 10 10 11 9 12
REMARK H PARENT 3 5
REMARK Flexibility Score: inf
ROOT
ATOM      1  C   UNL     1       5.037   1.822   0.693  1.00  0.00     0.127 C 
ENDROOT
BRANCH   1   2
ATOM      2  C   UNL     1       4.591   1.189   1.957  1.00  0.00     0.303 C 
ATOM      3  O   UNL     1       5.237   0.245   2.476  1.00  0.00    -0.252 OA
BRANCH   2   4
ATOM      4  O   UNL     1       3.443   1.621   2.601  1.00  0.00    -0.481 OA
ATOM      5  H   UNL     1       3.340   2.615   2.827  1.00  0.00     0.296 HD
ENDBRANCH   2   4
ENDBRANCH   1   2
BRANCH   1   6
ATOM      6  C   UNL     1       6.535   1.856   0.688  1.00  0.00     0.047 C 
BRANCH   6   7
ATOM      7  C   UNL     1       7.143   1.059  -0.376  1.00  0.00    -0.047 A 
ATOM      8  C   UNL     1       6.387   0.181  -1.117  1.00  0.00     0.004 A 
ATOM      9  C   UNL     1       8.488   1.197  -0.633  1.00  0.00     0.004 A 
ATOM     10  C   UNL     1       7.035  -0.547  -2.118  1.00  0.00     0.000 A 
ATOM     11  C   UNL     1       9.126   0.477  -1.623  1.00  0.00     0.000 A 
ATOM     12  C   UNL     1       8.376  -0.406  -2.369  1.00  0.00     0.000 A 
ENDBRANCH   6   7
ENDBRANCH   1   6
TORSDOF 4
ENDMDL
MODEL 3
REMARK VINA RESULT:      -6.6      1.010      1.986
REMARK SMILES O=C(O)CCc1ccccc1
REMARK SMILES IDX 4 1 2 2 1 3 3 4 5 6 6 7 7 8 11 9 8 10 10 11 9 12
REMARK H PARENT 3 5
REMARK Flexibility Score: inf
ROOT
ATOM      1  C   UNL     1       7.893  -0.771  -2.164  1.00  0.00     0.127 C 
ENDROOT
BRANCH   1   2
ATOM      2  C   UNL     1       8.331  -1.938  -2.965  1.00  0.00     0.303 C 
ATOM      3  O   UNL     1       9.531  -2.307  -2.974  1.00  0.00    -0.252 OA
BRANCH   2   4
ATOM      4  O   UNL     1       7.424  -2.654  -3.730  1.00  0.00    -0.481 OA
ATOM      5  H   UNL     1       7.426  -2.540  -4.747  1.00  0.00     0.296 HD
ENDBRANCH   2   4
ENDBRANCH   1   2
BRANCH   1   6
ATOM      6  C   UNL     1       7.292  -1.275  -0.887  1.00  0.00     0.047 C 
BRANCH   6   7
ATOM      7  C   UNL     1       6.500  -0.279  -0.168  1.00  0.00    -0.047 A 
ATOM      8  C   UNL     1       6.118  -0.491   1.136  1.00  0.00     0.004 A 
ATOM      9  C   UNL     1       6.139   0.883  -0.811  1.00  0.00     0.004 A 
ATOM     10  C   UNL     1       5.364   0.504   1.761  1.00  0.00     0.000 A 
ATOM     11  C   UNL     1       5.392   1.866  -0.191  1.00  0.00     0.000 A 
ATOM     12  C   UNL     1       5.005   1.660   1.115  1.00  0.00     0.000 A 
ENDBRANCH   6   7
ENDBRANCH   1   6
TORSDOF 4
ENDMDL
