@<TRIPOS>MOLECULE
/home/cewinharhar/GITHUB/reincatalyze/data/processed/docking_pred/2023-May-02-0947_maxeplen10_maxtrainstep1000_seadep32_gamma099_lrac9e-4_lrcr1e-3/a614218f6e6a1b7d791f470f20b1a009abdeaae3_ligand_2.pdbqt
 12 12 0 0 0
SMALL
GASTEIGER

@<TRIPOS>ATOM
      1  C          7.2670   -1.1810   -1.8760 C.3     1  UNL1        0.1270
      2  C          8.6870   -1.1480   -2.3000 C.2     1  UNL1        0.3030
      3  O          9.1610   -2.0310   -3.0570 O.2     1  UNL1       -0.2520
      4  O          9.5330   -0.1380   -1.8700 O.3     1  UNL1       -0.4810
      5  H         10.2910   -0.3620   -1.2200 H       1  UNL1        0.2960
      6  C          6.7640    0.2280   -1.8060 C.3     1  UNL1        0.0470
      7  C          6.1470    0.5760   -0.5280 C.2     1  UNL1       -0.0470
      8  C          5.4700    1.7640   -0.3730 C.2     1  UNL1        0.0040
      9  C          6.2470   -0.3010    0.5270 C.2     1  UNL1        0.0040
     10  C          4.9050    2.0300    0.8760 C.2     1  UNL1        0.0000
     11  C          5.6870   -0.0360    1.7610 C.2     1  UNL1        0.0000
     12  C          5.0090    1.1520    1.9240 C.2     1  UNL1        0.0000
@<TRIPOS>BOND
     1     3     2    2
     2     2     1    1
     3     2     4    1
     4     1     6    1
     5     4     5    1
     6     6     7    1
     7     7     8    2
     8     7     9    1
     9     8    10    1
    10     9    11    2
    11    10    12    2
    12    11    12    1
