MODEL 1
REMARK VINA RESULT:      -7.3      0.000      0.000
REMARK SMILES O=C(O)CCc1ccccc1
REMARK SMILES IDX 4 1 2 2 1 3 3 4 5 6 6 7 7 8 11 9 8 10 10 11 9 12
REMARK H PARENT 3 5
REMARK Flexibility Score: inf
ROOT
ATOM      1  C   UNL     1       8.436  -0.638  -2.139  1.00  0.00     0.127 C 
ENDROOT
BRANCH   1   2
ATOM      2  C   UNL     1       8.468  -1.901  -2.914  1.00  0.00     0.303 C 
ATOM      3  O   UNL     1       9.542  -2.525  -3.097  1.00  0.00    -0.252 OA
BRANCH   2   4
ATOM      4  O   UNL     1       7.309  -2.429  -3.459  1.00  0.00    -0.481 OA
ATOM      5  H   UNL     1       6.813  -3.172  -2.959  1.00  0.00     0.296 HD
ENDBRANCH   2   4
ENDBRANCH   1   2
BRANCH   1   6
ATOM      6  C   UNL     1       7.026  -0.133  -2.120  1.00  0.00     0.047 C 
BRANCH   6   7
ATOM      7  C   UNL     1       6.479   0.057  -0.777  1.00  0.00    -0.047 A 
ATOM      8  C   UNL     1       5.846   1.228  -0.435  1.00  0.00     0.004 A 
ATOM      9  C   UNL     1       6.603  -0.955   0.146  1.00  0.00     0.004 A 
ATOM     10  C   UNL     1       5.347   1.340   0.865  1.00  0.00     0.000 A 
ATOM     11  C   UNL     1       6.110  -0.844   1.431  1.00  0.00     0.000 A 
ATOM     12  C   UNL     1       5.474   0.327   1.783  1.00  0.00     0.000 A 
ENDBRANCH   6   7
ENDBRANCH   1   6
TORSDOF 4
ENDMDL
