@<TRIPOS>MOLECULE
/home/cewinharhar/GITHUB/reincatalyze/data/processed/docking_pred/2023-May-02-0947_maxeplen10_maxtrainstep1000_seadep32_gamma099_lrac9e-4_lrcr1e-3/a6201df4fd59712db5137144eee8a96fed35f0a9_ligand_2.pdbqt
 12 12 0 0 0
SMALL
GASTEIGER

@<TRIPOS>ATOM
      1  C          8.4360   -0.6380   -2.1390 C.3     1  UNL1        0.1270
      2  C          8.4680   -1.9010   -2.9140 C.2     1  UNL1        0.3030
      3  O          9.5420   -2.5250   -3.0970 O.2     1  UNL1       -0.2520
      4  O          7.3090   -2.4290   -3.4590 O.3     1  UNL1       -0.4810
      5  H          6.8130   -3.1720   -2.9590 H       1  UNL1        0.2960
      6  C          7.0260   -0.1330   -2.1200 C.3     1  UNL1        0.0470
      7  C          6.4790    0.0570   -0.7770 C.2     1  UNL1       -0.0470
      8  C          5.8460    1.2280   -0.4350 C.2     1  UNL1        0.0040
      9  C          6.6030   -0.9550    0.1460 C.2     1  UNL1        0.0040
     10  C          5.3470    1.3400    0.8650 C.2     1  UNL1        0.0000
     11  C          6.1100   -0.8440    1.4310 C.2     1  UNL1        0.0000
     12  C          5.4740    0.3270    1.7830 C.2     1  UNL1        0.0000
@<TRIPOS>BOND
     1     4     5    1
     2     4     2    1
     3     3     2    2
     4     2     1    1
     5     1     6    1
     6     6     7    1
     7     7     8    2
     8     7     9    1
     9     8    10    1
    10     9    11    2
    11    10    12    2
    12    11    12    1
