@<TRIPOS>MOLECULE
/home/cewinharhar/GITHUB/reincatalyze/data/processed/docking_pred/2023-May-02-0947_maxeplen10_maxtrainstep1000_seadep32_gamma099_lrac9e-4_lrcr1e-3/a7c8c9f10e55c2841f25afbe7e611a3f864293db_ligand_2.pdbqt
 12 12 0 0 0
SMALL
GASTEIGER

@<TRIPOS>ATOM
      1  C          8.4050   -0.6610   -2.0700 C.3     1  UNL1        0.1270
      2  C          8.3730   -1.9060   -2.8740 C.2     1  UNL1        0.3030
      3  O          7.2870   -2.4100   -3.2510 O.2     1  UNL1       -0.2520
      4  O          9.5470   -2.5490   -3.2330 O.3     1  UNL1       -0.4810
      5  H          9.6360   -3.5560   -3.0710 H       1  UNL1        0.2960
      6  C          7.0290   -0.0680   -2.0670 C.3     1  UNL1        0.0470
      7  C          6.4590    0.1020   -0.7310 C.2     1  UNL1       -0.0470
      8  C          5.8040    1.2620   -0.3890 C.2     1  UNL1        0.0040
      9  C          6.5810   -0.9160    0.1860 C.2     1  UNL1        0.0040
     10  C          5.2830    1.3560    0.9030 C.2     1  UNL1        0.0000
     11  C          6.0660   -0.8220    1.4630 C.2     1  UNL1        0.0000
     12  C          5.4090    0.3370    1.8140 C.2     1  UNL1        0.0000
@<TRIPOS>BOND
     1     3     2    2
     2     4     5    1
     3     4     2    1
     4     2     1    1
     5     1     6    1
     6     6     7    1
     7     7     8    2
     8     7     9    1
     9     8    10    1
    10     9    11    2
    11    10    12    2
    12    11    12    1
