MODEL 1
REMARK VINA RESULT:      -7.3      0.000      0.000
REMARK SMILES O=C(O)CCc1ccccc1
REMARK SMILES IDX 4 1 2 2 1 3 3 4 5 6 6 7 7 8 11 9 8 10 10 11 9 12
REMARK H PARENT 3 5
REMARK Flexibility Score: inf
ROOT
ATOM      1  C   UNL     1       8.403  -0.661  -2.071  1.00  0.00     0.127 C 
ENDROOT
BRANCH   1   2
ATOM      2  C   UNL     1       8.374  -1.904  -2.878  1.00  0.00     0.303 C 
ATOM      3  O   UNL     1       7.287  -2.412  -3.250  1.00  0.00    -0.252 OA
BRANCH   2   4
ATOM      4  O   UNL     1       9.548  -2.541  -3.244  1.00  0.00    -0.481 OA
ATOM      5  H   UNL     1      10.225  -2.045  -3.831  1.00  0.00     0.296 HD
ENDBRANCH   2   4
ENDBRANCH   1   2
BRANCH   1   6
ATOM      6  C   UNL     1       7.027  -0.069  -2.068  1.00  0.00     0.047 C 
BRANCH   6   7
ATOM      7  C   UNL     1       6.455   0.099  -0.733  1.00  0.00    -0.047 A 
ATOM      8  C   UNL     1       5.802   1.259  -0.388  1.00  0.00     0.004 A 
ATOM      9  C   UNL     1       6.575  -0.922   0.182  1.00  0.00     0.004 A 
ATOM     10  C   UNL     1       5.280   1.350   0.904  1.00  0.00     0.000 A 
ATOM     11  C   UNL     1       6.058  -0.831   1.459  1.00  0.00     0.000 A 
ATOM     12  C   UNL     1       5.403   0.329   1.813  1.00  0.00     0.000 A 
ENDBRANCH   6   7
ENDBRANCH   1   6
TORSDOF 4
ENDMDL
MODEL 2
REMARK VINA RESULT:      -6.8      1.035      1.532
REMARK SMILES O=C(O)CCc1ccccc1
REMARK SMILES IDX 4 1 2 2 1 3 3 4 5 6 6 7 7 8 11 9 8 10 10 11 9 12
REMARK H PARENT 3 5
REMARK Flexibility Score: inf
ROOT
ATOM      1  C   UNL     1       7.323  -1.421  -2.257  1.00  0.00     0.127 C 
ENDROOT
BRANCH   1   2
ATOM      2  C   UNL     1       8.777  -1.420  -2.544  1.00  0.00     0.303 C 
ATOM      3  O   UNL     1       9.309  -2.340  -3.213  1.00  0.00    -0.252 OA
BRANCH   2   4
ATOM      4  O   UNL     1       9.592  -0.400  -2.080  1.00  0.00    -0.481 OA
ATOM      5  H   UNL     1       9.228   0.557  -2.047  1.00  0.00     0.296 HD
ENDBRANCH   2   4
ENDBRANCH   1   2
BRANCH   1   6
ATOM      6  C   UNL     1       7.137  -1.515  -0.773  1.00  0.00     0.047 C 
BRANCH   6   7
ATOM      7  C   UNL     1       6.429  -0.377  -0.189  1.00  0.00    -0.047 A 
ATOM      8  C   UNL     1       6.163   0.746  -0.939  1.00  0.00     0.004 A 
ATOM      9  C   UNL     1       6.025  -0.439   1.124  1.00  0.00     0.004 A 
ATOM     10  C   UNL     1       5.482   1.794  -0.317  1.00  0.00     0.000 A 
ATOM     11  C   UNL     1       5.351   0.598   1.738  1.00  0.00     0.000 A 
ATOM     12  C   UNL     1       5.082   1.727   0.994  1.00  0.00     0.000 A 
ENDBRANCH   6   7
ENDBRANCH   1   6
TORSDOF 4
ENDMDL
