@<TRIPOS>MOLECULE
/home/cewinharhar/GITHUB/reincatalyze/data/processed/docking_pred/2023-May-02-0947_maxeplen10_maxtrainstep1000_seadep32_gamma099_lrac9e-4_lrcr1e-3/a8cbf1bb962d04eb60783bb2dc55df042853f03a_ligand_2.pdbqt
 12 12 0 0 0
SMALL
GASTEIGER

@<TRIPOS>ATOM
      1  C          7.3230   -1.4210   -2.2570 C.3     1  UNL1        0.1270
      2  C          8.7770   -1.4200   -2.5440 C.2     1  UNL1        0.3030
      3  O          9.3090   -2.3400   -3.2130 O.2     1  UNL1       -0.2520
      4  O          9.5920   -0.4000   -2.0800 O.3     1  UNL1       -0.4810
      5  H          9.2280    0.5570   -2.0470 H       1  UNL1        0.2960
      6  C          7.1370   -1.5150   -0.7730 C.3     1  UNL1        0.0470
      7  C          6.4290   -0.3770   -0.1890 C.2     1  UNL1       -0.0470
      8  C          6.1630    0.7460   -0.9390 C.2     1  UNL1        0.0040
      9  C          6.0250   -0.4390    1.1240 C.2     1  UNL1        0.0040
     10  C          5.4820    1.7940   -0.3170 C.2     1  UNL1        0.0000
     11  C          5.3510    0.5980    1.7380 C.2     1  UNL1        0.0000
     12  C          5.0820    1.7270    0.9940 C.2     1  UNL1        0.0000
@<TRIPOS>BOND
     1     3     2    2
     2     2     1    1
     3     2     4    1
     4     1     6    1
     5     4     5    1
     6     8    10    1
     7     8     7    2
     8     6     7    1
     9    10    12    2
    10     7     9    1
    11    12    11    1
    12     9    11    2
