MODEL 1
REMARK VINA RESULT:      -7.3      0.000      0.000
REMARK SMILES O=C(O)CCc1ccccc1
REMARK SMILES IDX 4 1 2 2 1 3 3 4 5 6 6 7 7 8 11 9 8 10 10 11 9 12
REMARK H PARENT 3 5
REMARK Flexibility Score: inf
ROOT
ATOM      1  C   UNL     1       8.438  -0.642  -2.117  1.00  0.00     0.127 C 
ENDROOT
BRANCH   1   2
ATOM      2  C   UNL     1       8.475  -1.905  -2.891  1.00  0.00     0.303 C 
ATOM      3  O   UNL     1       9.554  -2.519  -3.085  1.00  0.00    -0.252 OA
BRANCH   2   4
ATOM      4  O   UNL     1       7.316  -2.446  -3.425  1.00  0.00    -0.481 OA
ATOM      5  H   UNL     1       6.472  -1.869  -3.477  1.00  0.00     0.296 HD
ENDBRANCH   2   4
ENDBRANCH   1   2
BRANCH   1   6
ATOM      6  C   UNL     1       7.030  -0.131  -2.119  1.00  0.00     0.047 C 
BRANCH   6   7
ATOM      7  C   UNL     1       6.467   0.065  -0.784  1.00  0.00    -0.047 A 
ATOM      8  C   UNL     1       5.832   1.240  -0.453  1.00  0.00     0.004 A 
ATOM      9  C   UNL     1       6.575  -0.944   0.145  1.00  0.00     0.004 A 
ATOM     10  C   UNL     1       5.317   1.357   0.840  1.00  0.00     0.000 A 
ATOM     11  C   UNL     1       6.066  -0.827   1.423  1.00  0.00     0.000 A 
ATOM     12  C   UNL     1       5.430   0.347   1.762  1.00  0.00     0.000 A 
ENDBRANCH   6   7
ENDBRANCH   1   6
TORSDOF 4
ENDMDL
