@<TRIPOS>MOLECULE
/home/cewinharhar/GITHUB/reincatalyze/data/processed/docking_pred/2023-May-02-0947_maxeplen10_maxtrainstep1000_seadep32_gamma099_lrac9e-4_lrcr1e-3/a991e05863b38587be5f018959c733685726fb49_ligand_2.pdbqt
 12 12 0 0 0
SMALL
GASTEIGER

@<TRIPOS>ATOM
      1  C          8.4380   -0.6420   -2.1170 C.3     1  UNL1        0.1270
      2  C          8.4750   -1.9050   -2.8910 C.2     1  UNL1        0.3030
      3  O          9.5540   -2.5190   -3.0850 O.2     1  UNL1       -0.2520
      4  O          7.3160   -2.4460   -3.4250 O.3     1  UNL1       -0.4810
      5  H          6.4720   -1.8690   -3.4770 H       1  UNL1        0.2960
      6  C          7.0300   -0.1310   -2.1190 C.3     1  UNL1        0.0470
      7  C          6.4670    0.0650   -0.7840 C.2     1  UNL1       -0.0470
      8  C          5.8320    1.2400   -0.4530 C.2     1  UNL1        0.0040
      9  C          6.5750   -0.9440    0.1450 C.2     1  UNL1        0.0040
     10  C          5.3170    1.3570    0.8400 C.2     1  UNL1        0.0000
     11  C          6.0660   -0.8270    1.4230 C.2     1  UNL1        0.0000
     12  C          5.4300    0.3470    1.7620 C.2     1  UNL1        0.0000
@<TRIPOS>BOND
     1     5     4    1
     2     4     2    1
     3     3     2    2
     4     2     1    1
     5     6     1    1
     6     6     7    1
     7     7     8    2
     8     7     9    1
     9     8    10    1
    10     9    11    2
    11    10    12    2
    12    11    12    1
