@<TRIPOS>MOLECULE
/home/cewinharhar/GITHUB/reincatalyze/data/processed/docking_pred/2023-May-02-0947_maxeplen10_maxtrainstep1000_seadep32_gamma099_lrac9e-4_lrcr1e-3/a9d08a951453574d65a810177cdd831b7fbb923c_ligand_2.pdbqt
 12 12 0 0 0
SMALL
GASTEIGER

@<TRIPOS>ATOM
      1  C          8.4050   -0.6620   -2.0700 C.3     1  UNL1        0.1270
      2  C          8.3740   -1.9060   -2.8750 C.2     1  UNL1        0.3030
      3  O          7.2870   -2.4110   -3.2500 O.2     1  UNL1       -0.2520
      4  O          9.5480   -2.5470   -3.2370 O.3     1  UNL1       -0.4810
      5  H         10.1180   -2.1590   -3.9940 H       1  UNL1        0.2960
      6  C          7.0300   -0.0680   -2.0690 C.3     1  UNL1        0.0470
      7  C          6.4560    0.1010   -0.7340 C.2     1  UNL1       -0.0470
      8  C          5.8000    1.2610   -0.3930 C.2     1  UNL1        0.0040
      9  C          6.5780   -0.9170    0.1820 C.2     1  UNL1        0.0040
     10  C          5.2760    1.3520    0.8990 C.2     1  UNL1        0.0000
     11  C          6.0610   -0.8240    1.4590 C.2     1  UNL1        0.0000
     12  C          5.4020    0.3340    1.8100 C.2     1  UNL1        0.0000
@<TRIPOS>BOND
     1     5     4    1
     2     3     2    2
     3     4     2    1
     4     2     1    1
     5     1     6    1
     6     6     7    1
     7     7     8    2
     8     7     9    1
     9     8    10    1
    10     9    11    2
    11    10    12    2
    12    11    12    1
