@<TRIPOS>MOLECULE
/home/cewinharhar/GITHUB/reincatalyze/data/processed/docking_pred/2023-May-02-0947_maxeplen10_maxtrainstep1000_seadep32_gamma099_lrac9e-4_lrcr1e-3/ab955c776f37f5544fae82246801d9a2769dfb79_ligand_2.pdbqt
 12 12 0 0 0
SMALL
GASTEIGER

@<TRIPOS>ATOM
      1  C          8.1690    0.3030   -2.3410 C.3     1  UNL1        0.1270
      2  C          9.4920    0.0590   -1.7190 C.2     1  UNL1        0.3030
      3  O          9.9900   -1.0940   -1.6780 O.2     1  UNL1       -0.2520
      4  O         10.2180    1.1000   -1.1620 O.3     1  UNL1       -0.4810
      5  H         10.2800    1.1790   -0.1440 H       1  UNL1        0.2960
      6  C          7.1900   -0.6720   -1.7630 C.3     1  UNL1        0.0470
      7  C          6.5180   -0.1940   -0.5560 C.2     1  UNL1       -0.0470
      8  C          5.9360    1.0520   -0.5210 C.2     1  UNL1        0.0040
      9  C          6.4700   -1.0080    0.5530 C.2     1  UNL1        0.0040
     10  C          5.3100    1.4420    0.6650 C.2     1  UNL1        0.0000
     11  C          5.8510   -0.6200    1.7250 C.2     1  UNL1        0.0000
     12  C          5.2660    0.6270    1.7680 C.2     1  UNL1        0.0000
@<TRIPOS>BOND
     1     1     6    1
     2     1     2    1
     3     6     7    1
     4     2     3    2
     5     2     4    1
     6     4     5    1
     7     7     8    2
     8     7     9    1
     9     8    10    1
    10     9    11    2
    11    10    12    2
    12    11    12    1
