@<TRIPOS>MOLECULE
/home/cewinharhar/GITHUB/reincatalyze/data/processed/docking_pred/2023-May-02-0947_maxeplen10_maxtrainstep1000_seadep32_gamma099_lrac9e-4_lrcr1e-3/ada201db5b439d74c350b173ce56903753062bb1_ligand_2.pdbqt
 12 12 0 0 0
SMALL
GASTEIGER

@<TRIPOS>ATOM
      1  C          7.2600   -1.2410   -2.1600 C.3     1  UNL1        0.1270
      2  C          8.6970   -1.3180   -2.5120 C.2     1  UNL1        0.3030
      3  O          9.5160   -0.4610   -2.0970 O.2     1  UNL1       -0.2520
      4  O          9.1790   -2.3420   -3.3120 O.3     1  UNL1       -0.4810
      5  H          9.5110   -2.1250   -4.2560 H       1  UNL1        0.2960
      6  C          7.1350   -1.3290   -0.6700 C.3     1  UNL1        0.0470
      7  C          6.3770   -0.2310   -0.0710 C.2     1  UNL1       -0.0470
      8  C          5.9230   -0.3150    1.2250 C.2     1  UNL1        0.0040
      9  C          6.1220    0.8950   -0.8190 C.2     1  UNL1        0.0040
     10  C          5.2070    0.7720    1.7320 C.2     1  UNL1        0.0000
     11  C          5.4130    1.9680   -0.3170 C.2     1  UNL1        0.0000
     12  C          4.9540    1.8920    0.9800 C.2     1  UNL1        0.0000
@<TRIPOS>BOND
     1     5     4    1
     2     4     2    1
     3     2     1    1
     4     2     3    2
     5     1     6    1
     6     9    11    1
     7     9     7    2
     8     6     7    1
     9    11    12    2
    10     7     8    1
    11    12    10    1
    12     8    10    2
