@<TRIPOS>MOLECULE
/home/cewinharhar/GITHUB/reincatalyze/data/processed/docking_pred/2023-May-02-0947_maxeplen10_maxtrainstep1000_seadep32_gamma099_lrac9e-4_lrcr1e-3/ae2b7ca0e57384ee3cd7889808440c06f68d274f_ligand_2.pdbqt
 12 12 0 0 0
SMALL
GASTEIGER

@<TRIPOS>ATOM
      1  C          7.2490   -1.2500   -2.1790 C.3     1  UNL1        0.1270
      2  C          8.6880   -1.2990   -2.5330 C.2     1  UNL1        0.3030
      3  O          9.4940   -0.4390   -2.1010 O.2     1  UNL1       -0.2520
      4  O          9.1830   -2.3000   -3.3530 O.3     1  UNL1       -0.4810
      5  H          9.1530   -2.1750   -4.3690 H       1  UNL1        0.2960
      6  C          7.1280   -1.3210   -0.6880 C.3     1  UNL1        0.0470
      7  C          6.3770   -0.2130   -0.0990 C.2     1  UNL1       -0.0470
      8  C          5.9540   -0.2670    1.2090 C.2     1  UNL1        0.0040
      9  C          6.0970    0.8920   -0.8680 C.2     1  UNL1        0.0040
     10  C          5.2430    0.8270    1.7060 C.2     1  UNL1        0.0000
     11  C          5.3930    1.9730   -0.3760 C.2     1  UNL1        0.0000
     12  C          4.9650    1.9270    0.9330 C.2     1  UNL1        0.0000
@<TRIPOS>BOND
     1     5     4    1
     2     4     2    1
     3     2     1    1
     4     2     3    2
     5     1     6    1
     6     9    11    1
     7     9     7    2
     8     6     7    1
     9    11    12    2
    10     7     8    1
    11    12    10    1
    12     8    10    2
