MODEL 1
REMARK VINA RESULT:      -7.3      0.000      0.000
REMARK SMILES O=C(O)CCc1ccccc1
REMARK SMILES IDX 4 1 2 2 1 3 3 4 5 6 6 7 7 8 11 9 8 10 10 11 9 12
REMARK H PARENT 3 5
REMARK Flexibility Score: inf
ROOT
ATOM      1  C   UNL     1       8.406  -0.663  -2.068  1.00  0.00     0.127 C 
ENDROOT
BRANCH   1   2
ATOM      2  C   UNL     1       8.376  -1.905  -2.876  1.00  0.00     0.303 C 
ATOM      3  O   UNL     1       7.289  -2.414  -3.247  1.00  0.00    -0.252 OA
BRANCH   2   4
ATOM      4  O   UNL     1       9.551  -2.540  -3.246  1.00  0.00    -0.481 OA
ATOM      5  H   UNL     1      10.173  -2.088  -3.921  1.00  0.00     0.296 HD
ENDBRANCH   2   4
ENDBRANCH   1   2
BRANCH   1   6
ATOM      6  C   UNL     1       7.031  -0.069  -2.067  1.00  0.00     0.047 C 
BRANCH   6   7
ATOM      7  C   UNL     1       6.457   0.100  -0.733  1.00  0.00    -0.047 A 
ATOM      8  C   UNL     1       5.802   1.261  -0.391  1.00  0.00     0.004 A 
ATOM      9  C   UNL     1       6.575  -0.920   0.182  1.00  0.00     0.004 A 
ATOM     10  C   UNL     1       5.278   1.352   0.900  1.00  0.00     0.000 A 
ATOM     11  C   UNL     1       6.056  -0.828   1.458  1.00  0.00     0.000 A 
ATOM     12  C   UNL     1       5.400   0.332   1.810  1.00  0.00     0.000 A 
ENDBRANCH   6   7
ENDBRANCH   1   6
TORSDOF 4
ENDMDL
MODEL 2
REMARK VINA RESULT:      -7.0      1.041      1.957
REMARK SMILES O=C(O)CCc1ccccc1
REMARK SMILES IDX 4 1 2 2 1 3 3 4 5 6 6 7 7 8 11 9 8 10 10 11 9 12
REMARK H PARENT 3 5
REMARK Flexibility Score: inf
ROOT
ATOM      1  C   UNL     1       7.249  -1.250  -2.179  1.00  0.00     0.127 C 
ENDROOT
BRANCH   1   2
ATOM      2  C   UNL     1       8.688  -1.299  -2.533  1.00  0.00     0.303 C 
ATOM      3  O   UNL     1       9.494  -0.439  -2.101  1.00  0.00    -0.252 OA
BRANCH   2   4
ATOM      4  O   UNL     1       9.183  -2.300  -3.353  1.00  0.00    -0.481 OA
ATOM      5  H   UNL     1       9.153  -2.175  -4.369  1.00  0.00     0.296 HD
ENDBRANCH   2   4
ENDBRANCH   1   2
BRANCH   1   6
ATOM      6  C   UNL     1       7.128  -1.321  -0.688  1.00  0.00     0.047 C 
BRANCH   6   7
ATOM      7  C   UNL     1       6.377  -0.213  -0.099  1.00  0.00    -0.047 A 
ATOM      8  C   UNL     1       5.954  -0.267   1.209  1.00  0.00     0.004 A 
ATOM      9  C   UNL     1       6.097   0.892  -0.868  1.00  0.00     0.004 A 
ATOM     10  C   UNL     1       5.243   0.827   1.706  1.00  0.00     0.000 A 
ATOM     11  C   UNL     1       5.393   1.973  -0.376  1.00  0.00     0.000 A 
ATOM     12  C   UNL     1       4.965   1.927   0.933  1.00  0.00     0.000 A 
ENDBRANCH   6   7
ENDBRANCH   1   6
TORSDOF 4
ENDMDL
