@<TRIPOS>MOLECULE
/home/cewinharhar/GITHUB/reincatalyze/data/processed/docking_pred/2023-May-02-0947_maxeplen10_maxtrainstep1000_seadep32_gamma099_lrac9e-4_lrcr1e-3/ae45d061dddc84380b8ad6f9293329cc64ca5b9d_ligand_2.pdbqt
 12 12 0 0 0
SMALL
GASTEIGER

@<TRIPOS>ATOM
      1  C          8.4040   -0.6550   -2.0780 C.3     1  UNL1        0.1270
      2  C          8.3730   -1.9030   -2.8770 C.2     1  UNL1        0.3030
      3  O          7.2870   -2.4100   -3.2500 O.2     1  UNL1       -0.2520
      4  O          9.5470   -2.5450   -3.2350 O.3     1  UNL1       -0.4810
      5  H         10.2850   -2.6660   -2.5350 H       1  UNL1        0.2960
      6  C          7.0250   -0.0670   -2.0720 C.3     1  UNL1        0.0470
      7  C          6.4580    0.1010   -0.7350 C.2     1  UNL1       -0.0470
      8  C          5.8030    1.2610   -0.3890 C.2     1  UNL1        0.0040
      9  C          6.5820   -0.9180    0.1800 C.2     1  UNL1        0.0040
     10  C          5.2850    1.3520    0.9040 C.2     1  UNL1        0.0000
     11  C          6.0690   -0.8260    1.4590 C.2     1  UNL1        0.0000
     12  C          5.4130    0.3320    1.8130 C.2     1  UNL1        0.0000
@<TRIPOS>BOND
     1     3     2    2
     2     4     2    1
     3     4     5    1
     4     2     1    1
     5     1     6    1
     6     6     7    1
     7     7     8    2
     8     7     9    1
     9     8    10    1
    10     9    11    2
    11    10    12    2
    12    11    12    1
