@<TRIPOS>MOLECULE
/home/cewinharhar/GITHUB/reincatalyze/data/processed/docking_pred/2023-May-02-0947_maxeplen10_maxtrainstep1000_seadep32_gamma099_lrac9e-4_lrcr1e-3/ae62664a3c9eef67376bdc077c2faa7ac5a69a78_ligand_2.pdbqt
 12 12 0 0 0
SMALL
GASTEIGER

@<TRIPOS>ATOM
      1  C          5.0310    1.8260    0.6930 C.3     1  UNL1        0.1270
      2  C          4.5880    1.1940    1.9580 C.2     1  UNL1        0.3030
      3  O          5.2450    0.2620    2.4850 O.2     1  UNL1       -0.2520
      4  O          3.4330    1.6170    2.5960 O.3     1  UNL1       -0.4810
      5  H          3.5080    2.2150    3.4240 H       1  UNL1        0.2960
      6  C          6.5290    1.8640    0.6850 C.3     1  UNL1        0.0470
      7  C          7.1390    1.0690   -0.3790 C.2     1  UNL1       -0.0470
      8  C          6.3830    0.1900   -1.1210 C.2     1  UNL1        0.0040
      9  C          8.4830    1.2080   -0.6360 C.2     1  UNL1        0.0040
     10  C          7.0310   -0.5360   -2.1230 C.2     1  UNL1        0.0000
     11  C          9.1220    0.4890   -1.6270 C.2     1  UNL1        0.0000
     12  C          8.3730   -0.3930   -2.3740 C.2     1  UNL1        0.0000
@<TRIPOS>BOND
     1    12    10    2
     2    12    11    1
     3    10     8    1
     4    11     9    2
     5     8     7    2
     6     9     7    1
     7     7     6    1
     8     6     1    1
     9     1     2    1
    10     2     3    2
    11     2     4    1
    12     4     5    1
