@<TRIPOS>MOLECULE
/home/cewinharhar/GITHUB/reincatalyze/data/processed/docking_pred/2023-May-02-0947_maxeplen10_maxtrainstep1000_seadep32_gamma099_lrac9e-4_lrcr1e-3/af895cae38f50b8ad608cacdd29f7ae1ddca485c_ligand_2.pdbqt
 12 12 0 0 0
SMALL
GASTEIGER

@<TRIPOS>ATOM
      1  C          8.4350   -0.6410   -2.1320 C.3     1  UNL1        0.1270
      2  C          8.4720   -1.9030   -2.9070 C.2     1  UNL1        0.3030
      3  O          9.5500   -2.5210   -3.0930 O.2     1  UNL1       -0.2520
      4  O          7.3150   -2.4370   -3.4510 O.3     1  UNL1       -0.4810
      5  H          7.3380   -3.3790   -3.8520 H       1  UNL1        0.2960
      6  C          7.0240   -0.1380   -2.1190 C.3     1  UNL1        0.0470
      7  C          6.4720    0.0520   -0.7790 C.2     1  UNL1       -0.0470
      8  C          5.8350    1.2230   -0.4390 C.2     1  UNL1        0.0040
      9  C          6.5940   -0.9590    0.1470 C.2     1  UNL1        0.0040
     10  C          5.3320    1.3340    0.8590 C.2     1  UNL1        0.0000
     11  C          6.0960   -0.8470    1.4300 C.2     1  UNL1        0.0000
     12  C          5.4570    0.3230    1.7780 C.2     1  UNL1        0.0000
@<TRIPOS>BOND
     1     5     4    1
     2     4     2    1
     3     3     2    2
     4     2     1    1
     5     1     6    1
     6     6     7    1
     7     7     8    2
     8     7     9    1
     9     8    10    1
    10     9    11    2
    11    10    12    2
    12    11    12    1
