MODEL 1
REMARK VINA RESULT:      -7.3      0.000      0.000
REMARK SMILES O=C(O)CCc1ccccc1
REMARK SMILES IDX 4 1 2 2 1 3 3 4 5 6 6 7 7 8 11 9 8 10 10 11 9 12
REMARK H PARENT 3 5
REMARK Flexibility Score: inf
ROOT
ATOM      1  C   UNL     1       8.435  -0.641  -2.132  1.00  0.00     0.127 C 
ENDROOT
BRANCH   1   2
ATOM      2  C   UNL     1       8.472  -1.903  -2.907  1.00  0.00     0.303 C 
ATOM      3  O   UNL     1       9.550  -2.521  -3.093  1.00  0.00    -0.252 OA
BRANCH   2   4
ATOM      4  O   UNL     1       7.315  -2.437  -3.451  1.00  0.00    -0.481 OA
ATOM      5  H   UNL     1       7.338  -3.379  -3.852  1.00  0.00     0.296 HD
ENDBRANCH   2   4
ENDBRANCH   1   2
BRANCH   1   6
ATOM      6  C   UNL     1       7.024  -0.138  -2.119  1.00  0.00     0.047 C 
BRANCH   6   7
ATOM      7  C   UNL     1       6.472   0.052  -0.779  1.00  0.00    -0.047 A 
ATOM      8  C   UNL     1       5.835   1.223  -0.439  1.00  0.00     0.004 A 
ATOM      9  C   UNL     1       6.594  -0.959   0.147  1.00  0.00     0.004 A 
ATOM     10  C   UNL     1       5.332   1.334   0.859  1.00  0.00     0.000 A 
ATOM     11  C   UNL     1       6.096  -0.847   1.430  1.00  0.00     0.000 A 
ATOM     12  C   UNL     1       5.457   0.323   1.778  1.00  0.00     0.000 A 
ENDBRANCH   6   7
ENDBRANCH   1   6
TORSDOF 4
ENDMDL
