@<TRIPOS>MOLECULE
/home/cewinharhar/GITHUB/reincatalyze/data/processed/docking_pred/2023-May-02-0947_maxeplen10_maxtrainstep1000_seadep32_gamma099_lrac9e-4_lrcr1e-3/af895cae38f50b8ad608cacdd29f7ae1ddca485c_ligand_2.pdbqt
 12 12 0 0 0
SMALL
GASTEIGER

@<TRIPOS>ATOM
      1  C          7.2590   -1.2680   -2.1730 C.3     1  UNL1        0.1270
      2  C          8.6980   -1.3120   -2.5250 C.2     1  UNL1        0.3030
      3  O          9.5000   -0.4460   -2.0940 O.2     1  UNL1       -0.2520
      4  O          9.1990   -2.3120   -3.3420 O.3     1  UNL1       -0.4810
      5  H          9.4590   -2.0870   -4.3070 H       1  UNL1        0.2960
      6  C          7.1360   -1.3540   -0.6820 C.3     1  UNL1        0.0470
      7  C          6.3820   -0.2540   -0.0840 C.2     1  UNL1       -0.0470
      8  C          5.9460   -0.3270    1.2190 C.2     1  UNL1        0.0040
      9  C          6.1110    0.8630   -0.8390 C.2     1  UNL1        0.0040
     10  C          5.2320    0.7610    1.7260 C.2     1  UNL1        0.0000
     11  C          5.4040    1.9380   -0.3370 C.2     1  UNL1        0.0000
     12  C          4.9640    1.8730    0.9670 C.2     1  UNL1        0.0000
@<TRIPOS>BOND
     1     5     4    1
     2     4     2    1
     3     2     1    1
     4     2     3    2
     5     1     6    1
     6     9    11    1
     7     9     7    2
     8     6     7    1
     9    11    12    2
    10     7     8    1
    11    12    10    1
    12     8    10    2
