@<TRIPOS>MOLECULE
/home/cewinharhar/GITHUB/reincatalyze/data/processed/docking_pred/2023-May-02-0947_maxeplen10_maxtrainstep1000_seadep32_gamma099_lrac9e-4_lrcr1e-3/af9628f04dddfdfce7c60ac864c84e5664a7a69f_ligand_2.pdbqt
 12 12 0 0 0
SMALL
GASTEIGER

@<TRIPOS>ATOM
      1  C          5.4690    2.9000   -0.0000 C.3     1  UNL1        0.1270
      2  C          6.2580    3.8620    0.8060 C.2     1  UNL1        0.3030
      3  O          6.9250    4.7750    0.2590 O.2     1  UNL1       -0.2520
      4  O          6.2820    3.7780    2.1880 O.3     1  UNL1       -0.4810
      5  H          5.7410    4.4490    2.7400 H       1  UNL1        0.2960
      6  C          4.9350    1.8440    0.9180 C.3     1  UNL1        0.0470
      7  C          5.7140    0.6070    0.9200 C.2     1  UNL1       -0.0470
      8  C          6.3760    0.1920   -0.2120 C.2     1  UNL1        0.0040
      9  C          5.7820   -0.1420    2.0720 C.2     1  UNL1        0.0040
     10  C          7.1030   -0.9990   -0.1380 C.2     1  UNL1        0.0000
     11  C          6.5010   -1.3190    2.1430 C.2     1  UNL1        0.0000
     12  C          7.1660   -1.7420    1.0140 C.2     1  UNL1        0.0000
@<TRIPOS>BOND
     1     8    10    1
     2     8     7    2
     3    10    12    2
     4     1     2    1
     5     1     6    1
     6     3     2    2
     7     2     4    1
     8     6     7    1
     9     7     9    1
    10    12    11    1
    11     9    11    2
    12     4     5    1
