@<TRIPOS>MOLECULE
/home/cewinharhar/GITHUB/reincatalyze/data/processed/docking_pred/2023-May-02-0947_maxeplen10_maxtrainstep1000_seadep32_gamma099_lrac9e-4_lrcr1e-3/af9628f04dddfdfce7c60ac864c84e5664a7a69f_ligand_2.pdbqt
 12 12 0 0 0
SMALL
GASTEIGER

@<TRIPOS>ATOM
      1  C          8.4360   -0.6440   -2.1390 C.3     1  UNL1        0.1270
      2  C          8.4750   -1.9070   -2.9120 C.2     1  UNL1        0.3030
      3  O          9.5530   -2.5230   -3.0990 O.2     1  UNL1       -0.2520
      4  O          7.3180   -2.4450   -3.4530 O.3     1  UNL1       -0.4810
      5  H          6.8740   -1.9800   -4.2500 H       1  UNL1        0.2960
      6  C          7.0230   -0.1430   -2.1260 C.3     1  UNL1        0.0470
      7  C          6.4760    0.0590   -0.7860 C.2     1  UNL1       -0.0470
      8  C          5.8380    1.2310   -0.4560 C.2     1  UNL1        0.0040
      9  C          6.6040   -0.9420    0.1490 C.2     1  UNL1        0.0040
     10  C          5.3380    1.3550    0.8430 C.2     1  UNL1        0.0000
     11  C          6.1100   -0.8180    1.4330 C.2     1  UNL1        0.0000
     12  C          5.4700    0.3540    1.7710 C.2     1  UNL1        0.0000
@<TRIPOS>BOND
     1     5     4    1
     2     4     2    1
     3     3     2    2
     4     2     1    1
     5     1     6    1
     6     6     7    1
     7     7     8    2
     8     7     9    1
     9     8    10    1
    10     9    11    2
    11    10    12    2
    12    11    12    1
