MODEL 1
REMARK VINA RESULT:      -7.3      0.000      0.000
REMARK SMILES O=C(O)CCc1ccccc1
REMARK SMILES IDX 4 1 2 2 1 3 3 4 5 6 6 7 7 8 11 9 8 10 10 11 9 12
REMARK H PARENT 3 5
REMARK Flexibility Score: inf
ROOT
ATOM      1  C   UNL     1       8.438  -0.646  -2.124  1.00  0.00     0.127 C 
ENDROOT
BRANCH   1   2
ATOM      2  C   UNL     1       8.477  -1.907  -2.900  1.00  0.00     0.303 C 
ATOM      3  O   UNL     1       9.556  -2.521  -3.089  1.00  0.00    -0.252 OA
BRANCH   2   4
ATOM      4  O   UNL     1       7.320  -2.445  -3.440  1.00  0.00    -0.481 OA
ATOM      5  H   UNL     1       6.742  -1.870  -4.059  1.00  0.00     0.296 HD
ENDBRANCH   2   4
ENDBRANCH   1   2
BRANCH   1   6
ATOM      6  C   UNL     1       7.027  -0.141  -2.117  1.00  0.00     0.047 C 
BRANCH   6   7
ATOM      7  C   UNL     1       6.472   0.056  -0.779  1.00  0.00    -0.047 A 
ATOM      8  C   UNL     1       5.830   1.227  -0.449  1.00  0.00     0.004 A 
ATOM      9  C   UNL     1       6.597  -0.947   0.155  1.00  0.00     0.004 A 
ATOM     10  C   UNL     1       5.324   1.347   0.847  1.00  0.00     0.000 A 
ATOM     11  C   UNL     1       6.097  -0.827   1.436  1.00  0.00     0.000 A 
ATOM     12  C   UNL     1       5.453   0.343   1.774  1.00  0.00     0.000 A 
ENDBRANCH   6   7
ENDBRANCH   1   6
TORSDOF 4
ENDMDL
