@<TRIPOS>MOLECULE
/home/cewinharhar/GITHUB/reincatalyze/data/processed/docking_pred/2023-May-02-0947_maxeplen10_maxtrainstep1000_seadep32_gamma099_lrac9e-4_lrcr1e-3/b0253e2818c1de1129519fa2afa58b59888d8d60_ligand_2.pdbqt
 12 12 0 0 0
SMALL
GASTEIGER

@<TRIPOS>ATOM
      1  C          8.4380   -0.6460   -2.1240 C.3     1  UNL1        0.1270
      2  C          8.4770   -1.9070   -2.9000 C.2     1  UNL1        0.3030
      3  O          9.5560   -2.5210   -3.0890 O.2     1  UNL1       -0.2520
      4  O          7.3200   -2.4450   -3.4400 O.3     1  UNL1       -0.4810
      5  H          6.7420   -1.8700   -4.0590 H       1  UNL1        0.2960
      6  C          7.0270   -0.1410   -2.1170 C.3     1  UNL1        0.0470
      7  C          6.4720    0.0560   -0.7790 C.2     1  UNL1       -0.0470
      8  C          5.8300    1.2270   -0.4490 C.2     1  UNL1        0.0040
      9  C          6.5970   -0.9470    0.1550 C.2     1  UNL1        0.0040
     10  C          5.3240    1.3470    0.8470 C.2     1  UNL1        0.0000
     11  C          6.0970   -0.8270    1.4360 C.2     1  UNL1        0.0000
     12  C          5.4530    0.3430    1.7740 C.2     1  UNL1        0.0000
@<TRIPOS>BOND
     1     5     4    1
     2     4     2    1
     3     3     2    2
     4     2     1    1
     5     1     6    1
     6     6     7    1
     7     7     8    2
     8     7     9    1
     9     8    10    1
    10     9    11    2
    11    10    12    2
    12    11    12    1
