@<TRIPOS>MOLECULE
/home/cewinharhar/GITHUB/reincatalyze/data/processed/docking_pred/2023-May-02-0947_maxeplen10_maxtrainstep1000_seadep32_gamma099_lrac9e-4_lrcr1e-3/b0dbf451e4e891e0fb60bf6ca530f921e690d9da_ligand_2.pdbqt
 12 12 0 0 0
SMALL
GASTEIGER

@<TRIPOS>ATOM
      1  C          5.8920   -0.8880    1.7390 C.3     1  UNL1        0.1270
      2  C          5.3420    0.4540    2.0400 C.2     1  UNL1        0.3030
      3  O          4.1760    0.5950    2.4860 O.2     1  UNL1       -0.2520
      4  O          6.1020    1.5950    1.8380 O.3     1  UNL1       -0.4810
      5  H          6.5470    2.0490    2.6410 H       1  UNL1        0.2960
      6  C          7.3610   -0.7470    1.4770 C.3     1  UNL1        0.0470
      7  C          7.7060   -0.6490    0.0600 C.2     1  UNL1       -0.0470
      8  C          8.8540   -0.0060   -0.3420 C.2     1  UNL1        0.0040
      9  C          6.8680   -1.2120   -0.8750 C.2     1  UNL1        0.0040
     10  C          9.1210    0.0490   -1.7120 C.2     1  UNL1        0.0000
     11  C          7.1340   -1.1560   -2.2290 C.2     1  UNL1        0.0000
     12  C          8.2810   -0.5130   -2.6400 C.2     1  UNL1        0.0000
@<TRIPOS>BOND
     1    12    11    2
     2    12    10    1
     3    11     9    1
     4    10     8    2
     5     9     7    2
     6     8     7    1
     7     7     6    1
     8     6     1    1
     9     1     2    1
    10     4     2    1
    11     4     5    1
    12     2     3    2
