@<TRIPOS>MOLECULE
/home/cewinharhar/GITHUB/reincatalyze/data/processed/docking_pred/2023-May-02-0947_maxeplen10_maxtrainstep1000_seadep32_gamma099_lrac9e-4_lrcr1e-3/b0dbf451e4e891e0fb60bf6ca530f921e690d9da_ligand_2.pdbqt
 12 12 0 0 0
SMALL
GASTEIGER

@<TRIPOS>ATOM
      1  C          5.0900   -0.1260    2.0400 C.3     1  UNL1        0.1270
      2  C          4.4090    1.1880    1.9720 C.2     1  UNL1        0.3030
      3  O          4.9280    2.1590    1.3670 O.2     1  UNL1       -0.2520
      4  O          3.1770    1.3820    2.5760 O.3     1  UNL1       -0.4810
      5  H          2.3640    1.6050    1.9950 H       1  UNL1        0.2960
      6  C          6.5400    0.0780    1.7240 C.3     1  UNL1        0.0470
      7  C          7.0150   -0.7010    0.5820 C.2     1  UNL1       -0.0470
      8  C          6.6350   -0.3740   -0.6990 C.2     1  UNL1        0.0040
      9  C          7.8520   -1.7700    0.8000 C.2     1  UNL1        0.0040
     10  C          7.1280   -1.1610   -1.7430 C.2     1  UNL1        0.0000
     11  C          8.3380   -2.5480   -0.2330 C.2     1  UNL1        0.0000
     12  C          7.9620   -2.2270   -1.5190 C.2     1  UNL1        0.0000
@<TRIPOS>BOND
     1    10    12    2
     2    10     8    1
     3    12    11    1
     4     8     7    2
     5    11     9    2
     6     7     9    1
     7     7     6    1
     8     3     2    2
     9     6     1    1
    10     2     1    1
    11     2     4    1
    12     5     4    1
