MODEL 1
REMARK VINA RESULT:      -7.3      0.000      0.000
REMARK SMILES O=C(O)CCc1ccccc1
REMARK SMILES IDX 4 1 2 2 1 3 3 4 5 6 6 7 7 8 11 9 8 10 10 11 9 12
REMARK H PARENT 3 5
REMARK Flexibility Score: inf
ROOT
ATOM      1  C   UNL     1       8.407  -0.660  -2.068  1.00  0.00     0.127 C 
ENDROOT
BRANCH   1   2
ATOM      2  C   UNL     1       8.376  -1.901  -2.878  1.00  0.00     0.303 C 
ATOM      3  O   UNL     1       7.289  -2.414  -3.241  1.00  0.00    -0.252 OA
BRANCH   2   4
ATOM      4  O   UNL     1       9.551  -2.531  -3.258  1.00  0.00    -0.481 OA
ATOM      5  H   UNL     1      10.215  -2.828  -2.538  1.00  0.00     0.296 HD
ENDBRANCH   2   4
ENDBRANCH   1   2
BRANCH   1   6
ATOM      6  C   UNL     1       7.033  -0.064  -2.068  1.00  0.00     0.047 C 
BRANCH   6   7
ATOM      7  C   UNL     1       6.459   0.106  -0.735  1.00  0.00    -0.047 A 
ATOM      8  C   UNL     1       5.805   1.268  -0.393  1.00  0.00     0.004 A 
ATOM      9  C   UNL     1       6.576  -0.913   0.182  1.00  0.00     0.004 A 
ATOM     10  C   UNL     1       5.281   1.361   0.898  1.00  0.00     0.000 A 
ATOM     11  C   UNL     1       6.057  -0.819   1.458  1.00  0.00     0.000 A 
ATOM     12  C   UNL     1       5.402   0.341   1.808  1.00  0.00     0.000 A 
ENDBRANCH   6   7
ENDBRANCH   1   6
TORSDOF 4
ENDMDL
