@<TRIPOS>MOLECULE
/home/cewinharhar/GITHUB/reincatalyze/data/processed/docking_pred/2023-May-02-0947_maxeplen10_maxtrainstep1000_seadep32_gamma099_lrac9e-4_lrcr1e-3/b1cc709a4c09585943c6b669d8b61c6b26bf0288_ligand_2.pdbqt
 12 12 0 0 0
SMALL
GASTEIGER

@<TRIPOS>ATOM
      1  C          5.0950   -0.1270    2.0440 C.3     1  UNL1        0.1270
      2  C          4.4140    1.1870    1.9730 C.2     1  UNL1        0.3030
      3  O          4.9320    2.1570    1.3670 O.2     1  UNL1       -0.2520
      4  O          3.1820    1.3810    2.5770 O.3     1  UNL1       -0.4810
      5  H          2.6870    2.2660    2.4320 H       1  UNL1        0.2960
      6  C          6.5450    0.0770    1.7240 C.3     1  UNL1        0.0470
      7  C          7.0150   -0.6960    0.5750 C.2     1  UNL1       -0.0470
      8  C          6.6270   -0.3640   -0.7020 C.2     1  UNL1        0.0040
      9  C          7.8550   -1.7650    0.7840 C.2     1  UNL1        0.0040
     10  C          7.1160   -1.1450   -1.7520 C.2     1  UNL1        0.0000
     11  C          8.3370   -2.5370   -0.2550 C.2     1  UNL1        0.0000
     12  C          7.9530   -2.2110   -1.5370 C.2     1  UNL1        0.0000
@<TRIPOS>BOND
     1    10    12    2
     2    10     8    1
     3    12    11    1
     4     8     7    2
     5    11     9    2
     6     7     9    1
     7     7     6    1
     8     3     2    2
     9     6     1    1
    10     2     1    1
    11     2     4    1
    12     5     4    1
