@<TRIPOS>MOLECULE
/home/cewinharhar/GITHUB/reincatalyze/data/processed/docking_pred/2023-May-02-0947_maxeplen10_maxtrainstep1000_seadep32_gamma099_lrac9e-4_lrcr1e-3/b1cc709a4c09585943c6b669d8b61c6b26bf0288_ligand_2.pdbqt
 12 12 0 0 0
SMALL
GASTEIGER

@<TRIPOS>ATOM
      1  C          5.9380   -0.8900    1.7490 C.3     1  UNL1        0.1270
      2  C          5.3740    0.4500    2.0390 C.2     1  UNL1        0.3030
      3  O          4.2000    0.5840    2.4640 O.2     1  UNL1       -0.2520
      4  O          6.1310    1.5950    1.8490 O.3     1  UNL1       -0.4810
      5  H          6.1280    2.3220    2.5690 H       1  UNL1        0.2960
      6  C          7.4000   -0.7330    1.4620 C.3     1  UNL1        0.0470
      7  C          7.7210   -0.6450    0.0390 C.2     1  UNL1       -0.0470
      8  C          8.8540    0.0080   -0.3880 C.2     1  UNL1        0.0040
      9  C          6.8760   -1.2280   -0.8770 C.2     1  UNL1        0.0040
     10  C          9.0990    0.0520   -1.7620 C.2     1  UNL1        0.0000
     11  C          7.1190   -1.1840   -2.2360 C.2     1  UNL1        0.0000
     12  C          8.2520   -0.5300   -2.6710 C.2     1  UNL1        0.0000
@<TRIPOS>BOND
     1    12    11    2
     2    12    10    1
     3    11     9    1
     4    10     8    2
     5     9     7    2
     6     8     7    1
     7     7     6    1
     8     6     1    1
     9     1     2    1
    10     4     2    1
    11     4     5    1
    12     2     3    2
