@<TRIPOS>MOLECULE
/home/cewinharhar/GITHUB/reincatalyze/data/processed/docking_pred/2023-May-02-0947_maxeplen10_maxtrainstep1000_seadep32_gamma099_lrac9e-4_lrcr1e-3/b393d0f0af23d36e99ef7bf88514b4beffd0378d_ligand_2.pdbqt
 12 12 0 0 0
SMALL
GASTEIGER

@<TRIPOS>ATOM
      1  C          8.0240   -0.7200   -2.1300 C.3     1  UNL1        0.1270
      2  C          8.2650   -1.9300   -2.9520 C.2     1  UNL1        0.3030
      3  O          9.4140   -2.4260   -3.0590 O.2     1  UNL1       -0.2520
      4  O          7.2250   -2.5480   -3.6270 O.3     1  UNL1       -0.4810
      5  H          6.5690   -3.1360   -3.1070 H       1  UNL1        0.2960
      6  C          7.5560   -1.1580   -0.7750 C.3     1  UNL1        0.0470
      7  C          6.6460   -0.2140   -0.1280 C.2     1  UNL1       -0.0470
      8  C          6.1980   -0.4360    1.1540 C.2     1  UNL1        0.0040
      9  C          6.2400    0.9060   -0.8150 C.2     1  UNL1        0.0040
     10  C          5.3320    0.5080    1.7100 C.2     1  UNL1        0.0000
     11  C          5.3830    1.8380   -0.2640 C.2     1  UNL1        0.0000
     12  C          4.9290    1.6230    1.0190 C.2     1  UNL1        0.0000
@<TRIPOS>BOND
     1     4     5    1
     2     4     2    1
     3     3     2    2
     4     2     1    1
     5     1     6    1
     6     9    11    1
     7     9     7    2
     8     6     7    1
     9    11    12    2
    10     7     8    1
    11    12    10    1
    12     8    10    2
