@<TRIPOS>MOLECULE
/home/cewinharhar/GITHUB/reincatalyze/data/processed/docking_pred/2023-May-02-0947_maxeplen10_maxtrainstep1000_seadep32_gamma099_lrac9e-4_lrcr1e-3/b393d0f0af23d36e99ef7bf88514b4beffd0378d_ligand_2.pdbqt
 12 12 0 0 0
SMALL
GASTEIGER

@<TRIPOS>ATOM
      1  C          8.4010   -0.6540   -2.0780 C.3     1  UNL1        0.1270
      2  C          8.3720   -1.9010   -2.8780 C.2     1  UNL1        0.3030
      3  O          7.2860   -2.4110   -3.2500 O.2     1  UNL1       -0.2520
      4  O          9.5470   -2.5410   -3.2390 O.3     1  UNL1       -0.4810
      5  H          9.9800   -3.1990   -2.5850 H       1  UNL1        0.2960
      6  C          7.0230   -0.0660   -2.0720 C.3     1  UNL1        0.0470
      7  C          6.4550    0.1020   -0.7350 C.2     1  UNL1       -0.0470
      8  C          5.8020    1.2630   -0.3900 C.2     1  UNL1        0.0040
      9  C          6.5770   -0.9180    0.1800 C.2     1  UNL1        0.0040
     10  C          5.2830    1.3540    0.9040 C.2     1  UNL1        0.0000
     11  C          6.0640   -0.8260    1.4580 C.2     1  UNL1        0.0000
     12  C          5.4090    0.3340    1.8130 C.2     1  UNL1        0.0000
@<TRIPOS>BOND
     1     3     2    2
     2     4     2    1
     3     4     5    1
     4     2     1    1
     5     1     6    1
     6     6     7    1
     7     7     8    2
     8     7     9    1
     9     8    10    1
    10     9    11    2
    11    10    12    2
    12    11    12    1
