MODEL 1
REMARK VINA RESULT:      -7.3      0.000      0.000
REMARK SMILES O=C(O)CCc1ccccc1
REMARK SMILES IDX 4 1 2 2 1 3 3 4 5 6 6 7 7 8 11 9 8 10 10 11 9 12
REMARK H PARENT 3 5
REMARK Flexibility Score: inf
ROOT
ATOM      1  C   UNL     1       8.401  -0.654  -2.078  1.00  0.00     0.127 C 
ENDROOT
BRANCH   1   2
ATOM      2  C   UNL     1       8.372  -1.901  -2.878  1.00  0.00     0.303 C 
ATOM      3  O   UNL     1       7.286  -2.411  -3.250  1.00  0.00    -0.252 OA
BRANCH   2   4
ATOM      4  O   UNL     1       9.547  -2.541  -3.239  1.00  0.00    -0.481 OA
ATOM      5  H   UNL     1       9.980  -3.199  -2.585  1.00  0.00     0.296 HD
ENDBRANCH   2   4
ENDBRANCH   1   2
BRANCH   1   6
ATOM      6  C   UNL     1       7.023  -0.066  -2.072  1.00  0.00     0.047 C 
BRANCH   6   7
ATOM      7  C   UNL     1       6.455   0.102  -0.735  1.00  0.00    -0.047 A 
ATOM      8  C   UNL     1       5.802   1.263  -0.390  1.00  0.00     0.004 A 
ATOM      9  C   UNL     1       6.577  -0.918   0.180  1.00  0.00     0.004 A 
ATOM     10  C   UNL     1       5.283   1.354   0.904  1.00  0.00     0.000 A 
ATOM     11  C   UNL     1       6.064  -0.826   1.458  1.00  0.00     0.000 A 
ATOM     12  C   UNL     1       5.409   0.334   1.813  1.00  0.00     0.000 A 
ENDBRANCH   6   7
ENDBRANCH   1   6
TORSDOF 4
ENDMDL
MODEL 2
REMARK VINA RESULT:      -7.1      0.630      1.864
REMARK SMILES O=C(O)CCc1ccccc1
REMARK SMILES IDX 4 1 2 2 1 3 3 4 5 6 6 7 7 8 11 9 8 10 10 11 9 12
REMARK H PARENT 3 5
REMARK Flexibility Score: inf
ROOT
ATOM      1  C   UNL     1       8.024  -0.720  -2.130  1.00  0.00     0.127 C 
ENDROOT
BRANCH   1   2
ATOM      2  C   UNL     1       8.265  -1.930  -2.952  1.00  0.00     0.303 C 
ATOM      3  O   UNL     1       9.414  -2.426  -3.059  1.00  0.00    -0.252 OA
BRANCH   2   4
ATOM      4  O   UNL     1       7.225  -2.548  -3.627  1.00  0.00    -0.481 OA
ATOM      5  H   UNL     1       6.569  -3.136  -3.107  1.00  0.00     0.296 HD
ENDBRANCH   2   4
ENDBRANCH   1   2
BRANCH   1   6
ATOM      6  C   UNL     1       7.556  -1.158  -0.775  1.00  0.00     0.047 C 
BRANCH   6   7
ATOM      7  C   UNL     1       6.646  -0.214  -0.128  1.00  0.00    -0.047 A 
ATOM      8  C   UNL     1       6.198  -0.436   1.154  1.00  0.00     0.004 A 
ATOM      9  C   UNL     1       6.240   0.906  -0.815  1.00  0.00     0.004 A 
ATOM     10  C   UNL     1       5.332   0.508   1.710  1.00  0.00     0.000 A 
ATOM     11  C   UNL     1       5.383   1.838  -0.264  1.00  0.00     0.000 A 
ATOM     12  C   UNL     1       4.929   1.623   1.019  1.00  0.00     0.000 A 
ENDBRANCH   6   7
ENDBRANCH   1   6
TORSDOF 4
ENDMDL
