@<TRIPOS>MOLECULE
/home/cewinharhar/GITHUB/reincatalyze/data/processed/docking_pred/2023-May-02-0947_maxeplen10_maxtrainstep1000_seadep32_gamma099_lrac9e-4_lrcr1e-3/b3efa5aa79561967f2a1346927635c3d7bfec8a2_ligand_2.pdbqt
 12 12 0 0 0
SMALL
GASTEIGER

@<TRIPOS>ATOM
      1  C          7.8310   -0.7720   -2.2000 C.3     1  UNL1        0.1270
      2  C          8.3050   -1.9390   -2.9800 C.2     1  UNL1        0.3030
      3  O          9.5140   -2.2790   -2.9730 O.2     1  UNL1       -0.2520
      4  O          7.4240   -2.6880   -3.7430 O.3     1  UNL1       -0.4810
      5  H          7.6680   -2.9170   -4.7110 H       1  UNL1        0.2960
      6  C          7.2820   -1.2680   -0.8970 C.3     1  UNL1        0.0470
      7  C          6.4920   -0.2780   -0.1680 C.2     1  UNL1       -0.0470
      8  C          6.1130   -0.5010    1.1350 C.2     1  UNL1        0.0040
      9  C          6.1310    0.8890   -0.8010 C.2     1  UNL1        0.0040
     10  C          5.3600    0.4890    1.7700 C.2     1  UNL1        0.0000
     11  C          5.3860    1.8670   -0.1720 C.2     1  UNL1        0.0000
     12  C          5.0010    1.6510    1.1340 C.2     1  UNL1        0.0000
@<TRIPOS>BOND
     1     5     4    1
     2     4     2    1
     3     2     3    2
     4     2     1    1
     5     1     6    1
     6     6     7    1
     7     9    11    1
     8     9     7    2
     9    11    12    2
    10     7     8    1
    11    12    10    1
    12     8    10    2
