MODEL 1
REMARK VINA RESULT:      -7.3      0.000      0.000
REMARK SMILES O=C(O)CCc1ccccc1
REMARK SMILES IDX 4 1 2 2 1 3 3 4 5 6 6 7 7 8 11 9 8 10 10 11 9 12
REMARK H PARENT 3 5
REMARK Flexibility Score: inf
ROOT
ATOM      1  C   UNL     1       8.435  -0.662  -2.065  1.00  0.00     0.127 C 
ENDROOT
BRANCH   1   2
ATOM      2  C   UNL     1       8.456  -1.912  -2.862  1.00  0.00     0.303 C 
ATOM      3  O   UNL     1       9.526  -2.541  -3.057  1.00  0.00    -0.252 OA
BRANCH   2   4
ATOM      4  O   UNL     1       7.293  -2.420  -3.416  1.00  0.00    -0.481 OA
ATOM      5  H   UNL     1       6.542  -2.739  -2.797  1.00  0.00     0.296 HD
ENDBRANCH   2   4
ENDBRANCH   1   2
BRANCH   1   6
ATOM      6  C   UNL     1       7.039  -0.119  -2.078  1.00  0.00     0.047 C 
BRANCH   6   7
ATOM      7  C   UNL     1       6.467   0.082  -0.748  1.00  0.00    -0.047 A 
ATOM      8  C   UNL     1       6.579  -0.888   0.220  1.00  0.00     0.004 A 
ATOM      9  C   UNL     1       5.812   1.260  -0.471  1.00  0.00     0.004 A 
ATOM     10  C   UNL     1       6.010  -0.627   1.469  1.00  0.00     0.000 A 
ATOM     11  C   UNL     1       5.249   1.516   0.764  1.00  0.00     0.000 A 
ATOM     12  C   UNL     1       5.357   0.549   1.740  1.00  0.00     0.000 A 
ENDBRANCH   6   7
ENDBRANCH   1   6
TORSDOF 4
ENDMDL
