@<TRIPOS>MOLECULE
/home/cewinharhar/GITHUB/reincatalyze/data/processed/docking_pred/2023-May-02-0947_maxeplen10_maxtrainstep1000_seadep32_gamma099_lrac9e-4_lrcr1e-3/b3efa5aa79561967f2a1346927635c3d7bfec8a2_ligand_2.pdbqt
 12 12 0 0 0
SMALL
GASTEIGER

@<TRIPOS>ATOM
      1  C          8.4350   -0.6620   -2.0650 C.3     1  UNL1        0.1270
      2  C          8.4560   -1.9120   -2.8620 C.2     1  UNL1        0.3030
      3  O          9.5260   -2.5410   -3.0570 O.2     1  UNL1       -0.2520
      4  O          7.2930   -2.4200   -3.4160 O.3     1  UNL1       -0.4810
      5  H          6.5420   -2.7390   -2.7970 H       1  UNL1        0.2960
      6  C          7.0390   -0.1190   -2.0780 C.3     1  UNL1        0.0470
      7  C          6.4670    0.0820   -0.7480 C.2     1  UNL1       -0.0470
      8  C          6.5790   -0.8880    0.2200 C.2     1  UNL1        0.0040
      9  C          5.8120    1.2600   -0.4710 C.2     1  UNL1        0.0040
     10  C          6.0100   -0.6270    1.4690 C.2     1  UNL1        0.0000
     11  C          5.2490    1.5160    0.7640 C.2     1  UNL1        0.0000
     12  C          5.3570    0.5490    1.7400 C.2     1  UNL1        0.0000
@<TRIPOS>BOND
     1     4     2    1
     2     4     5    1
     3     3     2    2
     4     2     1    1
     5     6     1    1
     6     6     7    1
     7     7     9    2
     8     7     8    1
     9     9    11    1
    10     8    10    2
    11    11    12    2
    12    10    12    1
