MODEL 1
REMARK VINA RESULT:      -6.4      0.000      0.000
REMARK SMILES O=C(O)CCc1ccccc1
REMARK SMILES IDX 4 1 2 2 1 3 3 4 5 6 6 7 7 8 11 9 8 10 10 11 9 12
REMARK H PARENT 3 5
REMARK Flexibility Score: inf
ROOT
ATOM      1  C   UNL     1       7.275  -0.419   2.745  1.00  0.00     0.127 C 
ENDROOT
BRANCH   1   2
ATOM      2  C   UNL     1       5.945  -0.611   2.119  1.00  0.00     0.303 C 
ATOM      3  O   UNL     1       4.988   0.161   2.375  1.00  0.00    -0.252 OA
BRANCH   2   4
ATOM      4  O   UNL     1       5.721  -1.651   1.232  1.00  0.00    -0.481 OA
ATOM      5  H   UNL     1       6.109  -2.576   1.436  1.00  0.00     0.296 HD
ENDBRANCH   2   4
ENDBRANCH   1   2
BRANCH   1   6
ATOM      6  C   UNL     1       7.592  -1.637   3.559  1.00  0.00     0.047 C 
BRANCH   6   7
ATOM      7  C   UNL     1       8.922  -1.617   4.164  1.00  0.00    -0.047 A 
ATOM      8  C   UNL     1       9.979  -2.259   3.562  1.00  0.00     0.004 A 
ATOM      9  C   UNL     1       9.110  -0.944   5.350  1.00  0.00     0.004 A 
ATOM     10  C   UNL     1      11.222  -2.198   4.196  1.00  0.00     0.000 A 
ATOM     11  C   UNL     1      10.340  -0.885   5.975  1.00  0.00     0.000 A 
ATOM     12  C   UNL     1      11.403  -1.526   5.378  1.00  0.00     0.000 A 
ENDBRANCH   6   7
ENDBRANCH   1   6
TORSDOF 4
ENDMDL
MODEL 2
REMARK VINA RESULT:      -6.3      1.424      2.390
REMARK SMILES O=C(O)CCc1ccccc1
REMARK SMILES IDX 4 1 2 2 1 3 3 4 5 6 6 7 7 8 11 9 8 10 10 11 9 12
REMARK H PARENT 3 5
REMARK Flexibility Score: inf
ROOT
ATOM      1  C   UNL     1       7.959  -1.335   3.170  1.00  0.00     0.127 C 
ENDROOT
BRANCH   1   2
ATOM      2  C   UNL     1       6.686  -1.380   2.412  1.00  0.00     0.303 C 
ATOM      3  O   UNL     1       5.820  -0.479   2.541  1.00  0.00    -0.252 OA
BRANCH   2   4
ATOM      4  O   UNL     1       6.417  -2.420   1.537  1.00  0.00    -0.481 OA
ATOM      5  H   UNL     1       6.365  -2.229   0.533  1.00  0.00     0.296 HD
ENDBRANCH   2   4
ENDBRANCH   1   2
BRANCH   1   6
ATOM      6  C   UNL     1       9.053  -1.846   2.283  1.00  0.00     0.047 C 
BRANCH   6   7
ATOM      7  C   UNL     1      10.119  -2.546   2.997  1.00  0.00    -0.047 A 
ATOM      8  C   UNL     1      10.530  -2.122   4.239  1.00  0.00     0.004 A 
ATOM      9  C   UNL     1      10.711  -3.642   2.413  1.00  0.00     0.004 A 
ATOM     10  C   UNL     1      11.553  -2.839   4.863  1.00  0.00     0.000 A 
ATOM     11  C   UNL     1      11.722  -4.350   3.031  1.00  0.00     0.000 A 
ATOM     12  C   UNL     1      12.140  -3.931   4.275  1.00  0.00     0.000 A 
ENDBRANCH   6   7
ENDBRANCH   1   6
TORSDOF 4
ENDMDL
MODEL 3
REMARK VINA RESULT:      -6.0      1.394      2.334
REMARK SMILES O=C(O)CCc1ccccc1
REMARK SMILES IDX 4 1 2 2 1 3 3 4 5 6 6 7 7 8 11 9 8 10 10 11 9 12
REMARK H PARENT 3 5
REMARK Flexibility Score: inf
ROOT
ATOM      1  C   UNL     1       6.625   0.374   2.326  1.00  0.00     0.127 C 
ENDROOT
BRANCH   1   2
ATOM      2  C   UNL     1       5.317   0.696   1.708  1.00  0.00     0.303 C 
ATOM      3  O   UNL     1       5.230   1.009   0.495  1.00  0.00    -0.252 OA
BRANCH   2   4
ATOM      4  O   UNL     1       4.151   0.660   2.455  1.00  0.00    -0.481 OA
ATOM      5  H   UNL     1       3.701   1.539   2.725  1.00  0.00     0.296 HD
ENDBRANCH   2   4
ENDBRANCH   1   2
BRANCH   1   6
ATOM      6  C   UNL     1       6.773  -1.116   2.365  1.00  0.00     0.047 C 
BRANCH   6   7
ATOM      7  C   UNL     1       8.049  -1.573   2.915  1.00  0.00    -0.047 A 
ATOM      8  C   UNL     1       8.341  -1.402   4.248  1.00  0.00     0.004 A 
ATOM      9  C   UNL     1       8.959  -2.181   2.082  1.00  0.00     0.004 A 
ATOM     10  C   UNL     1       9.578  -1.863   4.705  1.00  0.00     0.000 A 
ATOM     11  C   UNL     1      10.182  -2.636   2.535  1.00  0.00     0.000 A 
ATOM     12  C   UNL     1      10.483  -2.468   3.869  1.00  0.00     0.000 A 
ENDBRANCH   6   7
ENDBRANCH   1   6
TORSDOF 4
ENDMDL
