@<TRIPOS>MOLECULE
/home/cewinharhar/GITHUB/reincatalyze/data/processed/docking_pred/2023-May-02-0947_maxeplen10_maxtrainstep1000_seadep32_gamma099_lrac9e-4_lrcr1e-3/b5f7d4a2d914252a6bbd971338c7ac1ea6a3e46f_ligand_2.pdbqt
 12 12 0 0 0
SMALL
GASTEIGER

@<TRIPOS>ATOM
      1  C          6.6250    0.3740    2.3260 C.3     1  UNL1        0.1270
      2  C          5.3170    0.6960    1.7080 C.2     1  UNL1        0.3030
      3  O          5.2300    1.0090    0.4950 O.2     1  UNL1       -0.2520
      4  O          4.1510    0.6600    2.4550 O.3     1  UNL1       -0.4810
      5  H          3.7010    1.5390    2.7250 H       1  UNL1        0.2960
      6  C          6.7730   -1.1160    2.3650 C.3     1  UNL1        0.0470
      7  C          8.0490   -1.5730    2.9150 C.2     1  UNL1       -0.0470
      8  C          8.3410   -1.4020    4.2480 C.2     1  UNL1        0.0040
      9  C          8.9590   -2.1810    2.0820 C.2     1  UNL1        0.0040
     10  C          9.5780   -1.8630    4.7050 C.2     1  UNL1        0.0000
     11  C         10.1820   -2.6360    2.5350 C.2     1  UNL1        0.0000
     12  C         10.4830   -2.4680    3.8690 C.2     1  UNL1        0.0000
@<TRIPOS>BOND
     1     3     2    2
     2     2     1    1
     3     2     4    1
     4     9    11    1
     5     9     7    2
     6     1     6    1
     7     6     7    1
     8     4     5    1
     9    11    12    2
    10     7     8    1
    11    12    10    1
    12     8    10    2
