@<TRIPOS>MOLECULE
/home/cewinharhar/GITHUB/reincatalyze/data/processed/docking_pred/2023-May-02-0947_maxeplen10_maxtrainstep1000_seadep32_gamma099_lrac9e-4_lrcr1e-3/b5f7d4a2d914252a6bbd971338c7ac1ea6a3e46f_ligand_2.pdbqt
 12 12 0 0 0
SMALL
GASTEIGER

@<TRIPOS>ATOM
      1  C          7.2750   -0.4190    2.7450 C.3     1  UNL1        0.1270
      2  C          5.9450   -0.6110    2.1190 C.2     1  UNL1        0.3030
      3  O          4.9880    0.1610    2.3750 O.2     1  UNL1       -0.2520
      4  O          5.7210   -1.6510    1.2320 O.3     1  UNL1       -0.4810
      5  H          6.1090   -2.5760    1.4360 H       1  UNL1        0.2960
      6  C          7.5920   -1.6370    3.5590 C.3     1  UNL1        0.0470
      7  C          8.9220   -1.6170    4.1640 C.2     1  UNL1       -0.0470
      8  C          9.9790   -2.2590    3.5620 C.2     1  UNL1        0.0040
      9  C          9.1100   -0.9440    5.3500 C.2     1  UNL1        0.0040
     10  C         11.2220   -2.1980    4.1960 C.2     1  UNL1        0.0000
     11  C         10.3400   -0.8850    5.9750 C.2     1  UNL1        0.0000
     12  C         11.4030   -1.5260    5.3780 C.2     1  UNL1        0.0000
@<TRIPOS>BOND
     1     4     5    1
     2     4     2    1
     3     2     3    2
     4     2     1    1
     5     1     6    1
     6     6     7    1
     7     8     7    2
     8     8    10    1
     9     7     9    1
    10    10    12    2
    11     9    11    2
    12    12    11    1
