@<TRIPOS>MOLECULE
/home/cewinharhar/GITHUB/reincatalyze/data/processed/docking_pred/2023-May-02-0947_maxeplen10_maxtrainstep1000_seadep32_gamma099_lrac9e-4_lrcr1e-3/b5f7d4a2d914252a6bbd971338c7ac1ea6a3e46f_ligand_2.pdbqt
 12 12 0 0 0
SMALL
GASTEIGER

@<TRIPOS>ATOM
      1  C          7.9590   -1.3350    3.1700 C.3     1  UNL1        0.1270
      2  C          6.6860   -1.3800    2.4120 C.2     1  UNL1        0.3030
      3  O          5.8200   -0.4790    2.5410 O.2     1  UNL1       -0.2520
      4  O          6.4170   -2.4200    1.5370 O.3     1  UNL1       -0.4810
      5  H          6.3650   -2.2290    0.5330 H       1  UNL1        0.2960
      6  C          9.0530   -1.8460    2.2830 C.3     1  UNL1        0.0470
      7  C         10.1190   -2.5460    2.9970 C.2     1  UNL1       -0.0470
      8  C         10.5300   -2.1220    4.2390 C.2     1  UNL1        0.0040
      9  C         10.7110   -3.6420    2.4130 C.2     1  UNL1        0.0040
     10  C         11.5530   -2.8390    4.8630 C.2     1  UNL1        0.0000
     11  C         11.7220   -4.3500    3.0310 C.2     1  UNL1        0.0000
     12  C         12.1400   -3.9310    4.2750 C.2     1  UNL1        0.0000
@<TRIPOS>BOND
     1     5     4    1
     2     4     2    1
     3     6     7    1
     4     6     1    1
     5     2     3    2
     6     2     1    1
     7     9     7    2
     8     9    11    1
     9     7     8    1
    10    11    12    2
    11     8    10    2
    12    12    10    1
