@<TRIPOS>MOLECULE
/home/cewinharhar/GITHUB/reincatalyze/data/processed/docking_pred/2023-May-02-0947_maxeplen10_maxtrainstep1000_seadep32_gamma099_lrac9e-4_lrcr1e-3/b99eeed02ad73e34178363463c07c25b6fbf2bee_ligand_2.pdbqt
 12 12 0 0 0
SMALL
GASTEIGER

@<TRIPOS>ATOM
      1  C          8.4070   -0.6630   -2.0680 C.3     1  UNL1        0.1270
      2  C          8.3760   -1.9050   -2.8770 C.2     1  UNL1        0.3030
      3  O          7.2890   -2.4140   -3.2460 O.2     1  UNL1       -0.2520
      4  O          9.5500   -2.5390   -3.2490 O.3     1  UNL1       -0.4810
      5  H         10.3100   -2.6260   -2.5690 H       1  UNL1        0.2960
      6  C          7.0320   -0.0670   -2.0670 C.3     1  UNL1        0.0470
      7  C          6.4580    0.1010   -0.7330 C.2     1  UNL1       -0.0470
      8  C          5.8020    1.2610   -0.3910 C.2     1  UNL1        0.0040
      9  C          6.5780   -0.9180    0.1830 C.2     1  UNL1        0.0040
     10  C          5.2780    1.3520    0.9000 C.2     1  UNL1        0.0000
     11  C          6.0590   -0.8260    1.4590 C.2     1  UNL1        0.0000
     12  C          5.4010    0.3330    1.8100 C.2     1  UNL1        0.0000
@<TRIPOS>BOND
     1     4     2    1
     2     4     5    1
     3     3     2    2
     4     2     1    1
     5     1     6    1
     6     6     7    1
     7     7     8    2
     8     7     9    1
     9     8    10    1
    10     9    11    2
    11    10    12    2
    12    11    12    1
