@<TRIPOS>MOLECULE
/home/cewinharhar/GITHUB/reincatalyze/data/processed/docking_pred/2023-May-02-0947_maxeplen10_maxtrainstep1000_seadep32_gamma099_lrac9e-4_lrcr1e-3/b9a0748b4c4cb53be71f33acfe76cbadf25e0c0f_ligand_2.pdbqt
 12 12 0 0 0
SMALL
GASTEIGER

@<TRIPOS>ATOM
      1  C          8.0930   -0.8390   -2.1590 C.3     1  UNL1        0.1270
      2  C          8.4310   -1.9990   -3.0170 C.2     1  UNL1        0.3030
      3  O          9.6210   -2.3650   -3.1770 O.2     1  UNL1       -0.2520
      4  O          7.4380   -2.7140   -3.6680 O.3     1  UNL1       -0.4810
      5  H          7.6470   -3.1560   -4.5670 H       1  UNL1        0.2960
      6  C          6.7540   -1.0900   -1.5340 C.3     1  UNL1        0.0470
      7  C          6.4540   -0.2160   -0.4020 C.2     1  UNL1       -0.0470
      8  C          6.4570    1.1520   -0.5490 C.2     1  UNL1        0.0040
      9  C          6.1630   -0.7760    0.8200 C.2     1  UNL1        0.0040
     10  C          6.1600    1.9260    0.5760 C.2     1  UNL1        0.0000
     11  C          5.8700   -0.0100    1.9310 C.2     1  UNL1        0.0000
     12  C          5.8720    1.3610    1.7920 C.2     1  UNL1        0.0000
@<TRIPOS>BOND
     1     5     4    1
     2     4     2    1
     3     3     2    2
     4     2     1    1
     5     1     6    1
     6     6     7    1
     7     8     7    2
     8     8    10    1
     9     7     9    1
    10    10    12    2
    11     9    11    2
    12    12    11    1
