@<TRIPOS>MOLECULE
/home/cewinharhar/GITHUB/reincatalyze/data/processed/docking_pred/2023-May-02-0947_maxeplen10_maxtrainstep1000_seadep32_gamma099_lrac9e-4_lrcr1e-3/ba254a63d1f23417312e0ffefa4719b754a9a4bf_ligand_2.pdbqt
 12 12 0 0 0
SMALL
GASTEIGER

@<TRIPOS>ATOM
      1  C          8.3210   -0.6980   -2.1570 C.3     1  UNL1        0.1270
      2  C          8.4420   -1.9560   -2.9310 C.2     1  UNL1        0.3030
      3  O          9.5570   -2.5050   -3.1110 O.2     1  UNL1       -0.2520
      4  O          7.3230   -2.5630   -3.4790 O.3     1  UNL1       -0.4810
      5  H          6.6430   -3.0120   -2.8600 H       1  UNL1        0.2960
      6  C          6.8940   -0.5450   -1.7270 C.3     1  UNL1        0.0470
      7  C          6.6860   -0.7070   -0.2890 C.2     1  UNL1       -0.0470
      8  C          7.2880   -1.7360    0.3970 C.2     1  UNL1        0.0040
      9  C          5.8800    0.1870    0.3770 C.2     1  UNL1        0.0040
     10  C          7.0460   -1.8290    1.7700 C.2     1  UNL1        0.0000
     11  C          5.6410    0.0930    1.7340 C.2     1  UNL1        0.0000
     12  C          6.2390   -0.9350    2.4290 C.2     1  UNL1        0.0000
@<TRIPOS>BOND
     1     4     2    1
     2     4     5    1
     3     3     2    2
     4     2     1    1
     5     1     6    1
     6     6     7    1
     7     7     9    2
     8     7     8    1
     9     9    11    1
    10     8    10    2
    11    11    12    2
    12    10    12    1
