@<TRIPOS>MOLECULE
/home/cewinharhar/GITHUB/reincatalyze/data/processed/docking_pred/2023-May-02-0947_maxeplen10_maxtrainstep1000_seadep32_gamma099_lrac9e-4_lrcr1e-3/ba254a63d1f23417312e0ffefa4719b754a9a4bf_ligand_2.pdbqt
 12 12 0 0 0
SMALL
GASTEIGER

@<TRIPOS>ATOM
      1  C          5.9250   -0.8940    1.7650 C.3     1  UNL1        0.1270
      2  C          5.3690    0.4520    2.0440 C.2     1  UNL1        0.3030
      3  O          4.1940    0.5960    2.4640 O.2     1  UNL1       -0.2520
      4  O          6.1340    1.5900    1.8480 O.3     1  UNL1       -0.4810
      5  H          5.8240    2.2900    1.1680 H       1  UNL1        0.2960
      6  C          7.3890   -0.7490    1.4820 C.3     1  UNL1        0.0470
      7  C          7.7130   -0.6510    0.0600 C.2     1  UNL1       -0.0470
      8  C          8.8540   -0.0070   -0.3590 C.2     1  UNL1        0.0040
      9  C          6.8620   -1.2150   -0.8620 C.2     1  UNL1        0.0040
     10  C          9.1010    0.0470   -1.7320 C.2     1  UNL1        0.0000
     11  C          7.1080   -1.1610   -2.2200 C.2     1  UNL1        0.0000
     12  C          8.2480   -0.5170   -2.6480 C.2     1  UNL1        0.0000
@<TRIPOS>BOND
     1    12    11    2
     2    12    10    1
     3    11     9    1
     4    10     8    2
     5     9     7    2
     6     8     7    1
     7     7     6    1
     8     5     4    1
     9     6     1    1
    10     1     2    1
    11     4     2    1
    12     2     3    2
