MODEL 1
REMARK VINA RESULT:      -6.4      0.000      0.000
REMARK SMILES O=C(O)CCc1ccccc1
REMARK SMILES IDX 4 1 2 2 1 3 3 4 5 6 6 7 7 8 11 9 8 10 10 11 9 12
REMARK H PARENT 3 5
REMARK Flexibility Score: inf
ROOT
ATOM      1  C   UNL     1       8.321  -0.698  -2.157  1.00  0.00     0.127 C 
ENDROOT
BRANCH   1   2
ATOM      2  C   UNL     1       8.442  -1.956  -2.931  1.00  0.00     0.303 C 
ATOM      3  O   UNL     1       9.557  -2.505  -3.111  1.00  0.00    -0.252 OA
BRANCH   2   4
ATOM      4  O   UNL     1       7.323  -2.563  -3.479  1.00  0.00    -0.481 OA
ATOM      5  H   UNL     1       6.643  -3.012  -2.860  1.00  0.00     0.296 HD
ENDBRANCH   2   4
ENDBRANCH   1   2
BRANCH   1   6
ATOM      6  C   UNL     1       6.894  -0.545  -1.727  1.00  0.00     0.047 C 
BRANCH   6   7
ATOM      7  C   UNL     1       6.686  -0.707  -0.289  1.00  0.00    -0.047 A 
ATOM      8  C   UNL     1       7.288  -1.736   0.397  1.00  0.00     0.004 A 
ATOM      9  C   UNL     1       5.880   0.187   0.377  1.00  0.00     0.004 A 
ATOM     10  C   UNL     1       7.046  -1.829   1.770  1.00  0.00     0.000 A 
ATOM     11  C   UNL     1       5.641   0.093   1.734  1.00  0.00     0.000 A 
ATOM     12  C   UNL     1       6.239  -0.935   2.429  1.00  0.00     0.000 A 
ENDBRANCH   6   7
ENDBRANCH   1   6
TORSDOF 4
ENDMDL
MODEL 2
REMARK VINA RESULT:      -6.3      3.197      4.948
REMARK SMILES O=C(O)CCc1ccccc1
REMARK SMILES IDX 4 1 2 2 1 3 3 4 5 6 6 7 7 8 11 9 8 10 10 11 9 12
REMARK H PARENT 3 5
REMARK Flexibility Score: inf
ROOT
ATOM      1  C   UNL     1       5.925  -0.894   1.765  1.00  0.00     0.127 C 
ENDROOT
BRANCH   1   2
ATOM      2  C   UNL     1       5.369   0.452   2.044  1.00  0.00     0.303 C 
ATOM      3  O   UNL     1       4.194   0.596   2.464  1.00  0.00    -0.252 OA
BRANCH   2   4
ATOM      4  O   UNL     1       6.134   1.590   1.848  1.00  0.00    -0.481 OA
ATOM      5  H   UNL     1       5.824   2.290   1.168  1.00  0.00     0.296 HD
ENDBRANCH   2   4
ENDBRANCH   1   2
BRANCH   1   6
ATOM      6  C   UNL     1       7.389  -0.749   1.482  1.00  0.00     0.047 C 
BRANCH   6   7
ATOM      7  C   UNL     1       7.713  -0.651   0.060  1.00  0.00    -0.047 A 
ATOM      8  C   UNL     1       8.854  -0.007  -0.359  1.00  0.00     0.004 A 
ATOM      9  C   UNL     1       6.862  -1.215  -0.862  1.00  0.00     0.004 A 
ATOM     10  C   UNL     1       9.101   0.047  -1.732  1.00  0.00     0.000 A 
ATOM     11  C   UNL     1       7.108  -1.161  -2.220  1.00  0.00     0.000 A 
ATOM     12  C   UNL     1       8.248  -0.517  -2.648  1.00  0.00     0.000 A 
ENDBRANCH   6   7
ENDBRANCH   1   6
TORSDOF 4
ENDMDL
MODEL 3
REMARK VINA RESULT:      -6.1      3.454      5.111
REMARK SMILES O=C(O)CCc1ccccc1
REMARK SMILES IDX 4 1 2 2 1 3 3 4 5 6 6 7 7 8 11 9 8 10 10 11 9 12
REMARK H PARENT 3 5
REMARK Flexibility Score: inf
ROOT
ATOM      1  C   UNL     1       5.112  -0.131   2.058  1.00  0.00     0.127 C 
ENDROOT
BRANCH   1   2
ATOM      2  C   UNL     1       4.436   1.186   1.990  1.00  0.00     0.303 C 
ATOM      3  O   UNL     1       4.968   2.162   1.406  1.00  0.00    -0.252 OA
BRANCH   2   4
ATOM      4  O   UNL     1       3.192   1.376   2.572  1.00  0.00    -0.481 OA
ATOM      5  H   UNL     1       3.122   1.919   3.437  1.00  0.00     0.296 HD
ENDBRANCH   2   4
ENDBRANCH   1   2
BRANCH   1   6
ATOM      6  C   UNL     1       6.562   0.067   1.735  1.00  0.00     0.047 C 
BRANCH   6   7
ATOM      7  C   UNL     1       7.020  -0.691   0.572  1.00  0.00    -0.047 A 
ATOM      8  C   UNL     1       6.621  -0.343  -0.697  1.00  0.00     0.004 A 
ATOM      9  C   UNL     1       7.862  -1.763   0.760  1.00  0.00     0.004 A 
ATOM     10  C   UNL     1       7.099  -1.111  -1.761  1.00  0.00     0.000 A 
ATOM     11  C   UNL     1       8.334  -2.522  -0.293  1.00  0.00     0.000 A 
ATOM     12  C   UNL     1       7.938  -2.180  -1.568  1.00  0.00     0.000 A 
ENDBRANCH   6   7
ENDBRANCH   1   6
TORSDOF 4
ENDMDL
