@<TRIPOS>MOLECULE
/home/cewinharhar/GITHUB/reincatalyze/data/processed/docking_pred/2023-May-02-0947_maxeplen10_maxtrainstep1000_seadep32_gamma099_lrac9e-4_lrcr1e-3/ba254a63d1f23417312e0ffefa4719b754a9a4bf_ligand_2.pdbqt
 12 12 0 0 0
SMALL
GASTEIGER

@<TRIPOS>ATOM
      1  C          5.1120   -0.1310    2.0580 C.3     1  UNL1        0.1270
      2  C          4.4360    1.1860    1.9900 C.2     1  UNL1        0.3030
      3  O          4.9680    2.1620    1.4060 O.2     1  UNL1       -0.2520
      4  O          3.1920    1.3760    2.5720 O.3     1  UNL1       -0.4810
      5  H          3.1220    1.9190    3.4370 H       1  UNL1        0.2960
      6  C          6.5620    0.0670    1.7350 C.3     1  UNL1        0.0470
      7  C          7.0200   -0.6910    0.5720 C.2     1  UNL1       -0.0470
      8  C          6.6210   -0.3430   -0.6970 C.2     1  UNL1        0.0040
      9  C          7.8620   -1.7630    0.7600 C.2     1  UNL1        0.0040
     10  C          7.0990   -1.1110   -1.7610 C.2     1  UNL1        0.0000
     11  C          8.3340   -2.5220   -0.2930 C.2     1  UNL1        0.0000
     12  C          7.9380   -2.1800   -1.5680 C.2     1  UNL1        0.0000
@<TRIPOS>BOND
     1    10    12    2
     2    10     8    1
     3    12    11    1
     4     8     7    2
     5    11     9    2
     6     7     9    1
     7     7     6    1
     8     3     2    2
     9     6     1    1
    10     2     1    1
    11     2     4    1
    12     4     5    1
