@<TRIPOS>MOLECULE
/home/cewinharhar/GITHUB/reincatalyze/data/processed/docking_pred/2023-May-02-0947_maxeplen10_maxtrainstep1000_seadep32_gamma099_lrac9e-4_lrcr1e-3/bb509c9d750c31c787a0dfaad7ceec12964b61ea_ligand_2.pdbqt
 12 12 0 0 0
SMALL
GASTEIGER

@<TRIPOS>ATOM
      1  C          8.3100   -0.6780   -2.1710 C.3     1  UNL1        0.1270
      2  C          8.4330   -1.9450   -2.9310 C.2     1  UNL1        0.3030
      3  O          9.5480   -2.4950   -3.1030 O.2     1  UNL1       -0.2520
      4  O          7.3150   -2.5570   -3.4740 O.3     1  UNL1       -0.4810
      5  H          6.4940   -2.7160   -2.8840 H       1  UNL1        0.2960
      6  C          6.8850   -0.5260   -1.7350 C.3     1  UNL1        0.0470
      7  C          6.6810   -0.6950   -0.2980 C.2     1  UNL1       -0.0470
      8  C          7.2870   -1.7270    0.3820 C.2     1  UNL1        0.0040
      9  C          5.8740    0.1930    0.3750 C.2     1  UNL1        0.0040
     10  C          7.0480   -1.8270    1.7550 C.2     1  UNL1        0.0000
     11  C          5.6390    0.0920    1.7320 C.2     1  UNL1        0.0000
     12  C          6.2420   -0.9380    2.4200 C.2     1  UNL1        0.0000
@<TRIPOS>BOND
     1     4     2    1
     2     4     5    1
     3     3     2    2
     4     2     1    1
     5     1     6    1
     6     6     7    1
     7     7     9    2
     8     7     8    1
     9     9    11    1
    10     8    10    2
    11    11    12    2
    12    10    12    1
