@<TRIPOS>MOLECULE
/home/cewinharhar/GITHUB/reincatalyze/data/processed/docking_pred/2023-May-02-0947_maxeplen10_maxtrainstep1000_seadep32_gamma099_lrac9e-4_lrcr1e-3/bb509c9d750c31c787a0dfaad7ceec12964b61ea_ligand_2.pdbqt
 12 12 0 0 0
SMALL
GASTEIGER

@<TRIPOS>ATOM
      1  C          5.0200   -0.1160    1.9920 C.3     1  UNL1        0.1270
      2  C          4.3500    1.2050    1.9520 C.2     1  UNL1        0.3030
      3  O          4.8590    2.1740    1.3360 O.2     1  UNL1       -0.2520
      4  O          3.1400    1.4080    2.5960 O.3     1  UNL1       -0.4810
      5  H          2.6920    2.3270    2.5430 H       1  UNL1        0.2960
      6  C          6.4770    0.0860    1.7090 C.3     1  UNL1        0.0470
      7  C          6.9790   -0.7010    0.5850 C.2     1  UNL1       -0.0470
      8  C          6.6470   -0.3720   -0.7090 C.2     1  UNL1        0.0040
      9  C          7.7950   -1.7820    0.8330 C.2     1  UNL1        0.0040
     10  C          7.1640   -1.1680   -1.7330 C.2     1  UNL1        0.0000
     11  C          8.3040   -2.5680   -0.1820 C.2     1  UNL1        0.0000
     12  C          7.9760   -2.2450   -1.4800 C.2     1  UNL1        0.0000
@<TRIPOS>BOND
     1    10    12    2
     2    10     8    1
     3    12    11    1
     4     8     7    2
     5    11     9    2
     6     7     9    1
     7     7     6    1
     8     3     2    2
     9     6     1    1
    10     2     1    1
    11     2     4    1
    12     5     4    1
