MODEL 1
REMARK VINA RESULT:      -6.4      0.000      0.000
REMARK SMILES O=C(O)CCc1ccccc1
REMARK SMILES IDX 4 1 2 2 1 3 3 4 5 6 6 7 7 8 11 9 8 10 10 11 9 12
REMARK H PARENT 3 5
REMARK Flexibility Score: inf
ROOT
ATOM      1  C   UNL     1       8.310  -0.678  -2.171  1.00  0.00     0.127 C 
ENDROOT
BRANCH   1   2
ATOM      2  C   UNL     1       8.433  -1.945  -2.931  1.00  0.00     0.303 C 
ATOM      3  O   UNL     1       9.548  -2.495  -3.103  1.00  0.00    -0.252 OA
BRANCH   2   4
ATOM      4  O   UNL     1       7.315  -2.557  -3.474  1.00  0.00    -0.481 OA
ATOM      5  H   UNL     1       6.494  -2.716  -2.884  1.00  0.00     0.296 HD
ENDBRANCH   2   4
ENDBRANCH   1   2
BRANCH   1   6
ATOM      6  C   UNL     1       6.885  -0.526  -1.735  1.00  0.00     0.047 C 
BRANCH   6   7
ATOM      7  C   UNL     1       6.681  -0.695  -0.298  1.00  0.00    -0.047 A 
ATOM      8  C   UNL     1       7.287  -1.727   0.382  1.00  0.00     0.004 A 
ATOM      9  C   UNL     1       5.874   0.193   0.375  1.00  0.00     0.004 A 
ATOM     10  C   UNL     1       7.048  -1.827   1.755  1.00  0.00     0.000 A 
ATOM     11  C   UNL     1       5.639   0.092   1.732  1.00  0.00     0.000 A 
ATOM     12  C   UNL     1       6.242  -0.938   2.420  1.00  0.00     0.000 A 
ENDBRANCH   6   7
ENDBRANCH   1   6
TORSDOF 4
ENDMDL
MODEL 2
REMARK VINA RESULT:      -6.2      3.198      4.946
REMARK SMILES O=C(O)CCc1ccccc1
REMARK SMILES IDX 4 1 2 2 1 3 3 4 5 6 6 7 7 8 11 9 8 10 10 11 9 12
REMARK H PARENT 3 5
REMARK Flexibility Score: inf
ROOT
ATOM      1  C   UNL     1       5.902  -0.890   1.741  1.00  0.00     0.127 C 
ENDROOT
BRANCH   1   2
ATOM      2  C   UNL     1       5.351   0.452   2.041  1.00  0.00     0.303 C 
ATOM      3  O   UNL     1       4.183   0.593   2.481  1.00  0.00    -0.252 OA
BRANCH   2   4
ATOM      4  O   UNL     1       6.112   1.593   1.841  1.00  0.00    -0.481 OA
ATOM      5  H   UNL     1       6.959   1.734   2.398  1.00  0.00     0.296 HD
ENDBRANCH   2   4
ENDBRANCH   1   2
BRANCH   1   6
ATOM      6  C   UNL     1       7.369  -0.748   1.471  1.00  0.00     0.047 C 
BRANCH   6   7
ATOM      7  C   UNL     1       7.705  -0.650   0.052  1.00  0.00    -0.047 A 
ATOM      8  C   UNL     1       8.849  -0.006  -0.358  1.00  0.00     0.004 A 
ATOM      9  C   UNL     1       6.862  -1.214  -0.878  1.00  0.00     0.004 A 
ATOM     10  C   UNL     1       9.108   0.048  -1.729  1.00  0.00     0.000 A 
ATOM     11  C   UNL     1       7.119  -1.159  -2.234  1.00  0.00     0.000 A 
ATOM     12  C   UNL     1       8.263  -0.515  -2.652  1.00  0.00     0.000 A 
ENDBRANCH   6   7
ENDBRANCH   1   6
TORSDOF 4
ENDMDL
MODEL 3
REMARK VINA RESULT:      -6.0      3.468      5.110
REMARK SMILES O=C(O)CCc1ccccc1
REMARK SMILES IDX 4 1 2 2 1 3 3 4 5 6 6 7 7 8 11 9 8 10 10 11 9 12
REMARK H PARENT 3 5
REMARK Flexibility Score: inf
ROOT
ATOM      1  C   UNL     1       5.020  -0.116   1.992  1.00  0.00     0.127 C 
ENDROOT
BRANCH   1   2
ATOM      2  C   UNL     1       4.350   1.205   1.952  1.00  0.00     0.303 C 
ATOM      3  O   UNL     1       4.859   2.174   1.336  1.00  0.00    -0.252 OA
BRANCH   2   4
ATOM      4  O   UNL     1       3.140   1.408   2.596  1.00  0.00    -0.481 OA
ATOM      5  H   UNL     1       2.692   2.327   2.543  1.00  0.00     0.296 HD
ENDBRANCH   2   4
ENDBRANCH   1   2
BRANCH   1   6
ATOM      6  C   UNL     1       6.477   0.086   1.709  1.00  0.00     0.047 C 
BRANCH   6   7
ATOM      7  C   UNL     1       6.979  -0.701   0.585  1.00  0.00    -0.047 A 
ATOM      8  C   UNL     1       6.647  -0.372  -0.709  1.00  0.00     0.004 A 
ATOM      9  C   UNL     1       7.795  -1.782   0.833  1.00  0.00     0.004 A 
ATOM     10  C   UNL     1       7.164  -1.168  -1.733  1.00  0.00     0.000 A 
ATOM     11  C   UNL     1       8.304  -2.568  -0.182  1.00  0.00     0.000 A 
ATOM     12  C   UNL     1       7.976  -2.245  -1.480  1.00  0.00     0.000 A 
ENDBRANCH   6   7
ENDBRANCH   1   6
TORSDOF 4
ENDMDL
