@<TRIPOS>MOLECULE
/home/cewinharhar/GITHUB/reincatalyze/data/processed/docking_pred/2023-May-02-0947_maxeplen10_maxtrainstep1000_seadep32_gamma099_lrac9e-4_lrcr1e-3/bb509c9d750c31c787a0dfaad7ceec12964b61ea_ligand_2.pdbqt
 12 12 0 0 0
SMALL
GASTEIGER

@<TRIPOS>ATOM
      1  C          5.9020   -0.8900    1.7410 C.3     1  UNL1        0.1270
      2  C          5.3510    0.4520    2.0410 C.2     1  UNL1        0.3030
      3  O          4.1830    0.5930    2.4810 O.2     1  UNL1       -0.2520
      4  O          6.1120    1.5930    1.8410 O.3     1  UNL1       -0.4810
      5  H          6.9590    1.7340    2.3980 H       1  UNL1        0.2960
      6  C          7.3690   -0.7480    1.4710 C.3     1  UNL1        0.0470
      7  C          7.7050   -0.6500    0.0520 C.2     1  UNL1       -0.0470
      8  C          8.8490   -0.0060   -0.3580 C.2     1  UNL1        0.0040
      9  C          6.8620   -1.2140   -0.8780 C.2     1  UNL1        0.0040
     10  C          9.1080    0.0480   -1.7290 C.2     1  UNL1        0.0000
     11  C          7.1190   -1.1590   -2.2340 C.2     1  UNL1        0.0000
     12  C          8.2630   -0.5150   -2.6520 C.2     1  UNL1        0.0000
@<TRIPOS>BOND
     1    12    11    2
     2    12    10    1
     3    11     9    1
     4    10     8    2
     5     9     7    2
     6     8     7    1
     7     7     6    1
     8     6     1    1
     9     1     2    1
    10     4     2    1
    11     4     5    1
    12     2     3    2
