@<TRIPOS>MOLECULE
/home/cewinharhar/GITHUB/reincatalyze/data/processed/docking_pred/2023-May-02-0947_maxeplen10_maxtrainstep1000_seadep32_gamma099_lrac9e-4_lrcr1e-3/bb8285001221c2ec88d34c7e342a921234d5c761_ligand_2.pdbqt
 12 12 0 0 0
SMALL
GASTEIGER

@<TRIPOS>ATOM
      1  C          8.4720   -0.6590   -2.0790 C.3     1  UNL1        0.1270
      2  C          8.4940   -1.9060   -2.8780 C.2     1  UNL1        0.3030
      3  O          9.5670   -2.5220   -3.0950 O.2     1  UNL1       -0.2520
      4  O          7.3260   -2.4300   -3.4100 O.3     1  UNL1       -0.4810
      5  H          6.7120   -2.9910   -2.8130 H       1  UNL1        0.2960
      6  C          7.0770   -0.1130   -2.0960 C.3     1  UNL1        0.0470
      7  C          6.4950    0.0700   -0.7670 C.2     1  UNL1       -0.0470
      8  C          5.8410    1.2350   -0.4400 C.2     1  UNL1        0.0040
      9  C          6.6050   -0.9410    0.1590 C.2     1  UNL1        0.0040
     10  C          5.3080    1.3400    0.8470 C.2     1  UNL1        0.0000
     11  C          6.0790   -0.8360    1.4310 C.2     1  UNL1        0.0000
     12  C          5.4220    0.3290    1.7670 C.2     1  UNL1        0.0000
@<TRIPOS>BOND
     1     4     2    1
     2     4     5    1
     3     3     2    2
     4     2     1    1
     5     6     1    1
     6     6     7    1
     7     7     8    2
     8     7     9    1
     9     8    10    1
    10     9    11    2
    11    10    12    2
    12    11    12    1
