MODEL 1
REMARK VINA RESULT:      -7.3      0.000      0.000
REMARK SMILES O=C(O)CCc1ccccc1
REMARK SMILES IDX 4 1 2 2 1 3 3 4 5 6 6 7 7 8 11 9 8 10 10 11 9 12
REMARK H PARENT 3 5
REMARK Flexibility Score: inf
ROOT
ATOM      1  C   UNL     1       8.400  -0.643  -2.093  1.00  0.00     0.127 C 
ENDROOT
BRANCH   1   2
ATOM      2  C   UNL     1       8.371  -1.895  -2.885  1.00  0.00     0.303 C 
ATOM      3  O   UNL     1       7.285  -2.410  -3.249  1.00  0.00    -0.252 OA
BRANCH   2   4
ATOM      4  O   UNL     1       9.547  -2.535  -3.245  1.00  0.00    -0.481 OA
ATOM      5  H   UNL     1       9.511  -3.310  -3.913  1.00  0.00     0.296 HD
ENDBRANCH   2   4
ENDBRANCH   1   2
BRANCH   1   6
ATOM      6  C   UNL     1       7.019  -0.062  -2.080  1.00  0.00     0.047 C 
BRANCH   6   7
ATOM      7  C   UNL     1       6.454   0.098  -0.741  1.00  0.00    -0.047 A 
ATOM      8  C   UNL     1       5.802   1.256  -0.386  1.00  0.00     0.004 A 
ATOM      9  C   UNL     1       6.579  -0.927   0.168  1.00  0.00     0.004 A 
ATOM     10  C   UNL     1       5.287   1.340   0.909  1.00  0.00     0.000 A 
ATOM     11  C   UNL     1       6.070  -0.843   1.448  1.00  0.00     0.000 A 
ATOM     12  C   UNL     1       5.416   0.314   1.811  1.00  0.00     0.000 A 
ENDBRANCH   6   7
ENDBRANCH   1   6
TORSDOF 4
ENDMDL
