@<TRIPOS>MOLECULE
/home/cewinharhar/GITHUB/reincatalyze/data/processed/docking_pred/2023-May-02-0947_maxeplen10_maxtrainstep1000_seadep32_gamma099_lrac9e-4_lrcr1e-3/bf1bd72bf83e0bbc7f208f1f88a3802cf16c22f1_ligand_2.pdbqt
 12 12 0 0 0
SMALL
GASTEIGER

@<TRIPOS>ATOM
      1  C          8.4060   -0.6620   -2.0690 C.3     1  UNL1        0.1270
      2  C          8.3740   -1.9060   -2.8740 C.2     1  UNL1        0.3030
      3  O          7.2870   -2.4100   -3.2510 O.2     1  UNL1       -0.2520
      4  O          9.5480   -2.5490   -3.2350 O.3     1  UNL1       -0.4810
      5  H          9.9770   -3.2100   -2.5820 H       1  UNL1        0.2960
      6  C          7.0300   -0.0690   -2.0660 C.3     1  UNL1        0.0470
      7  C          6.4590    0.1010   -0.7310 C.2     1  UNL1       -0.0470
      8  C          5.8050    1.2620   -0.3880 C.2     1  UNL1        0.0040
      9  C          6.5800   -0.9180    0.1850 C.2     1  UNL1        0.0040
     10  C          5.2830    1.3540    0.9040 C.2     1  UNL1        0.0000
     11  C          6.0640   -0.8240    1.4630 C.2     1  UNL1        0.0000
     12  C          5.4080    0.3350    1.8140 C.2     1  UNL1        0.0000
@<TRIPOS>BOND
     1     3     2    2
     2     4     2    1
     3     4     5    1
     4     2     1    1
     5     1     6    1
     6     6     7    1
     7     7     8    2
     8     7     9    1
     9     8    10    1
    10     9    11    2
    11    10    12    2
    12    11    12    1
