@<TRIPOS>MOLECULE
/home/cewinharhar/GITHUB/reincatalyze/data/processed/docking_pred/2023-May-02-0947_maxeplen10_maxtrainstep1000_seadep32_gamma099_lrac9e-4_lrcr1e-3/bfaa3bc067c86e8b5ef89a85d12e30cfe25fe09e_ligand_2.pdbqt
 12 12 0 0 0
SMALL
GASTEIGER

@<TRIPOS>ATOM
      1  C          7.2720   -1.2740   -2.1620 C.3     1  UNL1        0.1270
      2  C          8.7120   -1.3360   -2.5060 C.2     1  UNL1        0.3030
      3  O          9.5200   -0.4730   -2.0830 O.2     1  UNL1       -0.2520
      4  O          9.2070   -2.3520   -3.3080 O.3     1  UNL1       -0.4810
      5  H          9.6510   -2.1150   -4.2000 H       1  UNL1        0.2960
      6  C          7.1400   -1.3620   -0.6720 C.3     1  UNL1        0.0470
      7  C          6.3830   -0.2630   -0.0760 C.2     1  UNL1       -0.0470
      8  C          5.9250   -0.3450    1.2190 C.2     1  UNL1        0.0040
      9  C          6.1320    0.8630   -0.8250 C.2     1  UNL1        0.0040
     10  C          5.2100    0.7430    1.7230 C.2     1  UNL1        0.0000
     11  C          5.4240    1.9380   -0.3250 C.2     1  UNL1        0.0000
     12  C          4.9610    1.8630    0.9710 C.2     1  UNL1        0.0000
@<TRIPOS>BOND
     1     5     4    1
     2     4     2    1
     3     2     1    1
     4     2     3    2
     5     1     6    1
     6     9    11    1
     7     9     7    2
     8     6     7    1
     9    11    12    2
    10     7     8    1
    11    12    10    1
    12     8    10    2
