MODEL 1
REMARK VINA RESULT:      -7.1      0.000      0.000
REMARK SMILES O=C(O)CCc1ccccc1
REMARK SMILES IDX 4 1 2 2 1 3 3 4 5 6 6 7 7 8 11 9 8 10 10 11 9 12
REMARK H PARENT 3 5
REMARK Flexibility Score: inf
ROOT
ATOM      1  C   UNL     1       8.433  -0.644  -2.129  1.00  0.00     0.127 C 
ENDROOT
BRANCH   1   2
ATOM      2  C   UNL     1       8.465  -1.903  -2.908  1.00  0.00     0.303 C 
ATOM      3  O   UNL     1       9.538  -2.532  -3.085  1.00  0.00    -0.252 OA
BRANCH   2   4
ATOM      4  O   UNL     1       7.308  -2.423  -3.466  1.00  0.00    -0.481 OA
ATOM      5  H   UNL     1       7.200  -2.425  -4.484  1.00  0.00     0.296 HD
ENDBRANCH   2   4
ENDBRANCH   1   2
BRANCH   1   6
ATOM      6  C   UNL     1       7.025  -0.134  -2.116  1.00  0.00     0.047 C 
BRANCH   6   7
ATOM      7  C   UNL     1       6.471   0.051  -0.775  1.00  0.00    -0.047 A 
ATOM      8  C   UNL     1       5.829   1.219  -0.434  1.00  0.00     0.004 A 
ATOM      9  C   UNL     1       6.598  -0.961   0.148  1.00  0.00     0.004 A 
ATOM     10  C   UNL     1       5.324   1.326   0.864  1.00  0.00     0.000 A 
ATOM     11  C   UNL     1       6.098  -0.853   1.431  1.00  0.00     0.000 A 
ATOM     12  C   UNL     1       5.454   0.314   1.781  1.00  0.00     0.000 A 
ENDBRANCH   6   7
ENDBRANCH   1   6
TORSDOF 4
ENDMDL
MODEL 2
REMARK VINA RESULT:      -6.8      1.389      1.978
REMARK SMILES O=C(O)CCc1ccccc1
REMARK SMILES IDX 4 1 2 2 1 3 3 4 5 6 6 7 7 8 11 9 8 10 10 11 9 12
REMARK H PARENT 3 5
REMARK Flexibility Score: inf
ROOT
ATOM      1  C   UNL     1       8.259  -0.489  -2.329  1.00  0.00     0.127 C 
ENDROOT
BRANCH   1   2
ATOM      2  C   UNL     1       8.379  -1.826  -2.956  1.00  0.00     0.303 C 
ATOM      3  O   UNL     1       9.492  -2.399  -3.060  1.00  0.00    -0.252 OA
BRANCH   2   4
ATOM      4  O   UNL     1       7.262  -2.483  -3.447  1.00  0.00    -0.481 OA
ATOM      5  H   UNL     1       6.371  -1.982  -3.504  1.00  0.00     0.296 HD
ENDBRANCH   2   4
ENDBRANCH   1   2
BRANCH   1   6
ATOM      6  C   UNL     1       7.028  -0.479  -1.474  1.00  0.00     0.047 C 
BRANCH   6   7
ATOM      7  C   UNL     1       6.840   0.758  -0.717  1.00  0.00    -0.047 A 
ATOM      8  C   UNL     1       7.899   1.357  -0.075  1.00  0.00     0.004 A 
ATOM      9  C   UNL     1       5.587   1.322  -0.654  1.00  0.00     0.004 A 
ATOM     10  C   UNL     1       7.646   2.537   0.629  1.00  0.00     0.000 A 
ATOM     11  C   UNL     1       5.340   2.489   0.042  1.00  0.00     0.000 A 
ATOM     12  C   UNL     1       6.394   3.095   0.689  1.00  0.00     0.000 A 
ENDBRANCH   6   7
ENDBRANCH   1   6
TORSDOF 4
ENDMDL
