@<TRIPOS>MOLECULE
/home/cewinharhar/GITHUB/reincatalyze/data/processed/docking_pred/2023-May-02-0947_maxeplen10_maxtrainstep1000_seadep32_gamma099_lrac9e-4_lrcr1e-3/c054a7f490e8e5c171bc57af56a9ae5cb4d717f8_ligand_2.pdbqt
 12 12 0 0 0
SMALL
GASTEIGER

@<TRIPOS>ATOM
      1  C          8.2590   -0.4890   -2.3290 C.3     1  UNL1        0.1270
      2  C          8.3790   -1.8260   -2.9560 C.2     1  UNL1        0.3030
      3  O          9.4920   -2.3990   -3.0600 O.2     1  UNL1       -0.2520
      4  O          7.2620   -2.4830   -3.4470 O.3     1  UNL1       -0.4810
      5  H          6.3710   -1.9820   -3.5040 H       1  UNL1        0.2960
      6  C          7.0280   -0.4790   -1.4740 C.3     1  UNL1        0.0470
      7  C          6.8400    0.7580   -0.7170 C.2     1  UNL1       -0.0470
      8  C          7.8990    1.3570   -0.0750 C.2     1  UNL1        0.0040
      9  C          5.5870    1.3220   -0.6540 C.2     1  UNL1        0.0040
     10  C          7.6460    2.5370    0.6290 C.2     1  UNL1        0.0000
     11  C          5.3400    2.4890    0.0420 C.2     1  UNL1        0.0000
     12  C          6.3940    3.0950    0.6890 C.2     1  UNL1        0.0000
@<TRIPOS>BOND
     1     5     4    1
     2     4     2    1
     3     3     2    2
     4     2     1    1
     5     1     6    1
     6     6     7    1
     7     7     9    2
     8     7     8    1
     9     9    11    1
    10     8    10    2
    11    11    12    2
    12    10    12    1
