@<TRIPOS>MOLECULE
/home/cewinharhar/GITHUB/reincatalyze/data/processed/docking_pred/2023-May-02-0947_maxeplen10_maxtrainstep1000_seadep32_gamma099_lrac9e-4_lrcr1e-3/c054a7f490e8e5c171bc57af56a9ae5cb4d717f8_ligand_2.pdbqt
 12 12 0 0 0
SMALL
GASTEIGER

@<TRIPOS>ATOM
      1  C          8.4330   -0.6440   -2.1290 C.3     1  UNL1        0.1270
      2  C          8.4650   -1.9030   -2.9080 C.2     1  UNL1        0.3030
      3  O          9.5380   -2.5320   -3.0850 O.2     1  UNL1       -0.2520
      4  O          7.3080   -2.4230   -3.4660 O.3     1  UNL1       -0.4810
      5  H          7.2000   -2.4250   -4.4840 H       1  UNL1        0.2960
      6  C          7.0250   -0.1340   -2.1160 C.3     1  UNL1        0.0470
      7  C          6.4710    0.0510   -0.7750 C.2     1  UNL1       -0.0470
      8  C          5.8290    1.2190   -0.4340 C.2     1  UNL1        0.0040
      9  C          6.5980   -0.9610    0.1480 C.2     1  UNL1        0.0040
     10  C          5.3240    1.3260    0.8640 C.2     1  UNL1        0.0000
     11  C          6.0980   -0.8530    1.4310 C.2     1  UNL1        0.0000
     12  C          5.4540    0.3140    1.7810 C.2     1  UNL1        0.0000
@<TRIPOS>BOND
     1     5     4    1
     2     4     2    1
     3     3     2    2
     4     2     1    1
     5     1     6    1
     6     6     7    1
     7     7     8    2
     8     7     9    1
     9     8    10    1
    10     9    11    2
    11    10    12    2
    12    11    12    1
