@<TRIPOS>MOLECULE
/home/cewinharhar/GITHUB/reincatalyze/data/processed/docking_pred/2023-May-02-0947_maxeplen10_maxtrainstep1000_seadep32_gamma099_lrac9e-4_lrcr1e-3/c2bbe2b0b698b4c34a14c6b9d782c5d04fb4e97c_ligand_2.pdbqt
 12 12 0 0 0
SMALL
GASTEIGER

@<TRIPOS>ATOM
      1  C          8.5660   -0.6020   -2.2680 C.3     1  UNL1        0.1270
      2  C          8.5450   -1.9120   -2.9610 C.2     1  UNL1        0.3030
      3  O          9.5990   -2.5740   -3.1320 O.2     1  UNL1       -0.2520
      4  O          7.3590   -2.4430   -3.4400 O.3     1  UNL1       -0.4810
      5  H          6.5660   -1.8200   -3.6150 H       1  UNL1        0.2960
      6  C          7.1580   -0.1000   -2.1690 C.3     1  UNL1        0.0470
      7  C          6.7470    0.2520   -0.8100 C.2     1  UNL1       -0.0470
      8  C          5.7690    1.1940   -0.5930 C.2     1  UNL1        0.0040
      9  C          7.3490   -0.3740    0.2560 C.2     1  UNL1        0.0040
     10  C          5.4260    1.4790    0.7300 C.2     1  UNL1        0.0000
     11  C          7.0090   -0.0910    1.5640 C.2     1  UNL1        0.0000
     12  C          6.0310    0.8530    1.7910 C.2     1  UNL1        0.0000
@<TRIPOS>BOND
     1     5     4    1
     2     4     2    1
     3     3     2    2
     4     2     1    1
     5     1     6    1
     6     6     7    1
     7     7     8    2
     8     7     9    1
     9     8    10    1
    10     9    11    2
    11    10    12    2
    12    11    12    1
