@<TRIPOS>MOLECULE
/home/cewinharhar/GITHUB/reincatalyze/data/processed/docking_pred/2023-May-02-0947_maxeplen10_maxtrainstep1000_seadep32_gamma099_lrac9e-4_lrcr1e-3/c2bbe2b0b698b4c34a14c6b9d782c5d04fb4e97c_ligand_2.pdbqt
 12 12 0 0 0
SMALL
GASTEIGER

@<TRIPOS>ATOM
      1  C          5.0230    1.7690    0.6500 C.3     1  UNL1        0.1270
      2  C          4.5830    1.1050    1.9000 C.2     1  UNL1        0.3030
      3  O          3.4660    1.3610    2.4150 O.2     1  UNL1       -0.2520
      4  O          5.3950    0.1810    2.5370 O.3     1  UNL1       -0.4810
      5  H          5.6300    0.3170    3.5240 H       1  UNL1        0.2960
      6  C          6.5190    1.8520    0.6630 C.3     1  UNL1        0.0470
      7  C          7.1670    1.0620   -0.3830 C.2     1  UNL1       -0.0470
      8  C          8.5010    1.2340   -0.6700 C.2     1  UNL1        0.0040
      9  C          6.4260    0.1370   -1.0820 C.2     1  UNL1        0.0040
     10  C          9.0540    0.4450   -1.6800 C.2     1  UNL1        0.0000
     11  C          6.9740   -0.6430   -2.0810 C.2     1  UNL1        0.0000
     12  C          8.3100   -0.4760   -2.3750 C.2     1  UNL1        0.0000
@<TRIPOS>BOND
     1    12    11    2
     2    12    10    1
     3    11     9    1
     4    10     8    2
     5     9     7    2
     6     8     7    1
     7     7     6    1
     8     1     6    1
     9     1     2    1
    10     2     3    2
    11     2     4    1
    12     4     5    1
