MODEL 1
REMARK VINA RESULT:      -7.3      0.000      0.000
REMARK SMILES O=C(O)CCc1ccccc1
REMARK SMILES IDX 4 1 2 2 1 3 3 4 5 6 6 7 7 8 11 9 8 10 10 11 9 12
REMARK H PARENT 3 5
REMARK Flexibility Score: inf
ROOT
ATOM      1  C   UNL     1       8.403  -0.660  -2.071  1.00  0.00     0.127 C 
ENDROOT
BRANCH   1   2
ATOM      2  C   UNL     1       8.372  -1.905  -2.874  1.00  0.00     0.303 C 
ATOM      3  O   UNL     1       7.285  -2.408  -3.253  1.00  0.00    -0.252 OA
BRANCH   2   4
ATOM      4  O   UNL     1       9.545  -2.550  -3.230  1.00  0.00    -0.481 OA
ATOM      5  H   UNL     1      10.087  -3.038  -2.510  1.00  0.00     0.296 HD
ENDBRANCH   2   4
ENDBRANCH   1   2
BRANCH   1   6
ATOM      6  C   UNL     1       7.026  -0.069  -2.066  1.00  0.00     0.047 C 
BRANCH   6   7
ATOM      7  C   UNL     1       6.457   0.102  -0.731  1.00  0.00    -0.047 A 
ATOM      8  C   UNL     1       5.801   1.262  -0.388  1.00  0.00     0.004 A 
ATOM      9  C   UNL     1       6.581  -0.915   0.187  1.00  0.00     0.004 A 
ATOM     10  C   UNL     1       5.282   1.356   0.905  1.00  0.00     0.000 A 
ATOM     11  C   UNL     1       6.067  -0.820   1.465  1.00  0.00     0.000 A 
ATOM     12  C   UNL     1       5.409   0.339   1.816  1.00  0.00     0.000 A 
ENDBRANCH   6   7
ENDBRANCH   1   6
TORSDOF 4
ENDMDL
MODEL 2
REMARK VINA RESULT:      -7.0      1.038      1.955
REMARK SMILES O=C(O)CCc1ccccc1
REMARK SMILES IDX 4 1 2 2 1 3 3 4 5 6 6 7 7 8 11 9 8 10 10 11 9 12
REMARK H PARENT 3 5
REMARK Flexibility Score: inf
ROOT
ATOM      1  C   UNL     1       7.251  -1.241  -2.185  1.00  0.00     0.127 C 
ENDROOT
BRANCH   1   2
ATOM      2  C   UNL     1       8.690  -1.299  -2.536  1.00  0.00     0.303 C 
ATOM      3  O   UNL     1       9.497  -0.432  -2.117  1.00  0.00    -0.252 OA
BRANCH   2   4
ATOM      4  O   UNL     1       9.185  -2.314  -3.339  1.00  0.00    -0.481 OA
ATOM      5  H   UNL     1       9.156  -2.206  -4.356  1.00  0.00     0.296 HD
ENDBRANCH   2   4
ENDBRANCH   1   2
BRANCH   1   6
ATOM      6  C   UNL     1       7.127  -1.324  -0.694  1.00  0.00     0.047 C 
BRANCH   6   7
ATOM      7  C   UNL     1       6.376  -0.220  -0.098  1.00  0.00    -0.047 A 
ATOM      8  C   UNL     1       5.945  -0.286   1.207  1.00  0.00     0.004 A 
ATOM      9  C   UNL     1       6.103   0.894  -0.858  1.00  0.00     0.004 A 
ATOM     10  C   UNL     1       5.233   0.806   1.710  1.00  0.00     0.000 A 
ATOM     11  C   UNL     1       5.400   1.972  -0.359  1.00  0.00     0.000 A 
ATOM     12  C   UNL     1       4.964   1.914   0.947  1.00  0.00     0.000 A 
ENDBRANCH   6   7
ENDBRANCH   1   6
TORSDOF 4
ENDMDL
