@<TRIPOS>MOLECULE
/home/cewinharhar/GITHUB/reincatalyze/data/processed/docking_pred/2023-May-02-0947_maxeplen10_maxtrainstep1000_seadep32_gamma099_lrac9e-4_lrcr1e-3/c584487daa348165e33ca71579c90fd99cb4babd_ligand_2.pdbqt
 12 12 0 0 0
SMALL
GASTEIGER

@<TRIPOS>ATOM
      1  C          7.2510   -1.2410   -2.1850 C.3     1  UNL1        0.1270
      2  C          8.6900   -1.2990   -2.5360 C.2     1  UNL1        0.3030
      3  O          9.4970   -0.4320   -2.1170 O.2     1  UNL1       -0.2520
      4  O          9.1850   -2.3140   -3.3390 O.3     1  UNL1       -0.4810
      5  H          9.1560   -2.2060   -4.3560 H       1  UNL1        0.2960
      6  C          7.1270   -1.3240   -0.6940 C.3     1  UNL1        0.0470
      7  C          6.3760   -0.2200   -0.0980 C.2     1  UNL1       -0.0470
      8  C          5.9450   -0.2860    1.2070 C.2     1  UNL1        0.0040
      9  C          6.1030    0.8940   -0.8580 C.2     1  UNL1        0.0040
     10  C          5.2330    0.8060    1.7100 C.2     1  UNL1        0.0000
     11  C          5.4000    1.9720   -0.3590 C.2     1  UNL1        0.0000
     12  C          4.9640    1.9140    0.9470 C.2     1  UNL1        0.0000
@<TRIPOS>BOND
     1     5     4    1
     2     4     2    1
     3     2     1    1
     4     2     3    2
     5     1     6    1
     6     9    11    1
     7     9     7    2
     8     6     7    1
     9    11    12    2
    10     7     8    1
    11    12    10    1
    12     8    10    2
