@<TRIPOS>MOLECULE
/home/cewinharhar/GITHUB/reincatalyze/data/processed/docking_pred/2023-May-02-0947_maxeplen10_maxtrainstep1000_seadep32_gamma099_lrac9e-4_lrcr1e-3/c5f7f675b3df69e676e62d17e40489667b0e6a6f_ligand_2.pdbqt
 12 12 0 0 0
SMALL
GASTEIGER

@<TRIPOS>ATOM
      1  C          8.4000   -0.6640   -2.0650 C.3     1  UNL1        0.1270
      2  C          8.3700   -1.9050   -2.8750 C.2     1  UNL1        0.3030
      3  O          7.2840   -2.4110   -3.2510 O.2     1  UNL1       -0.2520
      4  O          9.5450   -2.5430   -3.2400 O.3     1  UNL1       -0.4810
      5  H          9.5940   -3.0270   -4.1400 H       1  UNL1        0.2960
      6  C          7.0240   -0.0700   -2.0650 C.3     1  UNL1        0.0470
      7  C          6.4520    0.1020   -0.7310 C.2     1  UNL1       -0.0470
      8  C          5.8010    1.2650   -0.3890 C.2     1  UNL1        0.0040
      9  C          6.5680   -0.9170    0.1860 C.2     1  UNL1        0.0040
     10  C          5.2780    1.3600    0.9020 C.2     1  UNL1        0.0000
     11  C          6.0500   -0.8210    1.4630 C.2     1  UNL1        0.0000
     12  C          5.3980    0.3410    1.8130 C.2     1  UNL1        0.0000
@<TRIPOS>BOND
     1     5     4    1
     2     3     2    2
     3     4     2    1
     4     2     1    1
     5     1     6    1
     6     6     7    1
     7     7     8    2
     8     7     9    1
     9     8    10    1
    10     9    11    2
    11    10    12    2
    12    11    12    1
