@<TRIPOS>MOLECULE
/home/cewinharhar/GITHUB/reincatalyze/data/processed/docking_pred/2023-May-02-0947_maxeplen10_maxtrainstep1000_seadep32_gamma099_lrac9e-4_lrcr1e-3/c61eb663c2c3330cf201d691d278f59eb7eebd68_ligand_2.pdbqt
 12 12 0 0 0
SMALL
GASTEIGER

@<TRIPOS>ATOM
      1  C          8.4010   -0.6460   -2.0900 C.3     1  UNL1        0.1270
      2  C          8.3710   -1.8990   -2.8800 C.2     1  UNL1        0.3030
      3  O          7.2850   -2.4070   -3.2530 O.2     1  UNL1       -0.2520
      4  O          9.5450   -2.5460   -3.2290 O.3     1  UNL1       -0.4810
      5  H         10.2970   -2.6270   -2.5390 H       1  UNL1        0.2960
      6  C          7.0210   -0.0630   -2.0780 C.3     1  UNL1        0.0470
      7  C          6.4570    0.1030   -0.7400 C.2     1  UNL1       -0.0470
      8  C          5.8010    1.2610   -0.3920 C.2     1  UNL1        0.0040
      9  C          6.5870   -0.9170    0.1750 C.2     1  UNL1        0.0040
     10  C          5.2860    1.3500    0.9040 C.2     1  UNL1        0.0000
     11  C          6.0780   -0.8260    1.4560 C.2     1  UNL1        0.0000
     12  C          5.4200    0.3300    1.8120 C.2     1  UNL1        0.0000
@<TRIPOS>BOND
     1     3     2    2
     2     4     2    1
     3     4     5    1
     4     2     1    1
     5     1     6    1
     6     6     7    1
     7     7     8    2
     8     7     9    1
     9     8    10    1
    10     9    11    2
    11    10    12    2
    12    11    12    1
