@<TRIPOS>MOLECULE
/home/cewinharhar/GITHUB/reincatalyze/data/processed/docking_pred/2023-May-02-0947_maxeplen10_maxtrainstep1000_seadep32_gamma099_lrac9e-4_lrcr1e-3/c61eb663c2c3330cf201d691d278f59eb7eebd68_ligand_2.pdbqt
 12 12 0 0 0
SMALL
GASTEIGER

@<TRIPOS>ATOM
      1  C          8.0050   -1.3220    2.3240 C.3     1  UNL1        0.1270
      2  C          8.7310   -2.4280    1.6580 C.2     1  UNL1        0.3030
      3  O          9.9470   -2.6420    1.8900 O.2     1  UNL1       -0.2520
      4  O          8.0870   -3.2590    0.7550 O.3     1  UNL1       -0.4810
      5  H          7.5300   -4.0430    1.1060 H       1  UNL1        0.2960
      6  C          6.5720   -1.3690    1.8880 C.3     1  UNL1        0.0470
      7  C          6.1650   -0.2350    1.0610 C.2     1  UNL1       -0.0470
      8  C          6.5600   -0.1440   -0.2530 C.2     1  UNL1        0.0040
      9  C          5.3750    0.7480    1.6120 C.2     1  UNL1        0.0040
     10  C          6.1320    0.9670   -0.9840 C.2     1  UNL1        0.0000
     11  C          4.9540    1.8460    0.8880 C.2     1  UNL1        0.0000
     12  C          5.3460    1.9440   -0.4290 C.2     1  UNL1        0.0000
@<TRIPOS>BOND
     1    10    12    2
     2    10     8    1
     3    12    11    1
     4     8     7    2
     5     4     5    1
     6     4     2    1
     7    11     9    2
     8     7     9    1
     9     7     6    1
    10     2     3    2
    11     2     1    1
    12     6     1    1
