@<TRIPOS>MOLECULE
/home/cewinharhar/GITHUB/reincatalyze/data/processed/docking_pred/2023-May-02-0947_maxeplen10_maxtrainstep1000_seadep32_gamma099_lrac9e-4_lrcr1e-3/ca2511eb0ea692a115cf18c67ef7ccdfaa736476_ligand_2.pdbqt
 12 12 0 0 0
SMALL
GASTEIGER

@<TRIPOS>ATOM
      1  C          5.0170    1.7710    0.6560 C.3     1  UNL1        0.1270
      2  C          4.5690    1.1130    1.9050 C.2     1  UNL1        0.3030
      3  O          3.4470    1.3690    2.4090 O.2     1  UNL1       -0.2520
      4  O          5.3780    0.1940    2.5540 O.3     1  UNL1       -0.4810
      5  H          5.5260    0.2810    3.5630 H       1  UNL1        0.2960
      6  C          6.5140    1.8470    0.6740 C.3     1  UNL1        0.0470
      7  C          7.1610    1.0620   -0.3750 C.2     1  UNL1       -0.0470
      8  C          8.4930    1.2420   -0.6680 C.2     1  UNL1        0.0040
      9  C          6.4230    0.1330   -1.0710 C.2     1  UNL1        0.0040
     10  C          9.0470    0.4570   -1.6820 C.2     1  UNL1        0.0000
     11  C          6.9720   -0.6430   -2.0740 C.2     1  UNL1        0.0000
     12  C          8.3050   -0.4670   -2.3730 C.2     1  UNL1        0.0000
@<TRIPOS>BOND
     1    12    11    2
     2    12    10    1
     3    11     9    1
     4    10     8    2
     5     9     7    2
     6     8     7    1
     7     7     6    1
     8     1     6    1
     9     1     2    1
    10     2     3    2
    11     2     4    1
    12     4     5    1
