@<TRIPOS>MOLECULE
/home/cewinharhar/GITHUB/reincatalyze/data/processed/docking_pred/2023-May-02-0947_maxeplen10_maxtrainstep1000_seadep32_gamma099_lrac9e-4_lrcr1e-3/ca2511eb0ea692a115cf18c67ef7ccdfaa736476_ligand_2.pdbqt
 12 12 0 0 0
SMALL
GASTEIGER

@<TRIPOS>ATOM
      1  C          8.5550   -0.5900   -2.2870 C.3     1  UNL1        0.1270
      2  C          8.5450   -1.9080   -2.9640 C.2     1  UNL1        0.3030
      3  O          9.6040   -2.5620   -3.1320 O.2     1  UNL1       -0.2520
      4  O          7.3620   -2.4570   -3.4330 O.3     1  UNL1       -0.4810
      5  H          6.9290   -3.2280   -2.9180 H       1  UNL1        0.2960
      6  C          7.1400   -0.1150   -2.1610 C.3     1  UNL1        0.0470
      7  C          6.7490    0.2330   -0.7960 C.2     1  UNL1       -0.0470
      8  C          5.7740    1.1750   -0.5620 C.2     1  UNL1        0.0040
      9  C          7.3670   -0.3950    0.2600 C.2     1  UNL1        0.0040
     10  C          5.4510    1.4570    0.7670 C.2     1  UNL1        0.0000
     11  C          7.0460   -0.1150    1.5740 C.2     1  UNL1        0.0000
     12  C          6.0710    0.8280    1.8170 C.2     1  UNL1        0.0000
@<TRIPOS>BOND
     1     4     2    1
     2     4     5    1
     3     3     2    2
     4     2     1    1
     5     1     6    1
     6     6     7    1
     7     7     8    2
     8     7     9    1
     9     8    10    1
    10     9    11    2
    11    10    12    2
    12    11    12    1
