MODEL 1
REMARK VINA RESULT:      -7.2      0.000      0.000
REMARK SMILES O=C(O)CCc1ccccc1
REMARK SMILES IDX 4 1 2 2 1 3 3 4 5 6 6 7 7 8 11 9 8 10 10 11 9 12
REMARK H PARENT 3 5
REMARK Flexibility Score: inf
ROOT
ATOM      1  C   UNL     1       8.555  -0.590  -2.287  1.00  0.00     0.127 C 
ENDROOT
BRANCH   1   2
ATOM      2  C   UNL     1       8.545  -1.908  -2.964  1.00  0.00     0.303 C 
ATOM      3  O   UNL     1       9.604  -2.562  -3.132  1.00  0.00    -0.252 OA
BRANCH   2   4
ATOM      4  O   UNL     1       7.362  -2.457  -3.433  1.00  0.00    -0.481 OA
ATOM      5  H   UNL     1       6.929  -3.228  -2.918  1.00  0.00     0.296 HD
ENDBRANCH   2   4
ENDBRANCH   1   2
BRANCH   1   6
ATOM      6  C   UNL     1       7.140  -0.115  -2.161  1.00  0.00     0.047 C 
BRANCH   6   7
ATOM      7  C   UNL     1       6.749   0.233  -0.796  1.00  0.00    -0.047 A 
ATOM      8  C   UNL     1       5.774   1.175  -0.562  1.00  0.00     0.004 A 
ATOM      9  C   UNL     1       7.367  -0.395   0.260  1.00  0.00     0.004 A 
ATOM     10  C   UNL     1       5.451   1.457   0.767  1.00  0.00     0.000 A 
ATOM     11  C   UNL     1       7.046  -0.115   1.574  1.00  0.00     0.000 A 
ATOM     12  C   UNL     1       6.071   0.828   1.817  1.00  0.00     0.000 A 
ENDBRANCH   6   7
ENDBRANCH   1   6
TORSDOF 4
ENDMDL
MODEL 2
REMARK VINA RESULT:      -6.9      3.331      5.114
REMARK SMILES O=C(O)CCc1ccccc1
REMARK SMILES IDX 4 1 2 2 1 3 3 4 5 6 6 7 7 8 11 9 8 10 10 11 9 12
REMARK H PARENT 3 5
REMARK Flexibility Score: inf
ROOT
ATOM      1  C   UNL     1       5.017   1.771   0.656  1.00  0.00     0.127 C 
ENDROOT
BRANCH   1   2
ATOM      2  C   UNL     1       4.569   1.113   1.905  1.00  0.00     0.303 C 
ATOM      3  O   UNL     1       3.447   1.369   2.409  1.00  0.00    -0.252 OA
BRANCH   2   4
ATOM      4  O   UNL     1       5.378   0.194   2.554  1.00  0.00    -0.481 OA
ATOM      5  H   UNL     1       5.526   0.281   3.563  1.00  0.00     0.296 HD
ENDBRANCH   2   4
ENDBRANCH   1   2
BRANCH   1   6
ATOM      6  C   UNL     1       6.514   1.847   0.674  1.00  0.00     0.047 C 
BRANCH   6   7
ATOM      7  C   UNL     1       7.161   1.062  -0.375  1.00  0.00    -0.047 A 
ATOM      8  C   UNL     1       8.493   1.242  -0.668  1.00  0.00     0.004 A 
ATOM      9  C   UNL     1       6.423   0.133  -1.071  1.00  0.00     0.004 A 
ATOM     10  C   UNL     1       9.047   0.457  -1.682  1.00  0.00     0.000 A 
ATOM     11  C   UNL     1       6.972  -0.643  -2.074  1.00  0.00     0.000 A 
ATOM     12  C   UNL     1       8.305  -0.467  -2.373  1.00  0.00     0.000 A 
ENDBRANCH   6   7
ENDBRANCH   1   6
TORSDOF 4
ENDMDL
