@<TRIPOS>MOLECULE
/home/cewinharhar/GITHUB/reincatalyze/data/processed/docking_pred/2023-May-02-0947_maxeplen10_maxtrainstep1000_seadep32_gamma099_lrac9e-4_lrcr1e-3/cc4a81c85f0f72a0e9860fd8246284f5ccc1e781_ligand_2.pdbqt
 12 12 0 0 0
SMALL
GASTEIGER

@<TRIPOS>ATOM
      1  C          8.2140    0.2760   -2.4190 C.3     1  UNL1        0.1270
      2  C          9.5060    0.0130   -1.7420 C.2     1  UNL1        0.3030
      3  O          9.9800   -1.1480   -1.6720 O.2     1  UNL1       -0.2520
      4  O         10.2300    1.0460   -1.1670 O.3     1  UNL1       -0.4810
      5  H         11.1780    0.8640   -0.8260 H       1  UNL1        0.2960
      6  C          7.1920   -0.6700   -1.8660 C.3     1  UNL1        0.0470
      7  C          6.5390   -0.1940   -0.6480 C.2     1  UNL1       -0.0470
      8  C          5.9580    1.0520   -0.6020 C.2     1  UNL1        0.0040
      9  C          6.5080   -1.0100    0.4600 C.2     1  UNL1        0.0040
     10  C          5.3510    1.4400    0.5950 C.2     1  UNL1        0.0000
     11  C          5.9080   -0.6240    1.6420 C.2     1  UNL1        0.0000
     12  C          5.3240    0.6230    1.6960 C.2     1  UNL1        0.0000
@<TRIPOS>BOND
     1     1     6    1
     2     1     2    1
     3     6     7    1
     4     2     3    2
     5     2     4    1
     6     4     5    1
     7     7     8    2
     8     7     9    1
     9     8    10    1
    10     9    11    2
    11    10    12    2
    12    11    12    1
