@<TRIPOS>MOLECULE
/home/cewinharhar/GITHUB/reincatalyze/data/processed/docking_pred/2023-May-02-0947_maxeplen10_maxtrainstep1000_seadep32_gamma099_lrac9e-4_lrcr1e-3/cc4a81c85f0f72a0e9860fd8246284f5ccc1e781_ligand_2.pdbqt
 12 12 0 0 0
SMALL
GASTEIGER

@<TRIPOS>ATOM
      1  C          8.4030   -0.6650   -2.0660 C.3     1  UNL1        0.1270
      2  C          8.3730   -1.9050   -2.8760 C.2     1  UNL1        0.3030
      3  O          7.2870   -2.4120   -3.2500 O.2     1  UNL1       -0.2520
      4  O          9.5480   -2.5410   -3.2440 O.3     1  UNL1       -0.4810
      5  H          9.5710   -3.0910   -4.1080 H       1  UNL1        0.2960
      6  C          7.0280   -0.0700   -2.0640 C.3     1  UNL1        0.0470
      7  C          6.4550    0.0990   -0.7300 C.2     1  UNL1       -0.0470
      8  C          5.8020    1.2610   -0.3870 C.2     1  UNL1        0.0040
      9  C          6.5720   -0.9210    0.1850 C.2     1  UNL1        0.0040
     10  C          5.2780    1.3520    0.9040 C.2     1  UNL1        0.0000
     11  C          6.0530   -0.8290    1.4610 C.2     1  UNL1        0.0000
     12  C          5.3990    0.3320    1.8130 C.2     1  UNL1        0.0000
@<TRIPOS>BOND
     1     5     4    1
     2     3     2    2
     3     4     2    1
     4     2     1    1
     5     1     6    1
     6     6     7    1
     7     7     8    2
     8     7     9    1
     9     8    10    1
    10     9    11    2
    11    10    12    2
    12    11    12    1
