@<TRIPOS>MOLECULE
/home/cewinharhar/GITHUB/reincatalyze/data/processed/docking_pred/2023-May-02-0947_maxeplen10_maxtrainstep1000_seadep32_gamma099_lrac9e-4_lrcr1e-3/cdc825ac9d1cfd0e1f917a20457d8153cb4f8d56_ligand_2.pdbqt
 12 12 0 0 0
SMALL
GASTEIGER

@<TRIPOS>ATOM
      1  C          8.3980   -0.6400   -2.0950 C.3     1  UNL1        0.1270
      2  C          8.3690   -1.8960   -2.8810 C.2     1  UNL1        0.3030
      3  O          7.2830   -2.4080   -3.2500 O.2     1  UNL1       -0.2520
      4  O          9.5440   -2.5430   -3.2290 O.3     1  UNL1       -0.4810
      5  H         10.3840   -1.9890   -3.4170 H       1  UNL1        0.2960
      6  C          7.0160   -0.0610   -2.0820 C.3     1  UNL1        0.0470
      7  C          6.4540    0.1050   -0.7420 C.2     1  UNL1       -0.0470
      8  C          5.7980    1.2620   -0.3930 C.2     1  UNL1        0.0040
      9  C          6.5870   -0.9150    0.1720 C.2     1  UNL1        0.0040
     10  C          5.2860    1.3510    0.9030 C.2     1  UNL1        0.0000
     11  C          6.0800   -0.8250    1.4530 C.2     1  UNL1        0.0000
     12  C          5.4210    0.3310    1.8110 C.2     1  UNL1        0.0000
@<TRIPOS>BOND
     1     5     4    1
     2     3     2    2
     3     4     2    1
     4     2     1    1
     5     1     6    1
     6     6     7    1
     7     7     8    2
     8     7     9    1
     9     8    10    1
    10     9    11    2
    11    10    12    2
    12    11    12    1
