@<TRIPOS>MOLECULE
/home/cewinharhar/GITHUB/reincatalyze/data/processed/docking_pred/2023-May-02-0947_maxeplen10_maxtrainstep1000_seadep32_gamma099_lrac9e-4_lrcr1e-3/cf36f354a35629e8f67fe5763b2daf9f978d0e2b_ligand_2.pdbqt
 12 12 0 0 0
SMALL
GASTEIGER

@<TRIPOS>ATOM
      1  C          8.4010   -0.6460   -2.0880 C.3     1  UNL1        0.1270
      2  C          8.3710   -1.8990   -2.8800 C.2     1  UNL1        0.3030
      3  O          7.2850   -2.4100   -3.2490 O.2     1  UNL1       -0.2520
      4  O          9.5460   -2.5420   -3.2350 O.3     1  UNL1       -0.4810
      5  H          9.7160   -3.4950   -2.9020 H       1  UNL1        0.2960
      6  C          7.0210   -0.0630   -2.0780 C.3     1  UNL1        0.0470
      7  C          6.4560    0.1020   -0.7400 C.2     1  UNL1       -0.0470
      8  C          5.8010    1.2610   -0.3910 C.2     1  UNL1        0.0040
      9  C          6.5830   -0.9180    0.1740 C.2     1  UNL1        0.0040
     10  C          5.2850    1.3500    0.9040 C.2     1  UNL1        0.0000
     11  C          6.0730   -0.8280    1.4540 C.2     1  UNL1        0.0000
     12  C          5.4160    0.3290    1.8110 C.2     1  UNL1        0.0000
@<TRIPOS>BOND
     1     3     2    2
     2     4     5    1
     3     4     2    1
     4     2     1    1
     5     1     6    1
     6     6     7    1
     7     7     8    2
     8     7     9    1
     9     8    10    1
    10     9    11    2
    11    10    12    2
    12    11    12    1
