@<TRIPOS>MOLECULE
/home/cewinharhar/GITHUB/reincatalyze/data/processed/docking_pred/2023-May-02-0947_maxeplen10_maxtrainstep1000_seadep32_gamma099_lrac9e-4_lrcr1e-3/d18fc177cce43baae8a65556dd45e7572e61ad5e_ligand_2.pdbqt
 12 12 0 0 0
SMALL
GASTEIGER

@<TRIPOS>ATOM
      1  C          8.4370   -0.6360   -2.1450 C.3     1  UNL1        0.1270
      2  C          8.4750   -1.9050   -2.9100 C.2     1  UNL1        0.3030
      3  O          9.5530   -2.5240   -3.0900 O.2     1  UNL1       -0.2520
      4  O          7.3180   -2.4450   -3.4480 O.3     1  UNL1       -0.4810
      5  H          7.0950   -3.4280   -3.2720 H       1  UNL1        0.2960
      6  C          7.0240   -0.1380   -2.1290 C.3     1  UNL1        0.0470
      7  C          6.4790    0.0610   -0.7880 C.2     1  UNL1       -0.0470
      8  C          5.8410    1.2330   -0.4550 C.2     1  UNL1        0.0040
      9  C          6.6080   -0.9420    0.1450 C.2     1  UNL1        0.0040
     10  C          5.3440    1.3550    0.8450 C.2     1  UNL1        0.0000
     11  C          6.1170   -0.8200    1.4300 C.2     1  UNL1        0.0000
     12  C          5.4770    0.3520    1.7720 C.2     1  UNL1        0.0000
@<TRIPOS>BOND
     1     4     5    1
     2     4     2    1
     3     3     2    2
     4     2     1    1
     5     1     6    1
     6     6     7    1
     7     7     8    2
     8     7     9    1
     9     8    10    1
    10     9    11    2
    11    10    12    2
    12    11    12    1
