MODEL 1
REMARK VINA RESULT:      -7.3      0.000      0.000
REMARK SMILES O=C(O)CCc1ccccc1
REMARK SMILES IDX 4 1 2 2 1 3 3 4 5 6 6 7 7 8 11 9 8 10 10 11 9 12
REMARK H PARENT 3 5
REMARK Flexibility Score: inf
ROOT
ATOM      1  C   UNL     1       8.437  -0.636  -2.145  1.00  0.00     0.127 C 
ENDROOT
BRANCH   1   2
ATOM      2  C   UNL     1       8.475  -1.905  -2.910  1.00  0.00     0.303 C 
ATOM      3  O   UNL     1       9.553  -2.524  -3.090  1.00  0.00    -0.252 OA
BRANCH   2   4
ATOM      4  O   UNL     1       7.318  -2.445  -3.448  1.00  0.00    -0.481 OA
ATOM      5  H   UNL     1       7.095  -3.428  -3.272  1.00  0.00     0.296 HD
ENDBRANCH   2   4
ENDBRANCH   1   2
BRANCH   1   6
ATOM      6  C   UNL     1       7.024  -0.138  -2.129  1.00  0.00     0.047 C 
BRANCH   6   7
ATOM      7  C   UNL     1       6.479   0.061  -0.788  1.00  0.00    -0.047 A 
ATOM      8  C   UNL     1       5.841   1.233  -0.455  1.00  0.00     0.004 A 
ATOM      9  C   UNL     1       6.608  -0.942   0.145  1.00  0.00     0.004 A 
ATOM     10  C   UNL     1       5.344   1.355   0.845  1.00  0.00     0.000 A 
ATOM     11  C   UNL     1       6.117  -0.820   1.430  1.00  0.00     0.000 A 
ATOM     12  C   UNL     1       5.477   0.352   1.772  1.00  0.00     0.000 A 
ENDBRANCH   6   7
ENDBRANCH   1   6
TORSDOF 4
ENDMDL
