@<TRIPOS>MOLECULE
/home/cewinharhar/GITHUB/reincatalyze/data/processed/docking_pred/2023-May-02-0947_maxeplen10_maxtrainstep1000_seadep32_gamma099_lrac9e-4_lrcr1e-3/d27e6afc186b75c76b7fe435f4b9560b42cd14a2_ligand_2.pdbqt
 12 12 0 0 0
SMALL
GASTEIGER

@<TRIPOS>ATOM
      1  C          8.3070    0.1150   -2.3570 C.3     1  UNL1        0.1270
      2  C          9.5180   -0.0460   -1.5190 C.2     1  UNL1        0.3030
      3  O          9.8560   -1.1700   -1.0730 O.2     1  UNL1       -0.2520
      4  O         10.3140    1.0440   -1.2030 O.3     1  UNL1       -0.4810
      5  H         10.4280    1.3130   -0.2220 H       1  UNL1        0.2960
      6  C          7.2250   -0.7540   -1.7930 C.3     1  UNL1        0.0470
      7  C          6.5450   -0.1800   -0.6330 C.2     1  UNL1       -0.0470
      8  C          6.4750   -0.8700    0.5550 C.2     1  UNL1        0.0040
      9  C          5.9730    1.0670   -0.7400 C.2     1  UNL1        0.0040
     10  C          5.8100   -0.2600    1.6210 C.2     1  UNL1        0.0000
     11  C          5.3160    1.6680    0.3150 C.2     1  UNL1        0.0000
     12  C          5.2410    0.9830    1.5090 C.2     1  UNL1        0.0000
@<TRIPOS>BOND
     1     1     6    1
     2     1     2    1
     3     6     7    1
     4     2     4    1
     5     2     3    2
     6     4     5    1
     7     9     7    2
     8     9    11    1
     9     7     8    1
    10    11    12    2
    11     8    10    2
    12    12    10    1
