MODEL 1
REMARK VINA RESULT:      -7.3      0.000      0.000
REMARK SMILES O=C(O)CCc1ccccc1
REMARK SMILES IDX 4 1 2 2 1 3 3 4 5 6 6 7 7 8 11 9 8 10 10 11 9 12
REMARK H PARENT 3 5
REMARK Flexibility Score: inf
ROOT
ATOM      1  C   UNL     1       8.473  -0.666  -2.086  1.00  0.00     0.127 C 
ENDROOT
BRANCH   1   2
ATOM      2  C   UNL     1       8.488  -1.914  -2.886  1.00  0.00     0.303 C 
ATOM      3  O   UNL     1       9.556  -2.540  -3.096  1.00  0.00    -0.252 OA
BRANCH   2   4
ATOM      4  O   UNL     1       7.318  -2.425  -3.426  1.00  0.00    -0.481 OA
ATOM      5  H   UNL     1       6.516  -1.803  -3.561  1.00  0.00     0.296 HD
ENDBRANCH   2   4
ENDBRANCH   1   2
BRANCH   1   6
ATOM      6  C   UNL     1       7.071  -0.138  -2.064  1.00  0.00     0.047 C 
BRANCH   6   7
ATOM      7  C   UNL     1       6.506  -0.008  -0.722  1.00  0.00    -0.047 A 
ATOM      8  C   UNL     1       6.638  -1.022   0.198  1.00  0.00     0.004 A 
ATOM      9  C   UNL     1       5.838   1.146  -0.384  1.00  0.00     0.004 A 
ATOM     10  C   UNL     1       6.074  -0.829   1.461  1.00  0.00     0.000 A 
ATOM     11  C   UNL     1       5.280   1.335   0.865  1.00  0.00     0.000 A 
ATOM     12  C   UNL     1       5.407   0.324   1.792  1.00  0.00     0.000 A 
ENDBRANCH   6   7
ENDBRANCH   1   6
TORSDOF 4
ENDMDL
