@<TRIPOS>MOLECULE
/home/cewinharhar/GITHUB/reincatalyze/data/processed/docking_pred/2023-May-02-0947_maxeplen10_maxtrainstep1000_seadep32_gamma099_lrac9e-4_lrcr1e-3/d32515ef85c53a65d829162c3cbbbf13c46f52f9_ligand_2.pdbqt
 12 12 0 0 0
SMALL
GASTEIGER

@<TRIPOS>ATOM
      1  C          8.4730   -0.6660   -2.0860 C.3     1  UNL1        0.1270
      2  C          8.4880   -1.9140   -2.8860 C.2     1  UNL1        0.3030
      3  O          9.5560   -2.5400   -3.0960 O.2     1  UNL1       -0.2520
      4  O          7.3180   -2.4250   -3.4260 O.3     1  UNL1       -0.4810
      5  H          6.5160   -1.8030   -3.5610 H       1  UNL1        0.2960
      6  C          7.0710   -0.1380   -2.0640 C.3     1  UNL1        0.0470
      7  C          6.5060   -0.0080   -0.7220 C.2     1  UNL1       -0.0470
      8  C          6.6380   -1.0220    0.1980 C.2     1  UNL1        0.0040
      9  C          5.8380    1.1460   -0.3840 C.2     1  UNL1        0.0040
     10  C          6.0740   -0.8290    1.4610 C.2     1  UNL1        0.0000
     11  C          5.2800    1.3350    0.8650 C.2     1  UNL1        0.0000
     12  C          5.4070    0.3240    1.7920 C.2     1  UNL1        0.0000
@<TRIPOS>BOND
     1     5     4    1
     2     4     2    1
     3     3     2    2
     4     2     1    1
     5     1     6    1
     6     6     7    1
     7     7     9    2
     8     7     8    1
     9     9    11    1
    10     8    10    2
    11    11    12    2
    12    10    12    1
