@<TRIPOS>MOLECULE
/home/cewinharhar/GITHUB/reincatalyze/data/processed/docking_pred/2023-May-02-0947_maxeplen10_maxtrainstep1000_seadep32_gamma099_lrac9e-4_lrcr1e-3/d4292dbdc665c4d20b6271b363b9823f318ec372_ligand_2.pdbqt
 12 12 0 0 0
SMALL
GASTEIGER

@<TRIPOS>ATOM
      1  C          8.3240   -0.6990   -2.1570 C.3     1  UNL1        0.1270
      2  C          8.4420   -1.9590   -2.9280 C.2     1  UNL1        0.3030
      3  O          9.5550   -2.5130   -3.1020 O.2     1  UNL1       -0.2520
      4  O          7.3230   -2.5600   -3.4810 O.3     1  UNL1       -0.4810
      5  H          6.5910   -2.9200   -2.8630 H       1  UNL1        0.2960
      6  C          6.8960   -0.5410   -1.7290 C.3     1  UNL1        0.0470
      7  C          6.6850   -0.7040   -0.2920 C.2     1  UNL1       -0.0470
      8  C          7.2790   -1.7380    0.3940 C.2     1  UNL1        0.0040
      9  C          5.8820    0.1930    0.3740 C.2     1  UNL1        0.0040
     10  C          7.0330   -1.8320    1.7650 C.2     1  UNL1        0.0000
     11  C          5.6400    0.0990    1.7300 C.2     1  UNL1        0.0000
     12  C          6.2310   -0.9350    2.4250 C.2     1  UNL1        0.0000
@<TRIPOS>BOND
     1     4     2    1
     2     4     5    1
     3     3     2    2
     4     2     1    1
     5     1     6    1
     6     6     7    1
     7     7     9    2
     8     7     8    1
     9     9    11    1
    10     8    10    2
    11    11    12    2
    12    10    12    1
