MODEL 1
REMARK VINA RESULT:      -6.4      0.000      0.000
REMARK SMILES O=C(O)CCc1ccccc1
REMARK SMILES IDX 4 1 2 2 1 3 3 4 5 6 6 7 7 8 11 9 8 10 10 11 9 12
REMARK H PARENT 3 5
REMARK Flexibility Score: inf
ROOT
ATOM      1  C   UNL     1       8.324  -0.699  -2.157  1.00  0.00     0.127 C 
ENDROOT
BRANCH   1   2
ATOM      2  C   UNL     1       8.442  -1.959  -2.928  1.00  0.00     0.303 C 
ATOM      3  O   UNL     1       9.555  -2.513  -3.102  1.00  0.00    -0.252 OA
BRANCH   2   4
ATOM      4  O   UNL     1       7.323  -2.560  -3.481  1.00  0.00    -0.481 OA
ATOM      5  H   UNL     1       6.591  -2.920  -2.863  1.00  0.00     0.296 HD
ENDBRANCH   2   4
ENDBRANCH   1   2
BRANCH   1   6
ATOM      6  C   UNL     1       6.896  -0.541  -1.729  1.00  0.00     0.047 C 
BRANCH   6   7
ATOM      7  C   UNL     1       6.685  -0.704  -0.292  1.00  0.00    -0.047 A 
ATOM      8  C   UNL     1       7.279  -1.738   0.394  1.00  0.00     0.004 A 
ATOM      9  C   UNL     1       5.882   0.193   0.374  1.00  0.00     0.004 A 
ATOM     10  C   UNL     1       7.033  -1.832   1.765  1.00  0.00     0.000 A 
ATOM     11  C   UNL     1       5.640   0.099   1.730  1.00  0.00     0.000 A 
ATOM     12  C   UNL     1       6.231  -0.935   2.425  1.00  0.00     0.000 A 
ENDBRANCH   6   7
ENDBRANCH   1   6
TORSDOF 4
ENDMDL
MODEL 2
REMARK VINA RESULT:      -6.2      3.196      4.948
REMARK SMILES O=C(O)CCc1ccccc1
REMARK SMILES IDX 4 1 2 2 1 3 3 4 5 6 6 7 7 8 11 9 8 10 10 11 9 12
REMARK H PARENT 3 5
REMARK Flexibility Score: inf
ROOT
ATOM      1  C   UNL     1       5.926  -0.893   1.761  1.00  0.00     0.127 C 
ENDROOT
BRANCH   1   2
ATOM      2  C   UNL     1       5.371   0.452   2.042  1.00  0.00     0.303 C 
ATOM      3  O   UNL     1       4.197   0.596   2.463  1.00  0.00    -0.252 OA
BRANCH   2   4
ATOM      4  O   UNL     1       6.135   1.591   1.846  1.00  0.00    -0.481 OA
ATOM      5  H   UNL     1       6.715   1.667   1.006  1.00  0.00     0.296 HD
ENDBRANCH   2   4
ENDBRANCH   1   2
BRANCH   1   6
ATOM      6  C   UNL     1       7.391  -0.748   1.477  1.00  0.00     0.047 C 
BRANCH   6   7
ATOM      7  C   UNL     1       7.714  -0.650   0.055  1.00  0.00    -0.047 A 
ATOM      8  C   UNL     1       8.852  -0.002  -0.364  1.00  0.00     0.004 A 
ATOM      9  C   UNL     1       6.864  -1.216  -0.867  1.00  0.00     0.004 A 
ATOM     10  C   UNL     1       9.098   0.052  -1.738  1.00  0.00     0.000 A 
ATOM     11  C   UNL     1       7.109  -1.161  -2.225  1.00  0.00     0.000 A 
ATOM     12  C   UNL     1       8.247  -0.514  -2.653  1.00  0.00     0.000 A 
ENDBRANCH   6   7
ENDBRANCH   1   6
TORSDOF 4
ENDMDL
MODEL 3
REMARK VINA RESULT:      -6.0      3.459      5.108
REMARK SMILES O=C(O)CCc1ccccc1
REMARK SMILES IDX 4 1 2 2 1 3 3 4 5 6 6 7 7 8 11 9 8 10 10 11 9 12
REMARK H PARENT 3 5
REMARK Flexibility Score: inf
ROOT
ATOM      1  C   UNL     1       5.083  -0.126   2.038  1.00  0.00     0.127 C 
ENDROOT
BRANCH   1   2
ATOM      2  C   UNL     1       4.411   1.192   1.972  1.00  0.00     0.303 C 
ATOM      3  O   UNL     1       4.936   2.162   1.370  1.00  0.00    -0.252 OA
BRANCH   2   4
ATOM      4  O   UNL     1       3.179   1.392   2.575  1.00  0.00    -0.481 OA
ATOM      5  H   UNL     1       2.670   2.263   2.398  1.00  0.00     0.296 HD
ENDBRANCH   2   4
ENDBRANCH   1   2
BRANCH   1   6
ATOM      6  C   UNL     1       6.537   0.071   1.733  1.00  0.00     0.047 C 
BRANCH   6   7
ATOM      7  C   UNL     1       7.017  -0.708   0.593  1.00  0.00    -0.047 A 
ATOM      8  C   UNL     1       6.640  -0.383  -0.690  1.00  0.00     0.004 A 
ATOM      9  C   UNL     1       7.855  -1.776   0.815  1.00  0.00     0.004 A 
ATOM     10  C   UNL     1       7.137  -1.171  -1.731  1.00  0.00     0.000 A 
ATOM     11  C   UNL     1       8.346  -2.554  -0.216  1.00  0.00     0.000 A 
ATOM     12  C   UNL     1       7.973  -2.235  -1.503  1.00  0.00     0.000 A 
ENDBRANCH   6   7
ENDBRANCH   1   6
TORSDOF 4
ENDMDL
