@<TRIPOS>MOLECULE
/home/cewinharhar/GITHUB/reincatalyze/data/processed/docking_pred/2023-May-02-0947_maxeplen10_maxtrainstep1000_seadep32_gamma099_lrac9e-4_lrcr1e-3/d4292dbdc665c4d20b6271b363b9823f318ec372_ligand_2.pdbqt
 12 12 0 0 0
SMALL
GASTEIGER

@<TRIPOS>ATOM
      1  C          5.0830   -0.1260    2.0380 C.3     1  UNL1        0.1270
      2  C          4.4110    1.1920    1.9720 C.2     1  UNL1        0.3030
      3  O          4.9360    2.1620    1.3700 O.2     1  UNL1       -0.2520
      4  O          3.1790    1.3920    2.5750 O.3     1  UNL1       -0.4810
      5  H          2.6700    2.2630    2.3980 H       1  UNL1        0.2960
      6  C          6.5370    0.0710    1.7330 C.3     1  UNL1        0.0470
      7  C          7.0170   -0.7080    0.5930 C.2     1  UNL1       -0.0470
      8  C          6.6400   -0.3830   -0.6900 C.2     1  UNL1        0.0040
      9  C          7.8550   -1.7760    0.8150 C.2     1  UNL1        0.0040
     10  C          7.1370   -1.1710   -1.7310 C.2     1  UNL1        0.0000
     11  C          8.3460   -2.5540   -0.2160 C.2     1  UNL1        0.0000
     12  C          7.9730   -2.2350   -1.5030 C.2     1  UNL1        0.0000
@<TRIPOS>BOND
     1    10    12    2
     2    10     8    1
     3    12    11    1
     4     8     7    2
     5    11     9    2
     6     7     9    1
     7     7     6    1
     8     3     2    2
     9     6     1    1
    10     2     1    1
    11     2     4    1
    12     5     4    1
