@<TRIPOS>MOLECULE
/home/cewinharhar/GITHUB/reincatalyze/data/processed/docking_pred/2023-May-02-0947_maxeplen10_maxtrainstep1000_seadep32_gamma099_lrac9e-4_lrcr1e-3/d4292dbdc665c4d20b6271b363b9823f318ec372_ligand_2.pdbqt
 12 12 0 0 0
SMALL
GASTEIGER

@<TRIPOS>ATOM
      1  C          5.9260   -0.8930    1.7610 C.3     1  UNL1        0.1270
      2  C          5.3710    0.4520    2.0420 C.2     1  UNL1        0.3030
      3  O          4.1970    0.5960    2.4630 O.2     1  UNL1       -0.2520
      4  O          6.1350    1.5910    1.8460 O.3     1  UNL1       -0.4810
      5  H          6.7150    1.6670    1.0060 H       1  UNL1        0.2960
      6  C          7.3910   -0.7480    1.4770 C.3     1  UNL1        0.0470
      7  C          7.7140   -0.6500    0.0550 C.2     1  UNL1       -0.0470
      8  C          8.8520   -0.0020   -0.3640 C.2     1  UNL1        0.0040
      9  C          6.8640   -1.2160   -0.8670 C.2     1  UNL1        0.0040
     10  C          9.0980    0.0520   -1.7380 C.2     1  UNL1        0.0000
     11  C          7.1090   -1.1610   -2.2250 C.2     1  UNL1        0.0000
     12  C          8.2470   -0.5140   -2.6530 C.2     1  UNL1        0.0000
@<TRIPOS>BOND
     1    12    11    2
     2    12    10    1
     3    11     9    1
     4    10     8    2
     5     9     7    2
     6     8     7    1
     7     7     6    1
     8     5     4    1
     9     6     1    1
    10     1     2    1
    11     4     2    1
    12     2     3    2
