@<TRIPOS>MOLECULE
/home/cewinharhar/GITHUB/reincatalyze/data/processed/docking_pred/2023-May-02-0947_maxeplen10_maxtrainstep1000_seadep32_gamma099_lrac9e-4_lrcr1e-3/d475abeaf77d1f7cad9c775310647ad941a1fd31_ligand_2.pdbqt
 12 12 0 0 0
SMALL
GASTEIGER

@<TRIPOS>ATOM
      1  C          5.7440    0.9980   -0.1370 C.3     1  UNL1        0.1270
      2  C          5.2930    1.5190    1.1750 C.2     1  UNL1        0.3030
      3  O          5.2710    2.7520    1.4130 O.2     1  UNL1       -0.2520
      4  O          4.8810    0.6560    2.1780 O.3     1  UNL1       -0.4810
      5  H          3.8800    0.4840    2.3100 H       1  UNL1        0.2960
      6  C          6.4700   -0.2920    0.0940 C.3     1  UNL1        0.0470
      7  C          7.9170   -0.2020   -0.0930 C.2     1  UNL1       -0.0470
      8  C          8.4600    0.7370   -0.9390 C.2     1  UNL1        0.0040
      9  C          8.7370   -1.0690    0.5910 C.2     1  UNL1        0.0040
     10  C          9.8500    0.7670   -1.0680 C.2     1  UNL1        0.0000
     11  C         10.1120   -1.0380    0.4630 C.2     1  UNL1        0.0000
     12  C         10.6640   -0.1010   -0.3830 C.2     1  UNL1        0.0000
@<TRIPOS>BOND
     1    10     8    1
     2    10    12    2
     3     8     7    2
     4    12    11    1
     5     1     6    1
     6     1     2    1
     7     7     6    1
     8     7     9    1
     9    11     9    2
    10     2     3    2
    11     2     4    1
    12     4     5    1
