@<TRIPOS>MOLECULE
/home/cewinharhar/GITHUB/reincatalyze/data/processed/docking_pred/2023-May-02-0947_maxeplen10_maxtrainstep1000_seadep32_gamma099_lrac9e-4_lrcr1e-3/d475abeaf77d1f7cad9c775310647ad941a1fd31_ligand_2.pdbqt
 12 12 0 0 0
SMALL
GASTEIGER

@<TRIPOS>ATOM
      1  C          8.3410    0.4090   -2.1930 C.3     1  UNL1        0.1270
      2  C          9.5450   -0.0000   -1.4330 C.2     1  UNL1        0.3030
      3  O          9.7470   -1.2030   -1.1310 O.2     1  UNL1       -0.2520
      4  O         10.4840    0.9360   -1.0330 O.3     1  UNL1       -0.4810
      5  H         10.6700    1.0640   -0.0340 H       1  UNL1        0.2960
      6  C          7.2060   -0.4860   -1.7950 C.3     1  UNL1        0.0470
      7  C          6.5130   -0.0620   -0.5800 C.2     1  UNL1       -0.0470
      8  C          6.4570   -0.8840    0.5210 C.2     1  UNL1        0.0040
      9  C          5.9140    1.1760   -0.5470 C.2     1  UNL1        0.0040
     10  C          5.7780   -0.4140    1.6470 C.2     1  UNL1        0.0000
     11  C          5.2430    1.6390    0.5680 C.2     1  UNL1        0.0000
     12  C          5.1820    0.8210    1.6750 C.2     1  UNL1        0.0000
@<TRIPOS>BOND
     1     1     6    1
     2     1     2    1
     3     6     7    1
     4     2     3    2
     5     2     4    1
     6     4     5    1
     7     7     9    2
     8     7     8    1
     9     9    11    1
    10     8    10    2
    11    11    12    2
    12    10    12    1
