@<TRIPOS>MOLECULE
/home/cewinharhar/GITHUB/reincatalyze/data/processed/docking_pred/2023-May-02-0947_maxeplen10_maxtrainstep1000_seadep32_gamma099_lrac9e-4_lrcr1e-3/d4c602a3745b48528a2ec664cc6a2c0711254731_ligand_2.pdbqt
 12 12 0 0 0
SMALL
GASTEIGER

@<TRIPOS>ATOM
      1  C          8.4040   -0.6590   -2.0730 C.3     1  UNL1        0.1270
      2  C          8.3740   -1.9040   -2.8770 C.2     1  UNL1        0.3030
      3  O          7.2880   -2.4110   -3.2510 O.2     1  UNL1       -0.2520
      4  O          9.5480   -2.5440   -3.2380 O.3     1  UNL1       -0.4810
      5  H          9.9130   -3.2940   -2.6440 H       1  UNL1        0.2960
      6  C          7.0270   -0.0690   -2.0690 C.3     1  UNL1        0.0470
      7  C          6.4570    0.0990   -0.7330 C.2     1  UNL1       -0.0470
      8  C          5.8030    1.2600   -0.3880 C.2     1  UNL1        0.0040
      9  C          6.5780   -0.9210    0.1820 C.2     1  UNL1        0.0040
     10  C          5.2820    1.3500    0.9050 C.2     1  UNL1        0.0000
     11  C          6.0630   -0.8290    1.4600 C.2     1  UNL1        0.0000
     12  C          5.4070    0.3300    1.8130 C.2     1  UNL1        0.0000
@<TRIPOS>BOND
     1     3     2    2
     2     4     2    1
     3     4     5    1
     4     2     1    1
     5     1     6    1
     6     6     7    1
     7     7     8    2
     8     7     9    1
     9     8    10    1
    10     9    11    2
    11    10    12    2
    12    11    12    1
