@<TRIPOS>MOLECULE
/home/cewinharhar/GITHUB/reincatalyze/data/processed/docking_pred/2023-May-02-0947_maxeplen10_maxtrainstep1000_seadep32_gamma099_lrac9e-4_lrcr1e-3/d68da6ca94917019a71bc3feefe4e6b6d631e6ad_ligand_2.pdbqt
 12 12 0 0 0
SMALL
GASTEIGER

@<TRIPOS>ATOM
      1  C          8.4360   -0.6390   -2.1330 C.3     1  UNL1        0.1270
      2  C          8.4720   -1.9020   -2.9070 C.2     1  UNL1        0.3030
      3  O          9.5480   -2.5230   -3.0910 O.2     1  UNL1       -0.2520
      4  O          7.3140   -2.4350   -3.4500 O.3     1  UNL1       -0.4810
      5  H          7.0890   -3.4200   -3.2850 H       1  UNL1        0.2960
      6  C          7.0250   -0.1350   -2.1190 C.3     1  UNL1        0.0470
      7  C          6.4740    0.0530   -0.7780 C.2     1  UNL1       -0.0470
      8  C          5.8370    1.2240   -0.4370 C.2     1  UNL1        0.0040
      9  C          6.5970   -0.9580    0.1470 C.2     1  UNL1        0.0040
     10  C          5.3340    1.3340    0.8610 C.2     1  UNL1        0.0000
     11  C          6.1000   -0.8480    1.4300 C.2     1  UNL1        0.0000
     12  C          5.4610    0.3220    1.7790 C.2     1  UNL1        0.0000
@<TRIPOS>BOND
     1     4     5    1
     2     4     2    1
     3     3     2    2
     4     2     1    1
     5     1     6    1
     6     6     7    1
     7     7     8    2
     8     7     9    1
     9     8    10    1
    10     9    11    2
    11    10    12    2
    12    11    12    1
