MODEL 1
REMARK VINA RESULT:      -7.3      0.000      0.000
REMARK SMILES O=C(O)CCc1ccccc1
REMARK SMILES IDX 4 1 2 2 1 3 3 4 5 6 6 7 7 8 11 9 8 10 10 11 9 12
REMARK H PARENT 3 5
REMARK Flexibility Score: inf
ROOT
ATOM      1  C   UNL     1       8.436  -0.639  -2.133  1.00  0.00     0.127 C 
ENDROOT
BRANCH   1   2
ATOM      2  C   UNL     1       8.472  -1.902  -2.907  1.00  0.00     0.303 C 
ATOM      3  O   UNL     1       9.548  -2.523  -3.091  1.00  0.00    -0.252 OA
BRANCH   2   4
ATOM      4  O   UNL     1       7.314  -2.435  -3.450  1.00  0.00    -0.481 OA
ATOM      5  H   UNL     1       7.089  -3.420  -3.285  1.00  0.00     0.296 HD
ENDBRANCH   2   4
ENDBRANCH   1   2
BRANCH   1   6
ATOM      6  C   UNL     1       7.025  -0.135  -2.119  1.00  0.00     0.047 C 
BRANCH   6   7
ATOM      7  C   UNL     1       6.474   0.053  -0.778  1.00  0.00    -0.047 A 
ATOM      8  C   UNL     1       5.837   1.224  -0.437  1.00  0.00     0.004 A 
ATOM      9  C   UNL     1       6.597  -0.958   0.147  1.00  0.00     0.004 A 
ATOM     10  C   UNL     1       5.334   1.334   0.861  1.00  0.00     0.000 A 
ATOM     11  C   UNL     1       6.100  -0.848   1.430  1.00  0.00     0.000 A 
ATOM     12  C   UNL     1       5.461   0.322   1.779  1.00  0.00     0.000 A 
ENDBRANCH   6   7
ENDBRANCH   1   6
TORSDOF 4
ENDMDL
