@<TRIPOS>MOLECULE
/home/cewinharhar/GITHUB/reincatalyze/data/processed/docking_pred/2023-May-02-0947_maxeplen10_maxtrainstep1000_seadep32_gamma099_lrac9e-4_lrcr1e-3/d6fa7c89c21ca11aa73af88b15ecc664e93337c3_ligand_2.pdbqt
 12 12 0 0 0
SMALL
GASTEIGER

@<TRIPOS>ATOM
      1  C          8.4040   -0.6530   -2.0810 C.3     1  UNL1        0.1270
      2  C          8.3740   -1.9030   -2.8770 C.2     1  UNL1        0.3030
      3  O          7.2870   -2.4100   -3.2510 O.2     1  UNL1       -0.2520
      4  O          9.5480   -2.5470   -3.2330 O.3     1  UNL1       -0.4810
      5  H          9.5730   -3.1060   -4.0900 H       1  UNL1        0.2960
      6  C          7.0250   -0.0670   -2.0730 C.3     1  UNL1        0.0470
      7  C          6.4580    0.1000   -0.7360 C.2     1  UNL1       -0.0470
      8  C          5.8030    1.2600   -0.3890 C.2     1  UNL1        0.0040
      9  C          6.5830   -0.9200    0.1790 C.2     1  UNL1        0.0040
     10  C          5.2850    1.3500    0.9050 C.2     1  UNL1        0.0000
     11  C          6.0710   -0.8290    1.4580 C.2     1  UNL1        0.0000
     12  C          5.4140    0.3290    1.8130 C.2     1  UNL1        0.0000
@<TRIPOS>BOND
     1     5     4    1
     2     3     2    2
     3     4     2    1
     4     2     1    1
     5     1     6    1
     6     6     7    1
     7     7     8    2
     8     7     9    1
     9     8    10    1
    10     9    11    2
    11    10    12    2
    12    11    12    1
