@<TRIPOS>MOLECULE
/home/cewinharhar/GITHUB/reincatalyze/data/processed/docking_pred/2023-May-02-0947_maxeplen10_maxtrainstep1000_seadep32_gamma099_lrac9e-4_lrcr1e-3/d7d9c72b52c2e0a01b4806f6bcc2a503b8c9528b_ligand_2.pdbqt
 12 12 0 0 0
SMALL
GASTEIGER

@<TRIPOS>ATOM
      1  C          8.4030   -0.6630   -2.0670 C.3     1  UNL1        0.1270
      2  C          8.3730   -1.9050   -2.8750 C.2     1  UNL1        0.3030
      3  O          7.2860   -2.4110   -3.2510 O.2     1  UNL1       -0.2520
      4  O          9.5470   -2.5450   -3.2380 O.3     1  UNL1       -0.4810
      5  H         10.4030   -1.9940   -3.3520 H       1  UNL1        0.2960
      6  C          7.0270   -0.0700   -2.0640 C.3     1  UNL1        0.0470
      7  C          6.4560    0.1000   -0.7300 C.2     1  UNL1       -0.0470
      8  C          5.8030    1.2620   -0.3870 C.2     1  UNL1        0.0040
      9  C          6.5740   -0.9190    0.1870 C.2     1  UNL1        0.0040
     10  C          5.2810    1.3550    0.9050 C.2     1  UNL1        0.0000
     11  C          6.0580   -0.8250    1.4640 C.2     1  UNL1        0.0000
     12  C          5.4040    0.3360    1.8150 C.2     1  UNL1        0.0000
@<TRIPOS>BOND
     1     5     4    1
     2     3     2    2
     3     4     2    1
     4     2     1    1
     5     1     6    1
     6     6     7    1
     7     7     8    2
     8     7     9    1
     9     8    10    1
    10     9    11    2
    11    10    12    2
    12    11    12    1
