@<TRIPOS>MOLECULE
/home/cewinharhar/GITHUB/reincatalyze/data/processed/docking_pred/2023-May-02-0947_maxeplen10_maxtrainstep1000_seadep32_gamma099_lrac9e-4_lrcr1e-3/d98db6e7330c4682e6208573911aa9edae27e8f4_ligand_2.pdbqt
 12 12 0 0 0
SMALL
GASTEIGER

@<TRIPOS>ATOM
      1  C          8.4040   -0.6630   -2.0670 C.3     1  UNL1        0.1270
      2  C          8.3740   -1.9040   -2.8760 C.2     1  UNL1        0.3030
      3  O          7.2880   -2.4130   -3.2480 O.2     1  UNL1       -0.2520
      4  O          9.5490   -2.5400   -3.2460 O.3     1  UNL1       -0.4810
      5  H          9.6450   -3.5470   -3.0880 H       1  UNL1        0.2960
      6  C          7.0290   -0.0690   -2.0650 C.3     1  UNL1        0.0470
      7  C          6.4560    0.1000   -0.7310 C.2     1  UNL1       -0.0470
      8  C          5.8040    1.2620   -0.3870 C.2     1  UNL1        0.0040
      9  C          6.5730   -0.9200    0.1840 C.2     1  UNL1        0.0040
     10  C          5.2810    1.3540    0.9040 C.2     1  UNL1        0.0000
     11  C          6.0560   -0.8270    1.4610 C.2     1  UNL1        0.0000
     12  C          5.4020    0.3330    1.8130 C.2     1  UNL1        0.0000
@<TRIPOS>BOND
     1     3     2    2
     2     4     5    1
     3     4     2    1
     4     2     1    1
     5     1     6    1
     6     6     7    1
     7     7     8    2
     8     7     9    1
     9     8    10    1
    10     9    11    2
    11    10    12    2
    12    11    12    1
