@<TRIPOS>MOLECULE
/home/cewinharhar/GITHUB/reincatalyze/data/processed/docking_pred/2023-May-02-0947_maxeplen10_maxtrainstep1000_seadep32_gamma099_lrac9e-4_lrcr1e-3/da55d276f49f8aea3f2b333b6115ea57fe53d1b0_ligand_2.pdbqt
 12 12 0 0 0
SMALL
GASTEIGER

@<TRIPOS>ATOM
      1  C          8.4070   -0.6640   -2.0680 C.3     1  UNL1        0.1270
      2  C          8.3760   -1.9070   -2.8740 C.2     1  UNL1        0.3030
      3  O          7.2890   -2.4120   -3.2500 O.2     1  UNL1       -0.2520
      4  O          9.5490   -2.5480   -3.2360 O.3     1  UNL1       -0.4810
      5  H         10.1630   -2.1150   -3.9320 H       1  UNL1        0.2960
      6  C          7.0310   -0.0700   -2.0660 C.3     1  UNL1        0.0470
      7  C          6.4590    0.1000   -0.7320 C.2     1  UNL1       -0.0470
      8  C          5.8050    1.2600   -0.3890 C.2     1  UNL1        0.0040
      9  C          6.5780   -0.9190    0.1850 C.2     1  UNL1        0.0040
     10  C          5.2820    1.3530    0.9030 C.2     1  UNL1        0.0000
     11  C          6.0610   -0.8260    1.4610 C.2     1  UNL1        0.0000
     12  C          5.4050    0.3330    1.8130 C.2     1  UNL1        0.0000
@<TRIPOS>BOND
     1     5     4    1
     2     3     2    2
     3     4     2    1
     4     2     1    1
     5     1     6    1
     6     6     7    1
     7     7     8    2
     8     7     9    1
     9     8    10    1
    10     9    11    2
    11    10    12    2
    12    11    12    1
