@<TRIPOS>MOLECULE
/home/cewinharhar/GITHUB/reincatalyze/data/processed/docking_pred/2023-May-02-0947_maxeplen10_maxtrainstep1000_seadep32_gamma099_lrac9e-4_lrcr1e-3/da55d276f49f8aea3f2b333b6115ea57fe53d1b0_ligand_2.pdbqt
 12 12 0 0 0
SMALL
GASTEIGER

@<TRIPOS>ATOM
      1  C          7.3610   -0.1250    1.2930 C.3     1  UNL1        0.1270
      2  C          6.5950   -1.1060    2.0980 C.2     1  UNL1        0.3030
      3  O          5.9530   -0.7520    3.1180 O.2     1  UNL1       -0.2520
      4  O          6.5680   -2.4460    1.7460 O.3     1  UNL1       -0.4810
      5  H          6.8400   -3.1510    2.4370 H       1  UNL1        0.2960
      6  C          6.5780    0.1780    0.0520 C.3     1  UNL1        0.0470
      7  C          7.2380   -0.2400   -1.1840 C.2     1  UNL1       -0.0470
      8  C          7.8750    0.6790   -1.9860 C.2     1  UNL1        0.0040
      9  C          7.2170   -1.5680   -1.5400 C.2     1  UNL1        0.0040
     10  C          8.4850    0.2090   -3.1510 C.2     1  UNL1        0.0000
     11  C          7.8200   -2.0310   -2.6930 C.2     1  UNL1        0.0000
     12  C          8.4610   -1.1170   -3.5020 C.2     1  UNL1        0.0000
@<TRIPOS>BOND
     1    12    10    2
     2    12    11    1
     3    10     8    1
     4    11     9    2
     5     8     7    2
     6     9     7    1
     7     7     6    1
     8     6     1    1
     9     1     2    1
    10     4     2    1
    11     4     5    1
    12     2     3    2
