@<TRIPOS>MOLECULE
/home/cewinharhar/GITHUB/reincatalyze/data/processed/docking_pred/2023-May-02-0947_maxeplen10_maxtrainstep1000_seadep32_gamma099_lrac9e-4_lrcr1e-3/db02e8dbba2ca978bde564db4603195d7659b46f_ligand_2.pdbqt
 12 12 0 0 0
SMALL
GASTEIGER

@<TRIPOS>ATOM
      1  C          8.3990   -0.6510   -2.0820 C.3     1  UNL1        0.1270
      2  C          8.3690   -1.9010   -2.8760 C.2     1  UNL1        0.3030
      3  O          7.2830   -2.4070   -3.2540 O.2     1  UNL1       -0.2520
      4  O          9.5440   -2.5490   -3.2250 O.3     1  UNL1       -0.4810
      5  H         10.3230   -2.5640   -2.5620 H       1  UNL1        0.2960
      6  C          7.0190   -0.0660   -2.0730 C.3     1  UNL1        0.0470
      7  C          6.4540    0.1040   -0.7350 C.2     1  UNL1       -0.0470
      8  C          5.7970    1.2620   -0.3910 C.2     1  UNL1        0.0040
      9  C          6.5840   -0.9130    0.1830 C.2     1  UNL1        0.0040
     10  C          5.2820    1.3550    0.9040 C.2     1  UNL1        0.0000
     11  C          6.0750   -0.8190    1.4630 C.2     1  UNL1        0.0000
     12  C          5.4160    0.3380    1.8160 C.2     1  UNL1        0.0000
@<TRIPOS>BOND
     1     3     2    2
     2     4     2    1
     3     4     5    1
     4     2     1    1
     5     1     6    1
     6     6     7    1
     7     7     8    2
     8     7     9    1
     9     8    10    1
    10     9    11    2
    11    10    12    2
    12    11    12    1
