@<TRIPOS>MOLECULE
/home/cewinharhar/GITHUB/reincatalyze/data/processed/docking_pred/2023-May-02-0947_maxeplen10_maxtrainstep1000_seadep32_gamma099_lrac9e-4_lrcr1e-3/db57195a81496af8cffcd6b4d9524a1fe0637e4f_ligand_2.pdbqt
 12 12 0 0 0
SMALL
GASTEIGER

@<TRIPOS>ATOM
      1  C          8.4040   -0.6530   -2.0810 C.3     1  UNL1        0.1270
      2  C          8.3760   -1.8990   -2.8820 C.2     1  UNL1        0.3030
      3  O          7.2890   -2.4160   -3.2430 O.2     1  UNL1       -0.2520
      4  O          9.5510   -2.5300   -3.2560 O.3     1  UNL1       -0.4810
      5  H         10.3430   -2.5400   -2.6080 H       1  UNL1        0.2960
      6  C          7.0270   -0.0630   -2.0780 C.3     1  UNL1        0.0470
      7  C          6.4530    0.1020   -0.7440 C.2     1  UNL1       -0.0470
      8  C          5.8020    1.2630   -0.3970 C.2     1  UNL1        0.0040
      9  C          6.5690   -0.9220    0.1680 C.2     1  UNL1        0.0040
     10  C          5.2780    1.3510    0.8940 C.2     1  UNL1        0.0000
     11  C          6.0510   -0.8330    1.4450 C.2     1  UNL1        0.0000
     12  C          5.3970    0.3270    1.8000 C.2     1  UNL1        0.0000
@<TRIPOS>BOND
     1     4     2    1
     2     4     5    1
     3     3     2    2
     4     2     1    1
     5     1     6    1
     6     6     7    1
     7     7     8    2
     8     7     9    1
     9     8    10    1
    10     9    11    2
    11    10    12    2
    12    11    12    1
