MODEL 1
REMARK VINA RESULT:      -7.3      0.000      0.000
REMARK SMILES O=C(O)CCc1ccccc1
REMARK SMILES IDX 4 1 2 2 1 3 3 4 5 6 6 7 7 8 11 9 8 10 10 11 9 12
REMARK H PARENT 3 5
REMARK Flexibility Score: inf
ROOT
ATOM      1  C   UNL     1       8.404  -0.653  -2.081  1.00  0.00     0.127 C 
ENDROOT
BRANCH   1   2
ATOM      2  C   UNL     1       8.376  -1.899  -2.882  1.00  0.00     0.303 C 
ATOM      3  O   UNL     1       7.289  -2.416  -3.243  1.00  0.00    -0.252 OA
BRANCH   2   4
ATOM      4  O   UNL     1       9.551  -2.530  -3.256  1.00  0.00    -0.481 OA
ATOM      5  H   UNL     1      10.343  -2.540  -2.608  1.00  0.00     0.296 HD
ENDBRANCH   2   4
ENDBRANCH   1   2
BRANCH   1   6
ATOM      6  C   UNL     1       7.027  -0.063  -2.078  1.00  0.00     0.047 C 
BRANCH   6   7
ATOM      7  C   UNL     1       6.453   0.102  -0.744  1.00  0.00    -0.047 A 
ATOM      8  C   UNL     1       5.802   1.263  -0.397  1.00  0.00     0.004 A 
ATOM      9  C   UNL     1       6.569  -0.922   0.168  1.00  0.00     0.004 A 
ATOM     10  C   UNL     1       5.278   1.351   0.894  1.00  0.00     0.000 A 
ATOM     11  C   UNL     1       6.051  -0.833   1.445  1.00  0.00     0.000 A 
ATOM     12  C   UNL     1       5.397   0.327   1.800  1.00  0.00     0.000 A 
ENDBRANCH   6   7
ENDBRANCH   1   6
TORSDOF 4
ENDMDL
