@<TRIPOS>MOLECULE
/home/cewinharhar/GITHUB/reincatalyze/data/processed/docking_pred/2023-May-02-0947_maxeplen10_maxtrainstep1000_seadep32_gamma099_lrac9e-4_lrcr1e-3/db6d960fae65c9d90f474a1e8ae318b6f28ec3f2_ligand_2.pdbqt
 12 12 0 0 0
SMALL
GASTEIGER

@<TRIPOS>ATOM
      1  C          8.4740   -0.6670   -2.0750 C.3     1  UNL1        0.1270
      2  C          8.4860   -1.9160   -2.8730 C.2     1  UNL1        0.3030
      3  O          9.5520   -2.5470   -3.0770 O.2     1  UNL1       -0.2520
      4  O          7.3170   -2.4210   -3.4170 O.3     1  UNL1       -0.4810
      5  H          7.0140   -3.3660   -3.1640 H       1  UNL1        0.2960
      6  C          7.0840   -0.1080   -2.0970 C.3     1  UNL1        0.0470
      7  C          6.4990    0.0850   -0.7700 C.2     1  UNL1       -0.0470
      8  C          5.8350    1.2480   -0.4560 C.2     1  UNL1        0.0040
      9  C          6.6180   -0.9150    0.1670 C.2     1  UNL1        0.0040
     10  C          5.3020    1.3630    0.8290 C.2     1  UNL1        0.0000
     11  C          6.0900   -0.8000    1.4380 C.2     1  UNL1        0.0000
     12  C          5.4240    0.3630    1.7600 C.2     1  UNL1        0.0000
@<TRIPOS>BOND
     1     4     5    1
     2     4     2    1
     3     3     2    2
     4     2     1    1
     5     6     1    1
     6     6     7    1
     7     7     8    2
     8     7     9    1
     9     8    10    1
    10     9    11    2
    11    10    12    2
    12    11    12    1
