@<TRIPOS>MOLECULE
/home/cewinharhar/GITHUB/reincatalyze/data/processed/docking_pred/2023-May-02-0947_maxeplen10_maxtrainstep1000_seadep32_gamma099_lrac9e-4_lrcr1e-3/dba3942d2f0306a5a819952336ad453bb769fd78_ligand_2.pdbqt
 12 12 0 0 0
SMALL
GASTEIGER

@<TRIPOS>ATOM
      1  C          7.2610   -1.2760   -2.1630 C.3     1  UNL1        0.1270
      2  C          8.7000   -1.3180   -2.5140 C.2     1  UNL1        0.3030
      3  O          9.5010   -0.4550   -2.0770 O.2     1  UNL1       -0.2520
      4  O          9.2020   -2.3130   -3.3370 O.3     1  UNL1       -0.4810
      5  H          9.4180   -3.2310   -2.9380 H       1  UNL1        0.2960
      6  C          7.1370   -1.3650   -0.6730 C.3     1  UNL1        0.0470
      7  C          6.3770   -0.2700   -0.0730 C.2     1  UNL1       -0.0470
      8  C          5.9300   -0.3520    1.2260 C.2     1  UNL1        0.0040
      9  C          6.1110    0.8530   -0.8230 C.2     1  UNL1        0.0040
     10  C          5.2110    0.7330    1.7340 C.2     1  UNL1        0.0000
     11  C          5.4000    1.9230   -0.3190 C.2     1  UNL1        0.0000
     12  C          4.9480    1.8490    0.9810 C.2     1  UNL1        0.0000
@<TRIPOS>BOND
     1     4     5    1
     2     4     2    1
     3     2     1    1
     4     2     3    2
     5     1     6    1
     6     9    11    1
     7     9     7    2
     8     6     7    1
     9    11    12    2
    10     7     8    1
    11    12    10    1
    12     8    10    2
