@<TRIPOS>MOLECULE
/home/cewinharhar/GITHUB/reincatalyze/data/processed/docking_pred/2023-May-02-0947_maxeplen10_maxtrainstep1000_seadep32_gamma099_lrac9e-4_lrcr1e-3/dd626561b0241c753f5aa586a778cbbb50e2da15_ligand_2.pdbqt
 12 12 0 0 0
SMALL
GASTEIGER

@<TRIPOS>ATOM
      1  C          5.9640   -0.8910    1.7840 C.3     1  UNL1        0.1270
      2  C          5.3740    0.4420    2.0470 C.2     1  UNL1        0.3030
      3  O          4.1950    0.5610    2.4660 O.2     1  UNL1       -0.2520
      4  O          6.1080    1.5980    1.8370 O.3     1  UNL1       -0.4810
      5  H          6.6940    1.9640    2.5940 H       1  UNL1        0.2960
      6  C          7.4200   -0.7100    1.4820 C.3     1  UNL1        0.0470
      7  C          7.7270   -0.6320    0.0550 C.2     1  UNL1       -0.0470
      8  C          8.8660    0.0010   -0.3860 C.2     1  UNL1        0.0040
      9  C          6.8620   -1.2020   -0.8500 C.2     1  UNL1        0.0040
     10  C          9.0950    0.0370   -1.7630 C.2     1  UNL1        0.0000
     11  C          7.0900   -1.1660   -2.2110 C.2     1  UNL1        0.0000
     12  C          8.2280   -0.5330   -2.6610 C.2     1  UNL1        0.0000
@<TRIPOS>BOND
     1    12    11    2
     2    12    10    1
     3    11     9    1
     4    10     8    2
     5     9     7    2
     6     8     7    1
     7     7     6    1
     8     6     1    1
     9     1     2    1
    10     4     2    1
    11     4     5    1
    12     2     3    2
