@<TRIPOS>MOLECULE
/home/cewinharhar/GITHUB/reincatalyze/data/processed/docking_pred/2023-May-02-0947_maxeplen10_maxtrainstep1000_seadep32_gamma099_lrac9e-4_lrcr1e-3/dd626561b0241c753f5aa586a778cbbb50e2da15_ligand_2.pdbqt
 12 12 0 0 0
SMALL
GASTEIGER

@<TRIPOS>ATOM
      1  C          5.0860   -0.1240    2.0390 C.3     1  UNL1        0.1270
      2  C          4.4080    1.1920    1.9690 C.2     1  UNL1        0.3030
      3  O          4.9290    2.1620    1.3660 O.2     1  UNL1       -0.2520
      4  O          3.1750    1.3880    2.5700 O.3     1  UNL1       -0.4810
      5  H          2.6820    2.2730    2.4270 H       1  UNL1        0.2960
      6  C          6.5380    0.0780    1.7270 C.3     1  UNL1        0.0470
      7  C          7.0150   -0.7010    0.5860 C.2     1  UNL1       -0.0470
      8  C          6.6450   -0.3690   -0.6960 C.2     1  UNL1        0.0040
      9  C          7.8460   -1.7750    0.8070 C.2     1  UNL1        0.0040
     10  C          7.1390   -1.1570   -1.7380 C.2     1  UNL1        0.0000
     11  C          8.3340   -2.5530   -0.2240 C.2     1  UNL1        0.0000
     12  C          7.9670   -2.2280   -1.5120 C.2     1  UNL1        0.0000
@<TRIPOS>BOND
     1    10    12    2
     2    10     8    1
     3    12    11    1
     4     8     7    2
     5    11     9    2
     6     7     9    1
     7     7     6    1
     8     3     2    2
     9     6     1    1
    10     2     1    1
    11     2     4    1
    12     5     4    1
