@<TRIPOS>MOLECULE
/home/cewinharhar/GITHUB/reincatalyze/data/processed/docking_pred/2023-May-02-0947_maxeplen10_maxtrainstep1000_seadep32_gamma099_lrac9e-4_lrcr1e-3/dd626561b0241c753f5aa586a778cbbb50e2da15_ligand_2.pdbqt
 12 12 0 0 0
SMALL
GASTEIGER

@<TRIPOS>ATOM
      1  C          8.3150   -0.6940   -2.1620 C.3     1  UNL1        0.1270
      2  C          8.4370   -1.9550   -2.9310 C.2     1  UNL1        0.3030
      3  O          9.5520   -2.5030   -3.1100 O.2     1  UNL1       -0.2520
      4  O          7.3180   -2.5640   -3.4770 O.3     1  UNL1       -0.4810
      5  H          7.2010   -3.5760   -3.3780 H       1  UNL1        0.2960
      6  C          6.8890   -0.5420   -1.7300 C.3     1  UNL1        0.0470
      7  C          6.6820   -0.7040   -0.2920 C.2     1  UNL1       -0.0470
      8  C          7.2810   -1.7350    0.3930 C.2     1  UNL1        0.0040
      9  C          5.8790    0.1920    0.3760 C.2     1  UNL1        0.0040
     10  C          7.0400   -1.8280    1.7660 C.2     1  UNL1        0.0000
     11  C          5.6410    0.0980    1.7330 C.2     1  UNL1        0.0000
     12  C          6.2380   -0.9330    2.4260 C.2     1  UNL1        0.0000
@<TRIPOS>BOND
     1     4     5    1
     2     4     2    1
     3     3     2    2
     4     2     1    1
     5     1     6    1
     6     6     7    1
     7     7     9    2
     8     7     8    1
     9     9    11    1
    10     8    10    2
    11    11    12    2
    12    10    12    1
