MODEL 1
REMARK VINA RESULT:      -7.1      0.000      0.000
REMARK SMILES O=C(O)CCc1ccccc1
REMARK SMILES IDX 4 1 2 2 1 3 3 4 5 6 6 7 7 8 11 9 8 10 10 11 9 12
REMARK H PARENT 3 5
REMARK Flexibility Score: inf
ROOT
ATOM      1  C   UNL     1       8.465  -0.635  -2.123  1.00  0.00     0.127 C 
ENDROOT
BRANCH   1   2
ATOM      2  C   UNL     1       8.490  -1.906  -2.885  1.00  0.00     0.303 C 
ATOM      3  O   UNL     1       9.562  -2.533  -3.070  1.00  0.00    -0.252 OA
BRANCH   2   4
ATOM      4  O   UNL     1       7.326  -2.439  -3.416  1.00  0.00    -0.481 OA
ATOM      5  H   UNL     1       7.247  -2.560  -4.429  1.00  0.00     0.296 HD
ENDBRANCH   2   4
ENDBRANCH   1   2
BRANCH   1   6
ATOM      6  C   UNL     1       7.057  -0.124  -2.107  1.00  0.00     0.047 C 
BRANCH   6   7
ATOM      7  C   UNL     1       6.492   0.019  -0.766  1.00  0.00    -0.047 A 
ATOM      8  C   UNL     1       6.615  -0.990   0.160  1.00  0.00     0.004 A 
ATOM      9  C   UNL     1       5.834   1.181  -0.436  1.00  0.00     0.004 A 
ATOM     10  C   UNL     1       6.051  -0.784   1.422  1.00  0.00     0.000 A 
ATOM     11  C   UNL     1       5.277   1.383   0.812  1.00  0.00     0.000 A 
ATOM     12  C   UNL     1       5.395   0.377   1.745  1.00  0.00     0.000 A 
ENDBRANCH   6   7
ENDBRANCH   1   6
TORSDOF 4
ENDMDL
MODEL 2
REMARK VINA RESULT:      -6.6      1.370      2.202
REMARK SMILES O=C(O)CCc1ccccc1
REMARK SMILES IDX 4 1 2 2 1 3 3 4 5 6 6 7 7 8 11 9 8 10 10 11 9 12
REMARK H PARENT 3 5
REMARK Flexibility Score: inf
ROOT
ATOM      1  C   UNL     1       8.300  -0.597  -2.074  1.00  0.00     0.127 C 
ENDROOT
BRANCH   1   2
ATOM      2  C   UNL     1       8.317  -1.841  -2.879  1.00  0.00     0.303 C 
ATOM      3  O   UNL     1       7.250  -2.383  -3.261  1.00  0.00    -0.252 OA
BRANCH   2   4
ATOM      4  O   UNL     1       9.514  -2.443  -3.232  1.00  0.00    -0.481 OA
ATOM      5  H   UNL     1       9.857  -2.350  -4.192  1.00  0.00     0.296 HD
ENDBRANCH   2   4
ENDBRANCH   1   2
BRANCH   1   6
ATOM      6  C   UNL     1       6.928  -0.427  -1.497  1.00  0.00     0.047 C 
BRANCH   6   7
ATOM      7  C   UNL     1       6.760   0.793  -0.711  1.00  0.00    -0.047 A 
ATOM      8  C   UNL     1       5.531   1.403  -0.611  1.00  0.00     0.004 A 
ATOM      9  C   UNL     1       7.849   1.331  -0.065  1.00  0.00     0.004 A 
ATOM     10  C   UNL     1       5.444   2.565   0.158  1.00  0.00     0.000 A 
ATOM     11  C   UNL     1       7.762   2.480   0.695  1.00  0.00     0.000 A 
ATOM     12  C   UNL     1       6.534   3.097   0.799  1.00  0.00     0.000 A 
ENDBRANCH   6   7
ENDBRANCH   1   6
TORSDOF 4
ENDMDL
