@<TRIPOS>MOLECULE
/home/cewinharhar/GITHUB/reincatalyze/data/processed/docking_pred/2023-May-02-0947_maxeplen10_maxtrainstep1000_seadep32_gamma099_lrac9e-4_lrcr1e-3/ddb46e737fe602632681221f3e2121514b9159c3_ligand_2.pdbqt
 12 12 0 0 0
SMALL
GASTEIGER

@<TRIPOS>ATOM
      1  C          8.4650   -0.6350   -2.1230 C.3     1  UNL1        0.1270
      2  C          8.4900   -1.9060   -2.8850 C.2     1  UNL1        0.3030
      3  O          9.5620   -2.5330   -3.0700 O.2     1  UNL1       -0.2520
      4  O          7.3260   -2.4390   -3.4160 O.3     1  UNL1       -0.4810
      5  H          7.2470   -2.5600   -4.4290 H       1  UNL1        0.2960
      6  C          7.0570   -0.1240   -2.1070 C.3     1  UNL1        0.0470
      7  C          6.4920    0.0190   -0.7660 C.2     1  UNL1       -0.0470
      8  C          6.6150   -0.9900    0.1600 C.2     1  UNL1        0.0040
      9  C          5.8340    1.1810   -0.4360 C.2     1  UNL1        0.0040
     10  C          6.0510   -0.7840    1.4220 C.2     1  UNL1        0.0000
     11  C          5.2770    1.3830    0.8120 C.2     1  UNL1        0.0000
     12  C          5.3950    0.3770    1.7450 C.2     1  UNL1        0.0000
@<TRIPOS>BOND
     1     5     4    1
     2     4     2    1
     3     3     2    2
     4     2     1    1
     5     1     6    1
     6     6     7    1
     7     7     9    2
     8     7     8    1
     9     9    11    1
    10     8    10    2
    11    11    12    2
    12    10    12    1
