@<TRIPOS>MOLECULE
/home/cewinharhar/GITHUB/reincatalyze/data/processed/docking_pred/2023-May-02-0947_maxeplen10_maxtrainstep1000_seadep32_gamma099_lrac9e-4_lrcr1e-3/ddb46e737fe602632681221f3e2121514b9159c3_ligand_2.pdbqt
 12 12 0 0 0
SMALL
GASTEIGER

@<TRIPOS>ATOM
      1  C          8.3000   -0.5970   -2.0740 C.3     1  UNL1        0.1270
      2  C          8.3170   -1.8410   -2.8790 C.2     1  UNL1        0.3030
      3  O          7.2500   -2.3830   -3.2610 O.2     1  UNL1       -0.2520
      4  O          9.5140   -2.4430   -3.2320 O.3     1  UNL1       -0.4810
      5  H          9.8570   -2.3500   -4.1920 H       1  UNL1        0.2960
      6  C          6.9280   -0.4270   -1.4970 C.3     1  UNL1        0.0470
      7  C          6.7600    0.7930   -0.7110 C.2     1  UNL1       -0.0470
      8  C          5.5310    1.4030   -0.6110 C.2     1  UNL1        0.0040
      9  C          7.8490    1.3310   -0.0650 C.2     1  UNL1        0.0040
     10  C          5.4440    2.5650    0.1580 C.2     1  UNL1        0.0000
     11  C          7.7620    2.4800    0.6950 C.2     1  UNL1        0.0000
     12  C          6.5340    3.0970    0.7990 C.2     1  UNL1        0.0000
@<TRIPOS>BOND
     1     5     4    1
     2     3     2    2
     3     4     2    1
     4     2     1    1
     5     1     6    1
     6     6     7    1
     7     7     8    2
     8     7     9    1
     9     8    10    1
    10     9    11    2
    11    10    12    2
    12    11    12    1
