@<TRIPOS>MOLECULE
/home/cewinharhar/GITHUB/reincatalyze/data/processed/docking_pred/2023-May-02-0947_maxeplen10_maxtrainstep1000_seadep32_gamma099_lrac9e-4_lrcr1e-3/de552809cd3cf8423e47c41d2ed627091c55f56d_ligand_2.pdbqt
 12 12 0 0 0
SMALL
GASTEIGER

@<TRIPOS>ATOM
      1  C          8.4080   -0.6620   -2.0680 C.3     1  UNL1        0.1270
      2  C          8.3760   -1.9030   -2.8780 C.2     1  UNL1        0.3030
      3  O          7.2890   -2.4120   -3.2450 O.2     1  UNL1       -0.2520
      4  O          9.5500   -2.5360   -3.2520 O.3     1  UNL1       -0.4810
      5  H         10.3850   -1.9740   -3.4380 H       1  UNL1        0.2960
      6  C          7.0340   -0.0650   -2.0680 C.3     1  UNL1        0.0470
      7  C          6.4590    0.1030   -0.7340 C.2     1  UNL1       -0.0470
      8  C          5.8030    1.2630   -0.3920 C.2     1  UNL1        0.0040
      9  C          6.5780   -0.9160    0.1810 C.2     1  UNL1        0.0040
     10  C          5.2770    1.3540    0.8990 C.2     1  UNL1        0.0000
     11  C          6.0590   -0.8250    1.4570 C.2     1  UNL1        0.0000
     12  C          5.4000    0.3340    1.8080 C.2     1  UNL1        0.0000
@<TRIPOS>BOND
     1     5     4    1
     2     4     2    1
     3     3     2    2
     4     2     1    1
     5     1     6    1
     6     6     7    1
     7     7     8    2
     8     7     9    1
     9     8    10    1
    10     9    11    2
    11    10    12    2
    12    11    12    1
