@<TRIPOS>MOLECULE
/home/cewinharhar/GITHUB/reincatalyze/data/processed/docking_pred/2023-May-02-0947_maxeplen10_maxtrainstep1000_seadep32_gamma099_lrac9e-4_lrcr1e-3/df357a1c250a0cea862119ec51667dccc9d8d697_ligand_2.pdbqt
 12 12 0 0 0
SMALL
GASTEIGER

@<TRIPOS>ATOM
      1  C          5.4690    2.8910    0.0160 C.3     1  UNL1        0.1270
      2  C          6.2590    3.8560    0.8170 C.2     1  UNL1        0.3030
      3  O          6.9290    4.7640    0.2650 O.2     1  UNL1       -0.2520
      4  O          6.2800    3.7820    2.2000 O.3     1  UNL1       -0.4810
      5  H          7.0240    3.2510    2.6620 H       1  UNL1        0.2960
      6  C          4.9490    1.8300    0.9380 C.3     1  UNL1        0.0470
      7  C          5.7380    0.6000    0.9330 C.2     1  UNL1       -0.0470
      8  C          6.4110    0.2000   -0.1990 C.2     1  UNL1        0.0040
      9  C          5.8050   -0.1600    2.0780 C.2     1  UNL1        0.0040
     10  C          7.1460   -0.9860   -0.1310 C.2     1  UNL1        0.0000
     11  C          6.5320   -1.3320    2.1430 C.2     1  UNL1        0.0000
     12  C          7.2080   -1.7390    1.0140 C.2     1  UNL1        0.0000
@<TRIPOS>BOND
     1     8    10    1
     2     8     7    2
     3    10    12    2
     4     1     2    1
     5     1     6    1
     6     3     2    2
     7     2     4    1
     8     7     6    1
     9     7     9    1
    10    12    11    1
    11     9    11    2
    12     4     5    1
