@<TRIPOS>MOLECULE
/home/cewinharhar/GITHUB/reincatalyze/data/processed/docking_pred/2023-May-02-0947_maxeplen10_maxtrainstep1000_seadep32_gamma099_lrac9e-4_lrcr1e-3/df357a1c250a0cea862119ec51667dccc9d8d697_ligand_2.pdbqt
 12 12 0 0 0
SMALL
GASTEIGER

@<TRIPOS>ATOM
      1  C          8.3570   -0.3860   -2.1280 C.3     1  UNL1        0.1270
      2  C          8.4620   -1.6960   -2.8130 C.2     1  UNL1        0.3030
      3  O          9.5710   -2.2680   -2.9570 O.2     1  UNL1       -0.2520
      4  O          7.3360   -2.3270   -3.3170 O.3     1  UNL1       -0.4810
      5  H          7.4120   -3.2870   -3.6640 H       1  UNL1        0.2960
      6  C          6.9100   -0.0020   -2.0680 C.3     1  UNL1        0.0470
      7  C          6.3880    0.1420   -0.7100 C.2     1  UNL1       -0.0470
      8  C          5.7540    1.2980   -0.3190 C.2     1  UNL1        0.0040
      9  C          6.5360   -0.8970    0.1790 C.2     1  UNL1        0.0040
     10  C          5.2800    1.3650    0.9930 C.2     1  UNL1        0.0000
     11  C          6.0670   -0.8290    1.4760 C.2     1  UNL1        0.0000
     12  C          5.4310    0.3250    1.8760 C.2     1  UNL1        0.0000
@<TRIPOS>BOND
     1     5     4    1
     2     4     2    1
     3     3     2    2
     4     2     1    1
     5     1     6    1
     6     6     7    1
     7     7     8    2
     8     7     9    1
     9     8    10    1
    10     9    11    2
    11    10    12    2
    12    11    12    1
