MODEL 1
REMARK VINA RESULT:      -6.7      0.000      0.000
REMARK SMILES O=C(O)CCc1ccccc1
REMARK SMILES IDX 4 1 2 2 1 3 3 4 5 6 6 7 7 8 11 9 8 10 10 11 9 12
REMARK H PARENT 3 5
REMARK Flexibility Score: inf
ROOT
ATOM      1  C   UNL     1       8.357  -0.386  -2.128  1.00  0.00     0.127 C 
ENDROOT
BRANCH   1   2
ATOM      2  C   UNL     1       8.462  -1.696  -2.813  1.00  0.00     0.303 C 
ATOM      3  O   UNL     1       9.571  -2.268  -2.957  1.00  0.00    -0.252 OA
BRANCH   2   4
ATOM      4  O   UNL     1       7.336  -2.327  -3.317  1.00  0.00    -0.481 OA
ATOM      5  H   UNL     1       7.412  -3.287  -3.664  1.00  0.00     0.296 HD
ENDBRANCH   2   4
ENDBRANCH   1   2
BRANCH   1   6
ATOM      6  C   UNL     1       6.910  -0.002  -2.068  1.00  0.00     0.047 C 
BRANCH   6   7
ATOM      7  C   UNL     1       6.388   0.142  -0.710  1.00  0.00    -0.047 A 
ATOM      8  C   UNL     1       5.754   1.298  -0.319  1.00  0.00     0.004 A 
ATOM      9  C   UNL     1       6.536  -0.897   0.179  1.00  0.00     0.004 A 
ATOM     10  C   UNL     1       5.280   1.365   0.993  1.00  0.00     0.000 A 
ATOM     11  C   UNL     1       6.067  -0.829   1.476  1.00  0.00     0.000 A 
ATOM     12  C   UNL     1       5.431   0.325   1.876  1.00  0.00     0.000 A 
ENDBRANCH   6   7
ENDBRANCH   1   6
TORSDOF 4
ENDMDL
MODEL 2
REMARK VINA RESULT:      -6.7      3.731      4.800
REMARK SMILES O=C(O)CCc1ccccc1
REMARK SMILES IDX 4 1 2 2 1 3 3 4 5 6 6 7 7 8 11 9 8 10 10 11 9 12
REMARK H PARENT 3 5
REMARK Flexibility Score: inf
ROOT
ATOM      1  C   UNL     1       5.469   2.891   0.016  1.00  0.00     0.127 C 
ENDROOT
BRANCH   1   2
ATOM      2  C   UNL     1       6.259   3.856   0.817  1.00  0.00     0.303 C 
ATOM      3  O   UNL     1       6.929   4.764   0.265  1.00  0.00    -0.252 OA
BRANCH   2   4
ATOM      4  O   UNL     1       6.280   3.782   2.200  1.00  0.00    -0.481 OA
ATOM      5  H   UNL     1       7.024   3.251   2.662  1.00  0.00     0.296 HD
ENDBRANCH   2   4
ENDBRANCH   1   2
BRANCH   1   6
ATOM      6  C   UNL     1       4.949   1.830   0.938  1.00  0.00     0.047 C 
BRANCH   6   7
ATOM      7  C   UNL     1       5.738   0.600   0.933  1.00  0.00    -0.047 A 
ATOM      8  C   UNL     1       6.411   0.200  -0.199  1.00  0.00     0.004 A 
ATOM      9  C   UNL     1       5.805  -0.160   2.078  1.00  0.00     0.004 A 
ATOM     10  C   UNL     1       7.146  -0.986  -0.131  1.00  0.00     0.000 A 
ATOM     11  C   UNL     1       6.532  -1.332   2.143  1.00  0.00     0.000 A 
ATOM     12  C   UNL     1       7.208  -1.739   1.014  1.00  0.00     0.000 A 
ENDBRANCH   6   7
ENDBRANCH   1   6
TORSDOF 4
ENDMDL
