@<TRIPOS>MOLECULE
/home/cewinharhar/GITHUB/reincatalyze/data/processed/docking_pred/2023-May-02-0947_maxeplen10_maxtrainstep1000_seadep32_gamma099_lrac9e-4_lrcr1e-3/df357a1c250a0cea862119ec51667dccc9d8d697_ligand_2.pdbqt
 12 12 0 0 0
SMALL
GASTEIGER

@<TRIPOS>ATOM
      1  C          5.0950   -0.1270    2.0430 C.3     1  UNL1        0.1270
      2  C          4.4120    1.1870    1.9720 C.2     1  UNL1        0.3030
      3  O          4.9290    2.1570    1.3640 O.2     1  UNL1       -0.2520
      4  O          3.1810    1.3800    2.5760 O.3     1  UNL1       -0.4810
      5  H          2.3860    1.6860    2.0080 H       1  UNL1        0.2960
      6  C          6.5440    0.0790    1.7230 C.3     1  UNL1        0.0470
      7  C          7.0160   -0.6970    0.5770 C.2     1  UNL1       -0.0470
      8  C          6.6300   -0.3680   -0.7010 C.2     1  UNL1        0.0040
      9  C          7.8570   -1.7650    0.7900 C.2     1  UNL1        0.0040
     10  C          7.1190   -1.1520   -1.7480 C.2     1  UNL1        0.0000
     11  C          8.3400   -2.5390   -0.2470 C.2     1  UNL1        0.0000
     12  C          7.9570   -2.2170   -1.5310 C.2     1  UNL1        0.0000
@<TRIPOS>BOND
     1    10    12    2
     2    10     8    1
     3    12    11    1
     4     8     7    2
     5    11     9    2
     6     7     9    1
     7     7     6    1
     8     3     2    2
     9     6     1    1
    10     2     1    1
    11     2     4    1
    12     5     4    1
