@<TRIPOS>MOLECULE
/home/cewinharhar/GITHUB/reincatalyze/data/processed/docking_pred/2023-May-02-0947_maxeplen10_maxtrainstep1000_seadep32_gamma099_lrac9e-4_lrcr1e-3/e1ac879641feb84a16575019a922afe40680d27c_ligand_2.pdbqt
 12 12 0 0 0
SMALL
GASTEIGER

@<TRIPOS>ATOM
      1  C          7.2520   -1.2420   -2.1860 C.3     1  UNL1        0.1270
      2  C          8.6890   -1.2960   -2.5410 C.2     1  UNL1        0.3030
      3  O          9.4950   -0.4260   -2.1270 O.2     1  UNL1       -0.2520
      4  O          9.1850   -2.3120   -3.3420 O.3     1  UNL1       -0.4810
      5  H          9.5120   -2.0910   -4.2860 H       1  UNL1        0.2960
      6  C          7.1320   -1.3120   -0.6940 C.3     1  UNL1        0.0470
      7  C          6.3810   -0.2050   -0.1060 C.2     1  UNL1       -0.0470
      8  C          5.9550   -0.2600    1.2010 C.2     1  UNL1        0.0040
      9  C          6.1040    0.9020   -0.8740 C.2     1  UNL1        0.0040
     10  C          5.2440    0.8340    1.6980 C.2     1  UNL1        0.0000
     11  C          5.4000    1.9830   -0.3810 C.2     1  UNL1        0.0000
     12  C          4.9690    1.9350    0.9270 C.2     1  UNL1        0.0000
@<TRIPOS>BOND
     1     5     4    1
     2     4     2    1
     3     2     1    1
     4     2     3    2
     5     1     6    1
     6     9    11    1
     7     9     7    2
     8     6     7    1
     9    11    12    2
    10     7     8    1
    11    12    10    1
    12     8    10    2
