@<TRIPOS>MOLECULE
/home/cewinharhar/GITHUB/reincatalyze/data/processed/docking_pred/2023-May-02-0947_maxeplen10_maxtrainstep1000_seadep32_gamma099_lrac9e-4_lrcr1e-3/e3e0f9713a2c6d1770d60d03407d62bfa70f046f_ligand_2.pdbqt
 12 12 0 0 0
SMALL
GASTEIGER

@<TRIPOS>ATOM
      1  C          8.4020   -0.6530   -2.0790 C.3     1  UNL1        0.1270
      2  C          8.3720   -1.9010   -2.8780 C.2     1  UNL1        0.3030
      3  O          7.2860   -2.4100   -3.2500 O.2     1  UNL1       -0.2520
      4  O          9.5460   -2.5430   -3.2370 O.3     1  UNL1       -0.4810
      5  H         10.1150   -2.1580   -3.9970 H       1  UNL1        0.2960
      6  C          7.0230   -0.0660   -2.0730 C.3     1  UNL1        0.0470
      7  C          6.4550    0.1020   -0.7360 C.2     1  UNL1       -0.0470
      8  C          5.8020    1.2620   -0.3900 C.2     1  UNL1        0.0040
      9  C          6.5790   -0.9170    0.1790 C.2     1  UNL1        0.0040
     10  C          5.2830    1.3530    0.9030 C.2     1  UNL1        0.0000
     11  C          6.0670   -0.8260    1.4580 C.2     1  UNL1        0.0000
     12  C          5.4110    0.3330    1.8120 C.2     1  UNL1        0.0000
@<TRIPOS>BOND
     1     5     4    1
     2     3     2    2
     3     4     2    1
     4     2     1    1
     5     1     6    1
     6     6     7    1
     7     7     8    2
     8     7     9    1
     9     8    10    1
    10     9    11    2
    11    10    12    2
    12    11    12    1
