@<TRIPOS>MOLECULE
/home/cewinharhar/GITHUB/reincatalyze/data/processed/docking_pred/2023-May-02-0947_maxeplen10_maxtrainstep1000_seadep32_gamma099_lrac9e-4_lrcr1e-3/e4036567ae6c7c824a0e93db279f74886267d276_ligand_2.pdbqt
 12 12 0 0 0
SMALL
GASTEIGER

@<TRIPOS>ATOM
      1  C          8.4510   -0.6600   -2.0780 C.3     1  UNL1        0.1270
      2  C          8.4720   -1.9110   -2.8720 C.2     1  UNL1        0.3030
      3  O          9.5440   -2.5270   -3.0880 O.2     1  UNL1       -0.2520
      4  O          7.3030   -2.4360   -3.4000 O.3     1  UNL1       -0.4810
      5  H          6.4930   -1.8230   -3.5310 H       1  UNL1        0.2960
      6  C          7.0530   -0.1210   -2.0840 C.3     1  UNL1        0.0470
      7  C          6.4790    0.0590   -0.7520 C.2     1  UNL1       -0.0470
      8  C          5.8330    1.2260   -0.4160 C.2     1  UNL1        0.0040
      9  C          6.5890   -0.9570    0.1690 C.2     1  UNL1        0.0040
     10  C          5.3080    1.3280    0.8740 C.2     1  UNL1        0.0000
     11  C          6.0690   -0.8540    1.4440 C.2     1  UNL1        0.0000
     12  C          5.4210    0.3120    1.7890 C.2     1  UNL1        0.0000
@<TRIPOS>BOND
     1     5     4    1
     2     4     2    1
     3     3     2    2
     4     2     1    1
     5     6     1    1
     6     6     7    1
     7     7     8    2
     8     7     9    1
     9     8    10    1
    10     9    11    2
    11    10    12    2
    12    11    12    1
