@<TRIPOS>MOLECULE
/home/cewinharhar/GITHUB/reincatalyze/data/processed/docking_pred/2023-May-02-0947_maxeplen10_maxtrainstep1000_seadep32_gamma099_lrac9e-4_lrcr1e-3/e4036567ae6c7c824a0e93db279f74886267d276_ligand_2.pdbqt
 12 12 0 0 0
SMALL
GASTEIGER

@<TRIPOS>ATOM
      1  C          8.2750   -0.5350   -2.1820 C.3     1  UNL1        0.1270
      2  C          8.3080   -1.8220   -2.9160 C.2     1  UNL1        0.3030
      3  O          7.2490   -2.3920   -3.2770 O.2     1  UNL1       -0.2520
      4  O          9.5130   -2.4320   -3.2250 O.3     1  UNL1       -0.4810
      5  H          9.5880   -3.4510   -3.1630 H       1  UNL1        0.2960
      6  C          6.9570   -0.4280   -1.4770 C.3     1  UNL1        0.0470
      7  C          6.7930    0.8040   -0.7070 C.2     1  UNL1       -0.0470
      8  C          7.8640    1.3810   -0.0660 C.2     1  UNL1        0.0040
      9  C          5.5490    1.3860   -0.6310 C.2     1  UNL1        0.0040
     10  C          7.6340    2.5570    0.6510 C.2     1  UNL1        0.0000
     11  C          5.3230    2.5490    0.0780 C.2     1  UNL1        0.0000
     12  C          6.3910    3.1330    0.7240 C.2     1  UNL1        0.0000
@<TRIPOS>BOND
     1     3     2    2
     2     4     5    1
     3     4     2    1
     4     2     1    1
     5     1     6    1
     6     6     7    1
     7     7     9    2
     8     7     8    1
     9     9    11    1
    10     8    10    2
    11    11    12    2
    12    10    12    1
