@<TRIPOS>MOLECULE
/home/cewinharhar/GITHUB/reincatalyze/data/processed/docking_pred/2023-May-02-0947_maxeplen10_maxtrainstep1000_seadep32_gamma099_lrac9e-4_lrcr1e-3/e5153a6a2872aa0f73be7da8df97a591d10f8a10_ligand_2.pdbqt
 12 12 0 0 0
SMALL
GASTEIGER

@<TRIPOS>ATOM
      1  C          5.9380   -0.8920    1.7740 C.3     1  UNL1        0.1270
      2  C          5.3810    0.4540    2.0470 C.2     1  UNL1        0.3030
      3  O          4.2020    0.6000    2.4560 O.2     1  UNL1       -0.2520
      4  O          6.1480    1.5920    1.8570 O.3     1  UNL1       -0.4810
      5  H          6.8010    1.8840    2.5890 H       1  UNL1        0.2960
      6  C          7.4010   -0.7460    1.4870 C.3     1  UNL1        0.0470
      7  C          7.7200   -0.6420    0.0640 C.2     1  UNL1       -0.0470
      8  C          8.8610    0.0010   -0.3560 C.2     1  UNL1        0.0040
      9  C          6.8640   -1.1980   -0.8590 C.2     1  UNL1        0.0040
     10  C          9.1030    0.0620   -1.7300 C.2     1  UNL1        0.0000
     11  C          7.1050   -1.1370   -2.2170 C.2     1  UNL1        0.0000
     12  C          8.2450   -0.4940   -2.6460 C.2     1  UNL1        0.0000
@<TRIPOS>BOND
     1    12    11    2
     2    12    10    1
     3    11     9    1
     4    10     8    2
     5     9     7    2
     6     8     7    1
     7     7     6    1
     8     6     1    1
     9     1     2    1
    10     4     2    1
    11     4     5    1
    12     2     3    2
