@<TRIPOS>MOLECULE
/home/cewinharhar/GITHUB/reincatalyze/data/processed/docking_pred/2023-May-02-0947_maxeplen10_maxtrainstep1000_seadep32_gamma099_lrac9e-4_lrcr1e-3/e5153a6a2872aa0f73be7da8df97a591d10f8a10_ligand_2.pdbqt
 12 12 0 0 0
SMALL
GASTEIGER

@<TRIPOS>ATOM
      1  C          8.2530   -1.2840   -1.9800 C.3     1  UNL1        0.1270
      2  C          8.9140    0.0410   -2.0320 C.2     1  UNL1        0.3030
      3  O          8.4020    1.0000   -2.6610 O.2     1  UNL1       -0.2520
      4  O         10.1210    0.2580   -1.3860 O.3     1  UNL1       -0.4810
      5  H         10.8410   -0.4690   -1.4130 H       1  UNL1        0.2960
      6  C          6.8100   -1.0770   -1.6340 C.3     1  UNL1        0.0470
      7  C          6.5610   -0.8910   -0.2060 C.2     1  UNL1       -0.0470
      8  C          5.8410    0.1890    0.2480 C.2     1  UNL1        0.0040
      9  C          7.0550   -1.8140    0.6870 C.2     1  UNL1        0.0040
     10  C          5.6410    0.3020    1.6260 C.2     1  UNL1        0.0000
     11  C          6.8570   -1.7000    2.0490 C.2     1  UNL1        0.0000
     12  C          6.1370   -0.6210    2.5120 C.2     1  UNL1        0.0000
@<TRIPOS>BOND
     1     3     2    2
     2     2     1    1
     3     2     4    1
     4     1     6    1
     5     6     7    1
     6     5     4    1
     7     7     8    2
     8     7     9    1
     9     8    10    1
    10     9    11    2
    11    10    12    2
    12    11    12    1
