@<TRIPOS>MOLECULE
/home/cewinharhar/GITHUB/reincatalyze/data/processed/docking_pred/2023-May-02-0947_maxeplen10_maxtrainstep1000_seadep32_gamma099_lrac9e-4_lrcr1e-3/e5153a6a2872aa0f73be7da8df97a591d10f8a10_ligand_2.pdbqt
 12 12 0 0 0
SMALL
GASTEIGER

@<TRIPOS>ATOM
      1  C          5.1000   -0.1290    2.0460 C.3     1  UNL1        0.1270
      2  C          4.4160    1.1830    1.9740 C.2     1  UNL1        0.3030
      3  O          4.9310    2.1540    1.3660 O.2     1  UNL1       -0.2520
      4  O          3.1840    1.3750    2.5800 O.3     1  UNL1       -0.4810
      5  H          2.4650    1.9160    2.0910 H       1  UNL1        0.2960
      6  C          6.5480    0.0770    1.7210 C.3     1  UNL1        0.0470
      7  C          7.0160   -0.6960    0.5710 C.2     1  UNL1       -0.0470
      8  C          6.6260   -0.3620   -0.7050 C.2     1  UNL1        0.0040
      9  C          7.8570   -1.7650    0.7780 C.2     1  UNL1        0.0040
     10  C          7.1120   -1.1430   -1.7560 C.2     1  UNL1        0.0000
     11  C          8.3360   -2.5360   -0.2620 C.2     1  UNL1        0.0000
     12  C          7.9500   -2.2090   -1.5440 C.2     1  UNL1        0.0000
@<TRIPOS>BOND
     1    10    12    2
     2    10     8    1
     3    12    11    1
     4     8     7    2
     5    11     9    2
     6     7     9    1
     7     7     6    1
     8     3     2    2
     9     6     1    1
    10     2     1    1
    11     2     4    1
    12     5     4    1
