@<TRIPOS>MOLECULE
/home/cewinharhar/GITHUB/reincatalyze/data/processed/docking_pred/2023-May-02-0947_maxeplen10_maxtrainstep1000_seadep32_gamma099_lrac9e-4_lrcr1e-3/e8fc6854485d68a8d0bf78bf523603f1a9cbeca9_ligand_2.pdbqt
 12 12 0 0 0
SMALL
GASTEIGER

@<TRIPOS>ATOM
      1  C          8.3150   -0.5310   -2.2730 C.3     1  UNL1        0.1270
      2  C          8.4050   -1.8500   -2.9420 C.2     1  UNL1        0.3030
      3  O          9.5080   -2.4350   -3.0810 O.2     1  UNL1       -0.2520
      4  O          7.2720   -2.4770   -3.4330 O.3     1  UNL1       -0.4810
      5  H          6.3490   -2.1640   -3.1170 H       1  UNL1        0.2960
      6  C          7.0310   -0.4810   -1.5020 C.3     1  UNL1        0.0470
      7  C          6.8440    0.7500   -0.7360 C.2     1  UNL1       -0.0470
      8  C          7.9050    1.3480   -0.0970 C.2     1  UNL1        0.0040
      9  C          5.5900    1.3110   -0.6610 C.2     1  UNL1        0.0040
     10  C          7.6540    2.5230    0.6150 C.2     1  UNL1        0.0000
     11  C          5.3440    2.4720    0.0440 C.2     1  UNL1        0.0000
     12  C          6.4010    3.0770    0.6870 C.2     1  UNL1        0.0000
@<TRIPOS>BOND
     1     4     5    1
     2     4     2    1
     3     3     2    2
     4     2     1    1
     5     1     6    1
     6     6     7    1
     7     7     9    2
     8     7     8    1
     9     9    11    1
    10     8    10    2
    11    11    12    2
    12    10    12    1
