@<TRIPOS>MOLECULE
/home/cewinharhar/GITHUB/reincatalyze/data/processed/docking_pred/2023-May-02-0947_maxeplen10_maxtrainstep1000_seadep32_gamma099_lrac9e-4_lrcr1e-3/e9ca5ba4bc0452251e134010a3e53239cf47eed8_ligand_2.pdbqt
 12 12 0 0 0
SMALL
GASTEIGER

@<TRIPOS>ATOM
      1  C          8.3970   -0.6370   -2.0980 C.3     1  UNL1        0.1270
      2  C          8.3680   -1.8960   -2.8810 C.2     1  UNL1        0.3030
      3  O          7.2820   -2.4070   -3.2510 O.2     1  UNL1       -0.2520
      4  O          9.5420   -2.5440   -3.2260 O.3     1  UNL1       -0.4810
      5  H         10.4260   -2.0290   -3.1980 H       1  UNL1        0.2960
      6  C          7.0140   -0.0610   -2.0830 C.3     1  UNL1        0.0470
      7  C          6.4530    0.1050   -0.7430 C.2     1  UNL1       -0.0470
      8  C          5.7960    1.2620   -0.3940 C.2     1  UNL1        0.0040
      9  C          6.5880   -0.9130    0.1720 C.2     1  UNL1        0.0040
     10  C          5.2850    1.3510    0.9030 C.2     1  UNL1        0.0000
     11  C          6.0830   -0.8230    1.4530 C.2     1  UNL1        0.0000
     12  C          5.4240    0.3320    1.8110 C.2     1  UNL1        0.0000
@<TRIPOS>BOND
     1     3     2    2
     2     4     5    1
     3     4     2    1
     4     2     1    1
     5     1     6    1
     6     6     7    1
     7     7     8    2
     8     7     9    1
     9     8    10    1
    10     9    11    2
    11    10    12    2
    12    11    12    1
