@<TRIPOS>MOLECULE
/home/cewinharhar/GITHUB/reincatalyze/data/processed/docking_pred/2023-May-02-0947_maxeplen10_maxtrainstep1000_seadep32_gamma099_lrac9e-4_lrcr1e-3/ea9f39b4277e7ba3f00603e8654b95ed05d2571c_ligand_2.pdbqt
 12 12 0 0 0
SMALL
GASTEIGER

@<TRIPOS>ATOM
      1  C          7.3130   -1.2840   -2.1280 C.3     1  UNL1        0.1270
      2  C          8.7610   -1.2730   -2.4440 C.2     1  UNL1        0.3030
      3  O          9.2810   -2.1770   -3.1440 O.2     1  UNL1       -0.2520
      4  O          9.5830   -0.2620   -1.9740 O.3     1  UNL1       -0.4810
      5  H          9.8290    0.5130   -2.5950 H       1  UNL1        0.2960
      6  C          7.1560   -1.3800   -0.6410 C.3     1  UNL1        0.0470
      7  C          6.3920   -0.2830   -0.0510 C.2     1  UNL1       -0.0470
      8  C          5.9370   -0.3590    1.2450 C.2     1  UNL1        0.0040
      9  C          6.1310    0.8360   -0.8080 C.2     1  UNL1        0.0040
     10  C          5.2150    0.7270    1.7430 C.2     1  UNL1        0.0000
     11  C          5.4160    1.9090   -0.3140 C.2     1  UNL1        0.0000
     12  C          4.9570    1.8400    0.9840 C.2     1  UNL1        0.0000
@<TRIPOS>BOND
     1     3     2    2
     2     5     4    1
     3     2     1    1
     4     2     4    1
     5     1     6    1
     6     9    11    1
     7     9     7    2
     8     6     7    1
     9    11    12    2
    10     7     8    1
    11    12    10    1
    12     8    10    2
