@<TRIPOS>MOLECULE
/home/cewinharhar/GITHUB/reincatalyze/data/processed/docking_pred/2023-May-02-0947_maxeplen10_maxtrainstep1000_seadep32_gamma099_lrac9e-4_lrcr1e-3/ea9f39b4277e7ba3f00603e8654b95ed05d2571c_ligand_2.pdbqt
 12 12 0 0 0
SMALL
GASTEIGER

@<TRIPOS>ATOM
      1  C          5.4860    2.8870   -0.0290 C.3     1  UNL1        0.1270
      2  C          6.2490    3.8640    0.7850 C.2     1  UNL1        0.3030
      3  O          6.9230    4.7750    0.2440 O.2     1  UNL1       -0.2520
      4  O          6.2380    3.7970    2.1680 O.3     1  UNL1       -0.4810
      5  H          5.8890    2.9500    2.6260 H       1  UNL1        0.2960
      6  C          4.9390    1.8360    0.8880 C.3     1  UNL1        0.0470
      7  C          5.7160    0.5980    0.9030 C.2     1  UNL1       -0.0470
      8  C          6.3610    0.1580   -0.2290 C.2     1  UNL1        0.0040
      9  C          5.7990   -0.1280    2.0690 C.2     1  UNL1        0.0040
     10  C          7.0860   -1.0330   -0.1420 C.2     1  UNL1        0.0000
     11  C          6.5160   -1.3050    2.1540 C.2     1  UNL1        0.0000
     12  C          7.1640   -1.7530    1.0230 C.2     1  UNL1        0.0000
@<TRIPOS>BOND
     1     8    10    1
     2     8     7    2
     3    10    12    2
     4     1     2    1
     5     1     6    1
     6     3     2    2
     7     2     4    1
     8     6     7    1
     9     7     9    1
    10    12    11    1
    11     9    11    2
    12     4     5    1
