MODEL 1
REMARK VINA RESULT:      -7.3      0.000      0.000
REMARK SMILES O=C(O)CCc1ccccc1
REMARK SMILES IDX 4 1 2 2 1 3 3 4 5 6 6 7 7 8 11 9 8 10 10 11 9 12
REMARK H PARENT 3 5
REMARK Flexibility Score: inf
ROOT
ATOM      1  C   UNL     1       8.482  -0.661  -2.081  1.00  0.00     0.127 C 
ENDROOT
BRANCH   1   2
ATOM      2  C   UNL     1       8.495  -1.915  -2.871  1.00  0.00     0.303 C 
ATOM      3  O   UNL     1       9.561  -2.549  -3.068  1.00  0.00    -0.252 OA
BRANCH   2   4
ATOM      4  O   UNL     1       7.327  -2.421  -3.418  1.00  0.00    -0.481 OA
ATOM      5  H   UNL     1       7.356  -2.859  -4.343  1.00  0.00     0.296 HD
ENDBRANCH   2   4
ENDBRANCH   1   2
BRANCH   1   6
ATOM      6  C   UNL     1       7.093  -0.100  -2.112  1.00  0.00     0.047 C 
BRANCH   6   7
ATOM      7  C   UNL     1       6.503   0.101  -0.790  1.00  0.00    -0.047 A 
ATOM      8  C   UNL     1       5.838   1.267  -0.486  1.00  0.00     0.004 A 
ATOM      9  C   UNL     1       6.617  -0.893   0.154  1.00  0.00     0.004 A 
ATOM     10  C   UNL     1       5.299   1.389   0.796  1.00  0.00     0.000 A 
ATOM     11  C   UNL     1       6.083  -0.770   1.422  1.00  0.00     0.000 A 
ATOM     12  C   UNL     1       5.416   0.395   1.734  1.00  0.00     0.000 A 
ENDBRANCH   6   7
ENDBRANCH   1   6
TORSDOF 4
ENDMDL
