@<TRIPOS>MOLECULE
/home/cewinharhar/GITHUB/reincatalyze/data/processed/docking_pred/2023-May-02-0947_maxeplen10_maxtrainstep1000_seadep32_gamma099_lrac9e-4_lrcr1e-3/eb53456adf8787420c4e8f25112cf644d6bf88f9_ligand_2.pdbqt
 12 12 0 0 0
SMALL
GASTEIGER

@<TRIPOS>ATOM
      1  C          5.0280   -0.1050    2.0140 C.3     1  UNL1        0.1270
      2  C          4.3490    1.2110    1.9510 C.2     1  UNL1        0.3030
      3  O          4.8490    2.1720    1.3160 O.2     1  UNL1       -0.2520
      4  O          3.1380    1.4160    2.5930 O.3     1  UNL1       -0.4810
      5  H          3.1160    1.4620    3.6160 H       1  UNL1        0.2960
      6  C          6.4830    0.1020    1.7190 C.3     1  UNL1        0.0470
      7  C          6.9800   -0.6890    0.5940 C.2     1  UNL1       -0.0470
      8  C          6.6390   -0.3650   -0.6980 C.2     1  UNL1        0.0040
      9  C          7.8000   -1.7650    0.8410 C.2     1  UNL1        0.0040
     10  C          7.1510   -1.1640   -1.7230 C.2     1  UNL1        0.0000
     11  C          8.3050   -2.5540   -0.1730 C.2     1  UNL1        0.0000
     12  C          7.9670   -2.2370   -1.4710 C.2     1  UNL1        0.0000
@<TRIPOS>BOND
     1    10    12    2
     2    10     8    1
     3    12    11    1
     4     8     7    2
     5    11     9    2
     6     7     9    1
     7     7     6    1
     8     3     2    2
     9     6     1    1
    10     2     1    1
    11     2     4    1
    12     4     5    1
