@<TRIPOS>MOLECULE
/home/cewinharhar/GITHUB/reincatalyze/data/processed/docking_pred/2023-May-02-0947_maxeplen10_maxtrainstep1000_seadep32_gamma099_lrac9e-4_lrcr1e-3/eb53456adf8787420c4e8f25112cf644d6bf88f9_ligand_2.pdbqt
 12 12 0 0 0
SMALL
GASTEIGER

@<TRIPOS>ATOM
      1  C          8.4820   -0.6610   -2.0810 C.3     1  UNL1        0.1270
      2  C          8.4950   -1.9150   -2.8710 C.2     1  UNL1        0.3030
      3  O          9.5610   -2.5490   -3.0680 O.2     1  UNL1       -0.2520
      4  O          7.3270   -2.4210   -3.4180 O.3     1  UNL1       -0.4810
      5  H          7.3560   -2.8590   -4.3430 H       1  UNL1        0.2960
      6  C          7.0930   -0.1000   -2.1120 C.3     1  UNL1        0.0470
      7  C          6.5030    0.1010   -0.7900 C.2     1  UNL1       -0.0470
      8  C          5.8380    1.2670   -0.4860 C.2     1  UNL1        0.0040
      9  C          6.6170   -0.8930    0.1540 C.2     1  UNL1        0.0040
     10  C          5.2990    1.3890    0.7960 C.2     1  UNL1        0.0000
     11  C          6.0830   -0.7700    1.4220 C.2     1  UNL1        0.0000
     12  C          5.4160    0.3950    1.7340 C.2     1  UNL1        0.0000
@<TRIPOS>BOND
     1     5     4    1
     2     4     2    1
     3     3     2    2
     4     2     1    1
     5     6     1    1
     6     6     7    1
     7     7     8    2
     8     7     9    1
     9     8    10    1
    10     9    11    2
    11    10    12    2
    12    11    12    1
