@<TRIPOS>MOLECULE
/home/cewinharhar/GITHUB/reincatalyze/data/processed/docking_pred/2023-May-02-0947_maxeplen10_maxtrainstep1000_seadep32_gamma099_lrac9e-4_lrcr1e-3/eb53456adf8787420c4e8f25112cf644d6bf88f9_ligand_2.pdbqt
 12 12 0 0 0
SMALL
GASTEIGER

@<TRIPOS>ATOM
      1  C          5.9170   -0.8930    1.7570 C.3     1  UNL1        0.1270
      2  C          5.3660    0.4530    2.0440 C.2     1  UNL1        0.3030
      3  O          4.1930    0.5990    2.4680 O.2     1  UNL1       -0.2520
      4  O          6.1340    1.5900    1.8510 O.3     1  UNL1       -0.4810
      5  H          5.8020    2.3160    1.2100 H       1  UNL1        0.2960
      6  C          7.3830   -0.7520    1.4800 C.3     1  UNL1        0.0470
      7  C          7.7120   -0.6520    0.0590 C.2     1  UNL1       -0.0470
      8  C          8.8540   -0.0050   -0.3550 C.2     1  UNL1        0.0040
      9  C          6.8670   -1.2170   -0.8680 C.2     1  UNL1        0.0040
     10  C          9.1060    0.0510   -1.7280 C.2     1  UNL1        0.0000
     11  C          7.1170   -1.1600   -2.2240 C.2     1  UNL1        0.0000
     12  C          8.2580   -0.5130   -2.6470 C.2     1  UNL1        0.0000
@<TRIPOS>BOND
     1    12    11    2
     2    12    10    1
     3    11     9    1
     4    10     8    2
     5     9     7    2
     6     8     7    1
     7     7     6    1
     8     5     4    1
     9     6     1    1
    10     1     2    1
    11     4     2    1
    12     2     3    2
