@<TRIPOS>MOLECULE
/home/cewinharhar/GITHUB/reincatalyze/data/processed/docking_pred/2023-May-02-0947_maxeplen10_maxtrainstep1000_seadep32_gamma099_lrac9e-4_lrcr1e-3/f15420a79f585431148ea344134f913ab78e73cd_ligand_2.pdbqt
 12 12 0 0 0
SMALL
GASTEIGER

@<TRIPOS>ATOM
      1  C          8.4020   -0.6570   -2.0780 C.3     1  UNL1        0.1270
      2  C          8.3750   -1.9010   -2.8820 C.2     1  UNL1        0.3030
      3  O          7.2900   -2.4130   -3.2530 O.2     1  UNL1       -0.2520
      4  O          9.5510   -2.5370   -3.2460 O.3     1  UNL1       -0.4810
      5  H         10.4170   -2.3120   -2.7490 H       1  UNL1        0.2960
      6  C          7.0240   -0.0700   -2.0720 C.3     1  UNL1        0.0470
      7  C          6.4520    0.0920   -0.7370 C.2     1  UNL1       -0.0470
      8  C          5.7960    1.2490   -0.3880 C.2     1  UNL1        0.0040
      9  C          6.5730   -0.9320    0.1740 C.2     1  UNL1        0.0040
     10  C          5.2740    1.3340    0.9050 C.2     1  UNL1        0.0000
     11  C          6.0570   -0.8470    1.4510 C.2     1  UNL1        0.0000
     12  C          5.3990    0.3100    1.8090 C.2     1  UNL1        0.0000
@<TRIPOS>BOND
     1     3     2    2
     2     4     2    1
     3     4     5    1
     4     2     1    1
     5     1     6    1
     6     6     7    1
     7     7     8    2
     8     7     9    1
     9     8    10    1
    10     9    11    2
    11    10    12    2
    12    11    12    1
