@<TRIPOS>MOLECULE
/home/cewinharhar/GITHUB/reincatalyze/data/processed/docking_pred/2023-May-02-0947_maxeplen10_maxtrainstep1000_seadep32_gamma099_lrac9e-4_lrcr1e-3/f15420a79f585431148ea344134f913ab78e73cd_ligand_2.pdbqt
 12 12 0 0 0
SMALL
GASTEIGER

@<TRIPOS>ATOM
      1  C          5.4610    2.8880   -0.0280 C.3     1  UNL1        0.1270
      2  C          6.2410    3.8420    0.7960 C.2     1  UNL1        0.3030
      3  O          6.8980    4.7720    0.2670 O.2     1  UNL1       -0.2520
      4  O          6.2660    3.7320    2.1770 O.3     1  UNL1       -0.4810
      5  H          5.4060    3.8940    2.7080 H       1  UNL1        0.2960
      6  C          4.9170    1.8220    0.8750 C.3     1  UNL1        0.0470
      7  C          5.7170    0.5990    0.8990 C.2     1  UNL1       -0.0470
      8  C          6.3990    0.1820   -0.2210 C.2     1  UNL1        0.0040
      9  C          5.7830   -0.1370    2.0590 C.2     1  UNL1        0.0040
     10  C          7.1430   -0.9960   -0.1260 C.2     1  UNL1        0.0000
     11  C          6.5190   -1.3020    2.1520 C.2     1  UNL1        0.0000
     12  C          7.2050   -1.7260    1.0340 C.2     1  UNL1        0.0000
@<TRIPOS>BOND
     1     8    10    1
     2     8     7    2
     3    10    12    2
     4     1     2    1
     5     1     6    1
     6     3     2    2
     7     2     4    1
     8     6     7    1
     9     7     9    1
    10    12    11    1
    11     9    11    2
    12     4     5    1
