@<TRIPOS>MOLECULE
/home/cewinharhar/GITHUB/reincatalyze/data/processed/docking_pred/2023-May-02-0947_maxeplen10_maxtrainstep1000_seadep32_gamma099_lrac9e-4_lrcr1e-3/f1acaff2cf7a86b9bbc999bfeecc6491fc2a0881_ligand_2.pdbqt
 12 12 0 0 0
SMALL
GASTEIGER

@<TRIPOS>ATOM
      1  C          8.4560   -0.6580   -2.0820 C.3     1  UNL1        0.1270
      2  C          8.4760   -1.9140   -2.8690 C.2     1  UNL1        0.3030
      3  O          9.5450   -2.5440   -3.0600 O.2     1  UNL1       -0.2520
      4  O          7.3120   -2.4270   -3.4170 O.3     1  UNL1       -0.4810
      5  H          6.6630   -1.7960   -3.8950 H       1  UNL1        0.2960
      6  C          7.0630   -0.1050   -2.1140 C.3     1  UNL1        0.0470
      7  C          6.4670    0.0810   -0.7920 C.2     1  UNL1       -0.0470
      8  C          5.8280    1.2550   -0.4680 C.2     1  UNL1        0.0040
      9  C          6.5500   -0.9350    0.1310 C.2     1  UNL1        0.0040
     10  C          5.2810    1.3630    0.8130 C.2     1  UNL1        0.0000
     11  C          6.0100   -0.8270    1.3970 C.2     1  UNL1        0.0000
     12  C          5.3680    0.3460    1.7300 C.2     1  UNL1        0.0000
@<TRIPOS>BOND
     1     5     4    1
     2     4     2    1
     3     3     2    2
     4     2     1    1
     5     6     1    1
     6     6     7    1
     7     7     8    2
     8     7     9    1
     9     8    10    1
    10     9    11    2
    11    10    12    2
    12    11    12    1
