@<TRIPOS>MOLECULE
/home/cewinharhar/GITHUB/reincatalyze/data/processed/docking_pred/2023-May-02-0947_maxeplen10_maxtrainstep1000_seadep32_gamma099_lrac9e-4_lrcr1e-3/f338baa35ded8d3cb3d8a5b9e0cebf8a24c11f6d_ligand_2.pdbqt
 12 12 0 0 0
SMALL
GASTEIGER

@<TRIPOS>ATOM
      1  C          5.0660   -0.1170    2.0320 C.3     1  UNL1        0.1270
      2  C          4.3910    1.2010    1.9620 C.2     1  UNL1        0.3030
      3  O          4.9110    2.1660    1.3480 O.2     1  UNL1       -0.2520
      4  O          3.1650    1.4040    2.5730 O.3     1  UNL1       -0.4810
      5  H          3.0720    1.2320    3.5780 H       1  UNL1        0.2960
      6  C          6.5190    0.0810    1.7270 C.3     1  UNL1        0.0470
      7  C          7.0010   -0.7050    0.5920 C.2     1  UNL1       -0.0470
      8  C          6.6460   -0.3740   -0.6950 C.2     1  UNL1        0.0040
      9  C          7.8200   -1.7860    0.8250 C.2     1  UNL1        0.0040
     10  C          7.1440   -1.1690   -1.7290 C.2     1  UNL1        0.0000
     11  C          8.3110   -2.5720   -0.2000 C.2     1  UNL1        0.0000
     12  C          7.9600   -2.2470   -1.4920 C.2     1  UNL1        0.0000
@<TRIPOS>BOND
     1    10    12    2
     2    10     8    1
     3    12    11    1
     4     8     7    2
     5    11     9    2
     6     7     9    1
     7     7     6    1
     8     3     2    2
     9     6     1    1
    10     2     1    1
    11     2     4    1
    12     4     5    1
