@<TRIPOS>MOLECULE
/home/cewinharhar/GITHUB/reincatalyze/data/processed/docking_pred/2023-May-02-0947_maxeplen10_maxtrainstep1000_seadep32_gamma099_lrac9e-4_lrcr1e-3/f338baa35ded8d3cb3d8a5b9e0cebf8a24c11f6d_ligand_2.pdbqt
 12 12 0 0 0
SMALL
GASTEIGER

@<TRIPOS>ATOM
      1  C          8.3110   -0.6850   -2.1680 C.3     1  UNL1        0.1270
      2  C          8.4320   -1.9490   -2.9310 C.2     1  UNL1        0.3030
      3  O          9.5470   -2.5010   -3.1040 O.2     1  UNL1       -0.2520
      4  O          7.3140   -2.5600   -3.4760 O.3     1  UNL1       -0.4810
      5  H          6.7290   -3.1540   -2.8830 H       1  UNL1        0.2960
      6  C          6.8850   -0.5320   -1.7340 C.3     1  UNL1        0.0470
      7  C          6.6810   -0.6980   -0.2960 C.2     1  UNL1       -0.0470
      8  C          7.2860   -1.7280    0.3870 C.2     1  UNL1        0.0040
      9  C          5.8750    0.1930    0.3750 C.2     1  UNL1        0.0040
     10  C          7.0470   -1.8250    1.7590 C.2     1  UNL1        0.0000
     11  C          5.6400    0.0960    1.7320 C.2     1  UNL1        0.0000
     12  C          6.2420   -0.9340    2.4230 C.2     1  UNL1        0.0000
@<TRIPOS>BOND
     1     4     2    1
     2     4     5    1
     3     3     2    2
     4     2     1    1
     5     1     6    1
     6     6     7    1
     7     7     9    2
     8     7     8    1
     9     9    11    1
    10     8    10    2
    11    11    12    2
    12    10    12    1
