MODEL 1
REMARK VINA RESULT:      -6.5      0.000      0.000
REMARK SMILES O=C(O)CCc1ccccc1
REMARK SMILES IDX 4 1 2 2 1 3 3 4 5 6 6 7 7 8 11 9 8 10 10 11 9 12
REMARK H PARENT 3 5
REMARK Flexibility Score: inf
ROOT
ATOM      1  C   UNL     1       8.311  -0.685  -2.168  1.00  0.00     0.127 C 
ENDROOT
BRANCH   1   2
ATOM      2  C   UNL     1       8.432  -1.949  -2.931  1.00  0.00     0.303 C 
ATOM      3  O   UNL     1       9.547  -2.501  -3.104  1.00  0.00    -0.252 OA
BRANCH   2   4
ATOM      4  O   UNL     1       7.314  -2.560  -3.476  1.00  0.00    -0.481 OA
ATOM      5  H   UNL     1       6.729  -3.154  -2.883  1.00  0.00     0.296 HD
ENDBRANCH   2   4
ENDBRANCH   1   2
BRANCH   1   6
ATOM      6  C   UNL     1       6.885  -0.532  -1.734  1.00  0.00     0.047 C 
BRANCH   6   7
ATOM      7  C   UNL     1       6.681  -0.698  -0.296  1.00  0.00    -0.047 A 
ATOM      8  C   UNL     1       7.286  -1.728   0.387  1.00  0.00     0.004 A 
ATOM      9  C   UNL     1       5.875   0.193   0.375  1.00  0.00     0.004 A 
ATOM     10  C   UNL     1       7.047  -1.825   1.759  1.00  0.00     0.000 A 
ATOM     11  C   UNL     1       5.640   0.096   1.732  1.00  0.00     0.000 A 
ATOM     12  C   UNL     1       6.242  -0.934   2.423  1.00  0.00     0.000 A 
ENDBRANCH   6   7
ENDBRANCH   1   6
TORSDOF 4
ENDMDL
MODEL 2
REMARK VINA RESULT:      -6.3      3.201      4.947
REMARK SMILES O=C(O)CCc1ccccc1
REMARK SMILES IDX 4 1 2 2 1 3 3 4 5 6 6 7 7 8 11 9 8 10 10 11 9 12
REMARK H PARENT 3 5
REMARK Flexibility Score: inf
ROOT
ATOM      1  C   UNL     1       5.930  -0.874   1.770  1.00  0.00     0.127 C 
ENDROOT
BRANCH   1   2
ATOM      2  C   UNL     1       5.372   0.471   2.050  1.00  0.00     0.303 C 
ATOM      3  O   UNL     1       4.193   0.614   2.459  1.00  0.00    -0.252 OA
BRANCH   2   4
ATOM      4  O   UNL     1       6.139   1.610   1.865  1.00  0.00    -0.481 OA
ATOM      5  H   UNL     1       6.952   1.571   1.245  1.00  0.00     0.296 HD
ENDBRANCH   2   4
ENDBRANCH   1   2
BRANCH   1   6
ATOM      6  C   UNL     1       7.394  -0.726   1.486  1.00  0.00     0.047 C 
BRANCH   6   7
ATOM      7  C   UNL     1       7.717  -0.629   0.064  1.00  0.00    -0.047 A 
ATOM      8  C   UNL     1       8.865   0.001  -0.355  1.00  0.00     0.004 A 
ATOM      9  C   UNL     1       6.857  -1.180  -0.859  1.00  0.00     0.004 A 
ATOM     10  C   UNL     1       9.111   0.055  -1.729  1.00  0.00     0.000 A 
ATOM     11  C   UNL     1       7.101  -1.125  -2.216  1.00  0.00     0.000 A 
ATOM     12  C   UNL     1       8.249  -0.495  -2.645  1.00  0.00     0.000 A 
ENDBRANCH   6   7
ENDBRANCH   1   6
TORSDOF 4
ENDMDL
MODEL 3
REMARK VINA RESULT:      -6.1      3.459      5.104
REMARK SMILES O=C(O)CCc1ccccc1
REMARK SMILES IDX 4 1 2 2 1 3 3 4 5 6 6 7 7 8 11 9 8 10 10 11 9 12
REMARK H PARENT 3 5
REMARK Flexibility Score: inf
ROOT
ATOM      1  C   UNL     1       5.066  -0.117   2.032  1.00  0.00     0.127 C 
ENDROOT
BRANCH   1   2
ATOM      2  C   UNL     1       4.391   1.201   1.962  1.00  0.00     0.303 C 
ATOM      3  O   UNL     1       4.911   2.166   1.348  1.00  0.00    -0.252 OA
BRANCH   2   4
ATOM      4  O   UNL     1       3.165   1.404   2.573  1.00  0.00    -0.481 OA
ATOM      5  H   UNL     1       3.072   1.232   3.578  1.00  0.00     0.296 HD
ENDBRANCH   2   4
ENDBRANCH   1   2
BRANCH   1   6
ATOM      6  C   UNL     1       6.519   0.081   1.727  1.00  0.00     0.047 C 
BRANCH   6   7
ATOM      7  C   UNL     1       7.001  -0.705   0.592  1.00  0.00    -0.047 A 
ATOM      8  C   UNL     1       6.646  -0.374  -0.695  1.00  0.00     0.004 A 
ATOM      9  C   UNL     1       7.820  -1.786   0.825  1.00  0.00     0.004 A 
ATOM     10  C   UNL     1       7.144  -1.169  -1.729  1.00  0.00     0.000 A 
ATOM     11  C   UNL     1       8.311  -2.572  -0.200  1.00  0.00     0.000 A 
ATOM     12  C   UNL     1       7.960  -2.247  -1.492  1.00  0.00     0.000 A 
ENDBRANCH   6   7
ENDBRANCH   1   6
TORSDOF 4
ENDMDL
