@<TRIPOS>MOLECULE
/home/cewinharhar/GITHUB/reincatalyze/data/processed/docking_pred/2023-May-02-0947_maxeplen10_maxtrainstep1000_seadep32_gamma099_lrac9e-4_lrcr1e-3/f3c5d297feb9947f67baa3310bcd1cfc63c32b25_ligand_2.pdbqt
 12 12 0 0 0
SMALL
GASTEIGER

@<TRIPOS>ATOM
      1  C          7.2530   -1.2550   -2.1410 C.3     1  UNL1        0.1270
      2  C          8.6860   -1.3090   -2.5150 C.2     1  UNL1        0.3030
      3  O          9.5020   -0.4540   -2.0900 O.2     1  UNL1       -0.2520
      4  O          9.1660   -2.3070   -3.3480 O.3     1  UNL1       -0.4810
      5  H          8.7740   -3.2500   -3.2760 H       1  UNL1        0.2960
      6  C          7.1530   -1.3360   -0.6490 C.3     1  UNL1        0.0470
      7  C          6.3780   -0.2530   -0.0450 C.2     1  UNL1       -0.0470
      8  C          5.9200   -0.3520    1.2480 C.2     1  UNL1        0.0040
      9  C          6.1110    0.8750   -0.7860 C.2     1  UNL1        0.0040
     10  C          5.1870    0.7210    1.7600 C.2     1  UNL1        0.0000
     11  C          5.3860    1.9350   -0.2780 C.2     1  UNL1        0.0000
     12  C          4.9220    1.8430    1.0160 C.2     1  UNL1        0.0000
@<TRIPOS>BOND
     1     4     5    1
     2     4     2    1
     3     2     1    1
     4     2     3    2
     5     1     6    1
     6     9    11    1
     7     9     7    2
     8     6     7    1
     9    11    12    2
    10     7     8    1
    11    12    10    1
    12     8    10    2
