@<TRIPOS>MOLECULE
/home/cewinharhar/GITHUB/reincatalyze/data/processed/docking_pred/2023-May-02-0947_maxeplen10_maxtrainstep1000_seadep32_gamma099_lrac9e-4_lrcr1e-3/f411d25023d78b520541a26d40866fe70d26d332_ligand_2.pdbqt
 12 12 0 0 0
SMALL
GASTEIGER

@<TRIPOS>ATOM
      1  C          8.4030   -0.6460   -2.0830 C.3     1  UNL1        0.1270
      2  C          8.3770   -1.8940   -2.8830 C.2     1  UNL1        0.3030
      3  O          7.2930   -2.4150   -3.2420 O.2     1  UNL1       -0.2520
      4  O          9.5550   -2.5220   -3.2560 O.3     1  UNL1       -0.4810
      5  H         10.4500   -2.1330   -2.9460 H       1  UNL1        0.2960
      6  C          7.0230   -0.0620   -2.0790 C.3     1  UNL1        0.0470
      7  C          6.4520    0.1050   -0.7440 C.2     1  UNL1       -0.0470
      8  C          5.8000    1.2660   -0.3980 C.2     1  UNL1        0.0040
      9  C          6.5710   -0.9170    0.1690 C.2     1  UNL1        0.0040
     10  C          5.2780    1.3560    0.8950 C.2     1  UNL1        0.0000
     11  C          6.0550   -0.8260    1.4470 C.2     1  UNL1        0.0000
     12  C          5.4010    0.3340    1.8020 C.2     1  UNL1        0.0000
@<TRIPOS>BOND
     1     4     5    1
     2     4     2    1
     3     3     2    2
     4     2     1    1
     5     1     6    1
     6     6     7    1
     7     7     8    2
     8     7     9    1
     9     8    10    1
    10     9    11    2
    11    10    12    2
    12    11    12    1
