@<TRIPOS>MOLECULE
/home/cewinharhar/GITHUB/reincatalyze/data/processed/docking_pred/2023-May-02-0947_maxeplen10_maxtrainstep1000_seadep32_gamma099_lrac9e-4_lrcr1e-3/f411d25023d78b520541a26d40866fe70d26d332_ligand_2.pdbqt
 12 12 0 0 0
SMALL
GASTEIGER

@<TRIPOS>ATOM
      1  C          8.2910   -0.5040   -2.3140 C.3     1  UNL1        0.1270
      2  C          8.3930   -1.8370   -2.9540 C.2     1  UNL1        0.3030
      3  O          9.5010   -2.4160   -3.0760 O.2     1  UNL1       -0.2520
      4  O          7.2660   -2.4810   -3.4370 O.3     1  UNL1       -0.4810
      5  H          6.3470   -2.0510   -3.3030 H       1  UNL1        0.2960
      6  C          6.9970   -0.4420   -1.5600 C.3     1  UNL1        0.0470
      7  C          6.8300    0.7720   -0.7650 C.2     1  UNL1       -0.0470
      8  C          7.9060    1.3550   -0.1360 C.2     1  UNL1        0.0040
      9  C          5.5790    1.3330   -0.6500 C.2     1  UNL1        0.0040
     10  C          7.6730    2.5150    0.6060 C.2     1  UNL1        0.0000
     11  C          5.3500    2.4790    0.0850 C.2     1  UNL1        0.0000
     12  C          6.4230    3.0690    0.7180 C.2     1  UNL1        0.0000
@<TRIPOS>BOND
     1     4     5    1
     2     4     2    1
     3     3     2    2
     4     2     1    1
     5     1     6    1
     6     6     7    1
     7     7     9    2
     8     7     8    1
     9     9    11    1
    10     8    10    2
    11    11    12    2
    12    10    12    1
