MODEL 1
REMARK VINA RESULT:      -7.0      0.000      0.000
REMARK SMILES O=C(O)CCc1ccccc1
REMARK SMILES IDX 4 1 2 2 1 3 3 4 5 6 6 7 7 8 11 9 8 10 10 11 9 12
REMARK H PARENT 3 5
REMARK Flexibility Score: inf
ROOT
ATOM      1  C   UNL     1       8.403  -0.646  -2.083  1.00  0.00     0.127 C 
ENDROOT
BRANCH   1   2
ATOM      2  C   UNL     1       8.377  -1.894  -2.883  1.00  0.00     0.303 C 
ATOM      3  O   UNL     1       7.293  -2.415  -3.242  1.00  0.00    -0.252 OA
BRANCH   2   4
ATOM      4  O   UNL     1       9.555  -2.522  -3.256  1.00  0.00    -0.481 OA
ATOM      5  H   UNL     1      10.450  -2.133  -2.946  1.00  0.00     0.296 HD
ENDBRANCH   2   4
ENDBRANCH   1   2
BRANCH   1   6
ATOM      6  C   UNL     1       7.023  -0.062  -2.079  1.00  0.00     0.047 C 
BRANCH   6   7
ATOM      7  C   UNL     1       6.452   0.105  -0.744  1.00  0.00    -0.047 A 
ATOM      8  C   UNL     1       5.800   1.266  -0.398  1.00  0.00     0.004 A 
ATOM      9  C   UNL     1       6.571  -0.917   0.169  1.00  0.00     0.004 A 
ATOM     10  C   UNL     1       5.278   1.356   0.895  1.00  0.00     0.000 A 
ATOM     11  C   UNL     1       6.055  -0.826   1.447  1.00  0.00     0.000 A 
ATOM     12  C   UNL     1       5.401   0.334   1.802  1.00  0.00     0.000 A 
ENDBRANCH   6   7
ENDBRANCH   1   6
TORSDOF 4
ENDMDL
MODEL 2
REMARK VINA RESULT:      -6.8      1.405      2.188
REMARK SMILES O=C(O)CCc1ccccc1
REMARK SMILES IDX 4 1 2 2 1 3 3 4 5 6 6 7 7 8 11 9 8 10 10 11 9 12
REMARK H PARENT 3 5
REMARK Flexibility Score: inf
ROOT
ATOM      1  C   UNL     1       8.291  -0.504  -2.314  1.00  0.00     0.127 C 
ENDROOT
BRANCH   1   2
ATOM      2  C   UNL     1       8.393  -1.837  -2.954  1.00  0.00     0.303 C 
ATOM      3  O   UNL     1       9.501  -2.416  -3.076  1.00  0.00    -0.252 OA
BRANCH   2   4
ATOM      4  O   UNL     1       7.266  -2.481  -3.437  1.00  0.00    -0.481 OA
ATOM      5  H   UNL     1       6.347  -2.051  -3.303  1.00  0.00     0.296 HD
ENDBRANCH   2   4
ENDBRANCH   1   2
BRANCH   1   6
ATOM      6  C   UNL     1       6.997  -0.442  -1.560  1.00  0.00     0.047 C 
BRANCH   6   7
ATOM      7  C   UNL     1       6.830   0.772  -0.765  1.00  0.00    -0.047 A 
ATOM      8  C   UNL     1       7.906   1.355  -0.136  1.00  0.00     0.004 A 
ATOM      9  C   UNL     1       5.579   1.333  -0.650  1.00  0.00     0.004 A 
ATOM     10  C   UNL     1       7.673   2.515   0.606  1.00  0.00     0.000 A 
ATOM     11  C   UNL     1       5.350   2.479   0.085  1.00  0.00     0.000 A 
ATOM     12  C   UNL     1       6.423   3.069   0.718  1.00  0.00     0.000 A 
ENDBRANCH   6   7
ENDBRANCH   1   6
TORSDOF 4
ENDMDL
