@<TRIPOS>MOLECULE
/home/cewinharhar/GITHUB/reincatalyze/data/processed/docking_pred/2023-May-02-0947_maxeplen10_maxtrainstep1000_seadep32_gamma099_lrac9e-4_lrcr1e-3/f5d21a1fca5b46740ede221944c3c0743e15dd7f_ligand_2.pdbqt
 12 12 0 0 0
SMALL
GASTEIGER

@<TRIPOS>ATOM
      1  C          8.4050   -0.6570   -2.0760 C.3     1  UNL1        0.1270
      2  C          8.3740   -1.9050   -2.8750 C.2     1  UNL1        0.3030
      3  O          7.2870   -2.4100   -3.2500 O.2     1  UNL1       -0.2520
      4  O          9.5470   -2.5500   -3.2310 O.3     1  UNL1       -0.4810
      5  H         10.4410   -2.1940   -2.8790 H       1  UNL1        0.2960
      6  C          7.0280   -0.0670   -2.0690 C.3     1  UNL1        0.0470
      7  C          6.4600    0.1020   -0.7330 C.2     1  UNL1       -0.0470
      8  C          5.8070    1.2620   -0.3880 C.2     1  UNL1        0.0040
      9  C          6.5830   -0.9180    0.1830 C.2     1  UNL1        0.0040
     10  C          5.2880    1.3540    0.9060 C.2     1  UNL1        0.0000
     11  C          6.0710   -0.8250    1.4610 C.2     1  UNL1        0.0000
     12  C          5.4150    0.3350    1.8150 C.2     1  UNL1        0.0000
@<TRIPOS>BOND
     1     3     2    2
     2     4     5    1
     3     4     2    1
     4     2     1    1
     5     1     6    1
     6     6     7    1
     7     7     8    2
     8     7     9    1
     9     8    10    1
    10     9    11    2
    11    10    12    2
    12    11    12    1
