@<TRIPOS>MOLECULE
/home/cewinharhar/GITHUB/reincatalyze/data/processed/docking_pred/2023-May-02-0947_maxeplen10_maxtrainstep1000_seadep32_gamma099_lrac9e-4_lrcr1e-3/f5d21a1fca5b46740ede221944c3c0743e15dd7f_ligand_2.pdbqt
 12 12 0 0 0
SMALL
GASTEIGER

@<TRIPOS>ATOM
      1  C          5.0440    1.7740    0.6480 C.3     1  UNL1        0.1270
      2  C          4.5950    1.1140    1.8970 C.2     1  UNL1        0.3030
      3  O          3.4730    1.3680    2.4000 O.2     1  UNL1       -0.2520
      4  O          5.4060    0.1970    2.5460 O.3     1  UNL1       -0.4810
      5  H          5.3570   -0.7910    2.2800 H       1  UNL1        0.2960
      6  C          6.5410    1.8420    0.6630 C.3     1  UNL1        0.0470
      7  C          7.1820    1.0480   -0.3840 C.2     1  UNL1       -0.0470
      8  C          8.5140    1.2230   -0.6820 C.2     1  UNL1        0.0040
      9  C          6.4390    0.1170   -1.0710 C.2     1  UNL1        0.0040
     10  C          9.0610    0.4300   -1.6930 C.2     1  UNL1        0.0000
     11  C          6.9810   -0.6660   -2.0710 C.2     1  UNL1        0.0000
     12  C          8.3140   -0.4970   -2.3760 C.2     1  UNL1        0.0000
@<TRIPOS>BOND
     1    12    11    2
     2    12    10    1
     3    11     9    1
     4    10     8    2
     5     9     7    2
     6     8     7    1
     7     7     6    1
     8     1     6    1
     9     1     2    1
    10     2     3    2
    11     2     4    1
    12     5     4    1
