@<TRIPOS>MOLECULE
/home/cewinharhar/GITHUB/reincatalyze/data/processed/docking_pred/2023-May-02-0947_maxeplen10_maxtrainstep1000_seadep32_gamma099_lrac9e-4_lrcr1e-3/f5fb071253116e33fb6a6057d91faa3d89d34546_ligand_2.pdbqt
 12 12 0 0 0
SMALL
GASTEIGER

@<TRIPOS>ATOM
      1  C          5.4730    2.9000    0.0010 C.3     1  UNL1        0.1270
      2  C          6.2550    3.8590    0.8170 C.2     1  UNL1        0.3030
      3  O          6.9260    4.7750    0.2790 O.2     1  UNL1       -0.2520
      4  O          6.2670    3.7710    2.1990 O.3     1  UNL1       -0.4810
      5  H          7.1280    3.4900    2.6760 H       1  UNL1        0.2960
      6  C          4.9220    1.8470    0.9130 C.3     1  UNL1        0.0470
      7  C          5.6940    0.6060    0.9230 C.2     1  UNL1       -0.0470
      8  C          6.3520    0.1770   -0.2070 C.2     1  UNL1        0.0040
      9  C          5.7610   -0.1340    2.0810 C.2     1  UNL1        0.0040
     10  C          7.0720   -1.0170   -0.1240 C.2     1  UNL1        0.0000
     11  C          6.4730   -1.3140    2.1610 C.2     1  UNL1        0.0000
     12  C          7.1340   -1.7510    1.0330 C.2     1  UNL1        0.0000
@<TRIPOS>BOND
     1     8    10    1
     2     8     7    2
     3    10    12    2
     4     1     2    1
     5     1     6    1
     6     3     2    2
     7     2     4    1
     8     6     7    1
     9     7     9    1
    10    12    11    1
    11     9    11    2
    12     4     5    1
