@<TRIPOS>MOLECULE
/home/cewinharhar/GITHUB/reincatalyze/data/processed/docking_pred/2023-May-02-0947_maxeplen10_maxtrainstep1000_seadep32_gamma099_lrac9e-4_lrcr1e-3/f6b0a6d65051a5b20d9eb350202399160ef0f891_ligand_2.pdbqt
 12 12 0 0 0
SMALL
GASTEIGER

@<TRIPOS>ATOM
      1  C          8.4030   -0.6600   -2.0720 C.3     1  UNL1        0.1270
      2  C          8.3730   -1.9040   -2.8760 C.2     1  UNL1        0.3030
      3  O          7.2870   -2.4110   -3.2510 O.2     1  UNL1       -0.2520
      4  O          9.5470   -2.5450   -3.2370 O.3     1  UNL1       -0.4810
      5  H         10.3310   -2.5620   -2.5790 H       1  UNL1        0.2960
      6  C          7.0260   -0.0690   -2.0670 C.3     1  UNL1        0.0470
      7  C          6.4560    0.1000   -0.7320 C.2     1  UNL1       -0.0470
      8  C          5.8030    1.2610   -0.3880 C.2     1  UNL1        0.0040
      9  C          6.5770   -0.9190    0.1840 C.2     1  UNL1        0.0040
     10  C          5.2820    1.3530    0.9050 C.2     1  UNL1        0.0000
     11  C          6.0620   -0.8260    1.4620 C.2     1  UNL1        0.0000
     12  C          5.4070    0.3340    1.8140 C.2     1  UNL1        0.0000
@<TRIPOS>BOND
     1     3     2    2
     2     4     2    1
     3     4     5    1
     4     2     1    1
     5     1     6    1
     6     6     7    1
     7     7     8    2
     8     7     9    1
     9     8    10    1
    10     9    11    2
    11    10    12    2
    12    11    12    1
