@<TRIPOS>MOLECULE
/home/cewinharhar/GITHUB/reincatalyze/data/processed/docking_pred/2023-May-02-0947_maxeplen10_maxtrainstep1000_seadep32_gamma099_lrac9e-4_lrcr1e-3/f6e3ea477952fa895fac814ddb6280364cb1460b_ligand_2.pdbqt
 12 12 0 0 0
SMALL
GASTEIGER

@<TRIPOS>ATOM
      1  C          8.4650   -0.6510   -2.0990 C.3     1  UNL1        0.1270
      2  C          8.4760   -1.9110   -2.8790 C.2     1  UNL1        0.3030
      3  O          9.5420   -2.5420   -3.0820 O.2     1  UNL1       -0.2520
      4  O          7.3040   -2.4280   -3.4080 O.3     1  UNL1       -0.4810
      5  H          7.2850   -2.7250   -4.3880 H       1  UNL1        0.2960
      6  C          7.0700   -0.1040   -2.1060 C.3     1  UNL1        0.0470
      7  C          6.4910    0.0640   -0.7750 C.2     1  UNL1       -0.0470
      8  C          6.5790   -0.9390    0.1630 C.2     1  UNL1        0.0040
      9  C          5.8530    1.2430   -0.4640 C.2     1  UNL1        0.0040
     10  C          6.0040   -0.7090    1.4150 C.2     1  UNL1        0.0000
     11  C          5.2850    1.4680    0.7740 C.2     1  UNL1        0.0000
     12  C          5.3690    0.4680    1.7190 C.2     1  UNL1        0.0000
@<TRIPOS>BOND
     1     5     4    1
     2     4     2    1
     3     3     2    2
     4     2     1    1
     5     6     1    1
     6     6     7    1
     7     7     9    2
     8     7     8    1
     9     9    11    1
    10     8    10    2
    11    11    12    2
    12    10    12    1
