@<TRIPOS>MOLECULE
/home/cewinharhar/GITHUB/reincatalyze/data/processed/docking_pred/2023-May-02-0947_maxeplen10_maxtrainstep1000_seadep32_gamma099_lrac9e-4_lrcr1e-3/f6e3ea477952fa895fac814ddb6280364cb1460b_ligand_2.pdbqt
 12 12 0 0 0
SMALL
GASTEIGER

@<TRIPOS>ATOM
      1  C          7.9540   -1.5030    2.2980 C.3     1  UNL1        0.1270
      2  C          8.8320   -2.4850    1.6190 C.2     1  UNL1        0.3030
      3  O         10.0300   -2.6360    1.9660 O.2     1  UNL1       -0.2520
      4  O          8.3540   -3.2650    0.5790 O.3     1  UNL1       -0.4810
      5  H          7.5380   -3.8630    0.7350 H       1  UNL1        0.2960
      6  C          6.5870   -1.5980    1.6930 C.3     1  UNL1        0.0470
      7  C          6.1500   -0.3770    1.0170 C.2     1  UNL1       -0.0470
      8  C          5.3770    0.5530    1.6730 C.2     1  UNL1        0.0040
      9  C          6.5240   -0.1630   -0.2900 C.2     1  UNL1        0.0040
     10  C          4.9980    1.6960    0.9660 C.2     1  UNL1        0.0000
     11  C          6.1470    0.9670   -0.9880 C.2     1  UNL1        0.0000
     12  C          5.3720    1.9030   -0.3380 C.2     1  UNL1        0.0000
@<TRIPOS>BOND
     1    11    12    2
     2    11     9    1
     3    12    10    1
     4     9     7    2
     5     4     5    1
     6     4     2    1
     7    10     8    2
     8     7     8    1
     9     7     6    1
    10     2     3    2
    11     2     1    1
    12     6     1    1
