MODEL 1
REMARK VINA RESULT:      -7.1      0.000      0.000
REMARK SMILES O=C(O)CCc1ccccc1
REMARK SMILES IDX 4 1 2 2 1 3 3 4 5 6 6 7 7 8 11 9 8 10 10 11 9 12
REMARK H PARENT 3 5
REMARK Flexibility Score: inf
ROOT
ATOM      1  C   UNL     1       8.465  -0.651  -2.099  1.00  0.00     0.127 C 
ENDROOT
BRANCH   1   2
ATOM      2  C   UNL     1       8.476  -1.911  -2.879  1.00  0.00     0.303 C 
ATOM      3  O   UNL     1       9.542  -2.542  -3.082  1.00  0.00    -0.252 OA
BRANCH   2   4
ATOM      4  O   UNL     1       7.304  -2.428  -3.408  1.00  0.00    -0.481 OA
ATOM      5  H   UNL     1       7.285  -2.725  -4.388  1.00  0.00     0.296 HD
ENDBRANCH   2   4
ENDBRANCH   1   2
BRANCH   1   6
ATOM      6  C   UNL     1       7.070  -0.104  -2.106  1.00  0.00     0.047 C 
BRANCH   6   7
ATOM      7  C   UNL     1       6.491   0.064  -0.775  1.00  0.00    -0.047 A 
ATOM      8  C   UNL     1       6.579  -0.939   0.163  1.00  0.00     0.004 A 
ATOM      9  C   UNL     1       5.853   1.243  -0.464  1.00  0.00     0.004 A 
ATOM     10  C   UNL     1       6.004  -0.709   1.415  1.00  0.00     0.000 A 
ATOM     11  C   UNL     1       5.285   1.468   0.774  1.00  0.00     0.000 A 
ATOM     12  C   UNL     1       5.369   0.468   1.719  1.00  0.00     0.000 A 
ENDBRANCH   6   7
ENDBRANCH   1   6
TORSDOF 4
ENDMDL
MODEL 2
REMARK VINA RESULT:      -6.5      2.319      3.446
REMARK SMILES O=C(O)CCc1ccccc1
REMARK SMILES IDX 4 1 2 2 1 3 3 4 5 6 6 7 7 8 11 9 8 10 10 11 9 12
REMARK H PARENT 3 5
REMARK Flexibility Score: inf
ROOT
ATOM      1  C   UNL     1       7.954  -1.503   2.298  1.00  0.00     0.127 C 
ENDROOT
BRANCH   1   2
ATOM      2  C   UNL     1       8.832  -2.485   1.619  1.00  0.00     0.303 C 
ATOM      3  O   UNL     1      10.030  -2.636   1.966  1.00  0.00    -0.252 OA
BRANCH   2   4
ATOM      4  O   UNL     1       8.354  -3.265   0.579  1.00  0.00    -0.481 OA
ATOM      5  H   UNL     1       7.538  -3.863   0.735  1.00  0.00     0.296 HD
ENDBRANCH   2   4
ENDBRANCH   1   2
BRANCH   1   6
ATOM      6  C   UNL     1       6.587  -1.598   1.693  1.00  0.00     0.047 C 
BRANCH   6   7
ATOM      7  C   UNL     1       6.150  -0.377   1.017  1.00  0.00    -0.047 A 
ATOM      8  C   UNL     1       5.377   0.553   1.673  1.00  0.00     0.004 A 
ATOM      9  C   UNL     1       6.524  -0.163  -0.290  1.00  0.00     0.004 A 
ATOM     10  C   UNL     1       4.998   1.696   0.966  1.00  0.00     0.000 A 
ATOM     11  C   UNL     1       6.147   0.967  -0.988  1.00  0.00     0.000 A 
ATOM     12  C   UNL     1       5.372   1.903  -0.338  1.00  0.00     0.000 A 
ENDBRANCH   6   7
ENDBRANCH   1   6
TORSDOF 4
ENDMDL
