@<TRIPOS>MOLECULE
/home/cewinharhar/GITHUB/reincatalyze/data/processed/docking_pred/2023-May-02-0947_maxeplen10_maxtrainstep1000_seadep32_gamma099_lrac9e-4_lrcr1e-3/f9550a52c30547fdb3e6e224a3b8a38c5560e948_ligand_2.pdbqt
 12 12 0 0 0
SMALL
GASTEIGER

@<TRIPOS>ATOM
      1  C          8.4240   -0.6450   -2.1290 C.3     1  UNL1        0.1270
      2  C          8.4670   -1.9050   -2.9090 C.2     1  UNL1        0.3030
      3  O          9.5470   -2.5180   -3.0970 O.2     1  UNL1       -0.2520
      4  O          7.3120   -2.4420   -3.4540 O.3     1  UNL1       -0.4810
      5  H          6.4680   -1.8650   -3.5100 H       1  UNL1        0.2960
      6  C          7.0100   -0.1480   -2.1160 C.3     1  UNL1        0.0470
      7  C          6.4600    0.0430   -0.7750 C.2     1  UNL1       -0.0470
      8  C          5.8210    1.2130   -0.4370 C.2     1  UNL1        0.0040
      9  C          6.5850   -0.9660    0.1520 C.2     1  UNL1        0.0040
     10  C          5.3190    1.3260    0.8610 C.2     1  UNL1        0.0000
     11  C          6.0890   -0.8530    1.4350 C.2     1  UNL1        0.0000
     12  C          5.4480    0.3170    1.7820 C.2     1  UNL1        0.0000
@<TRIPOS>BOND
     1     5     4    1
     2     4     2    1
     3     3     2    2
     4     2     1    1
     5     1     6    1
     6     6     7    1
     7     7     8    2
     8     7     9    1
     9     8    10    1
    10     9    11    2
    11    10    12    2
    12    11    12    1
