MODEL 1
REMARK VINA RESULT:      -7.1      0.000      0.000
REMARK SMILES O=C(O)CCc1ccccc1
REMARK SMILES IDX 4 1 2 2 1 3 3 4 5 6 6 7 7 8 11 9 8 10 10 11 9 12
REMARK H PARENT 3 5
REMARK Flexibility Score: inf
ROOT
ATOM      1  C   UNL     1       8.424  -0.645  -2.129  1.00  0.00     0.127 C 
ENDROOT
BRANCH   1   2
ATOM      2  C   UNL     1       8.467  -1.905  -2.909  1.00  0.00     0.303 C 
ATOM      3  O   UNL     1       9.547  -2.518  -3.097  1.00  0.00    -0.252 OA
BRANCH   2   4
ATOM      4  O   UNL     1       7.312  -2.442  -3.454  1.00  0.00    -0.481 OA
ATOM      5  H   UNL     1       6.468  -1.865  -3.510  1.00  0.00     0.296 HD
ENDBRANCH   2   4
ENDBRANCH   1   2
BRANCH   1   6
ATOM      6  C   UNL     1       7.010  -0.148  -2.116  1.00  0.00     0.047 C 
BRANCH   6   7
ATOM      7  C   UNL     1       6.460   0.043  -0.775  1.00  0.00    -0.047 A 
ATOM      8  C   UNL     1       5.821   1.213  -0.437  1.00  0.00     0.004 A 
ATOM      9  C   UNL     1       6.585  -0.966   0.152  1.00  0.00     0.004 A 
ATOM     10  C   UNL     1       5.319   1.326   0.861  1.00  0.00     0.000 A 
ATOM     11  C   UNL     1       6.089  -0.853   1.435  1.00  0.00     0.000 A 
ATOM     12  C   UNL     1       5.448   0.317   1.782  1.00  0.00     0.000 A 
ENDBRANCH   6   7
ENDBRANCH   1   6
TORSDOF 4
ENDMDL
MODEL 2
REMARK VINA RESULT:      -6.6      1.394      2.214
REMARK SMILES O=C(O)CCc1ccccc1
REMARK SMILES IDX 4 1 2 2 1 3 3 4 5 6 6 7 7 8 11 9 8 10 10 11 9 12
REMARK H PARENT 3 5
REMARK Flexibility Score: inf
ROOT
ATOM      1  C   UNL     1       8.286  -0.549  -2.180  1.00  0.00     0.127 C 
ENDROOT
BRANCH   1   2
ATOM      2  C   UNL     1       8.312  -1.833  -2.918  1.00  0.00     0.303 C 
ATOM      3  O   UNL     1       7.250  -2.393  -3.288  1.00  0.00    -0.252 OA
BRANCH   2   4
ATOM      4  O   UNL     1       9.513  -2.453  -3.222  1.00  0.00    -0.481 OA
ATOM      5  H   UNL     1       9.579  -3.473  -3.164  1.00  0.00     0.296 HD
ENDBRANCH   2   4
ENDBRANCH   1   2
BRANCH   1   6
ATOM      6  C   UNL     1       6.967  -0.436  -1.477  1.00  0.00     0.047 C 
BRANCH   6   7
ATOM      7  C   UNL     1       6.806   0.797  -0.709  1.00  0.00    -0.047 A 
ATOM      8  C   UNL     1       7.882   1.378  -0.077  1.00  0.00     0.004 A 
ATOM      9  C   UNL     1       5.562   1.378  -0.624  1.00  0.00     0.004 A 
ATOM     10  C   UNL     1       7.655   2.556   0.638  1.00  0.00     0.000 A 
ATOM     11  C   UNL     1       5.339   2.542   0.084  1.00  0.00     0.000 A 
ATOM     12  C   UNL     1       6.411   3.130   0.720  1.00  0.00     0.000 A 
ENDBRANCH   6   7
ENDBRANCH   1   6
TORSDOF 4
ENDMDL
