@<TRIPOS>MOLECULE
/home/cewinharhar/GITHUB/reincatalyze/data/processed/docking_pred/2023-May-02-0947_maxeplen10_maxtrainstep1000_seadep32_gamma099_lrac9e-4_lrcr1e-3/fc1d4194c005f01296b9c57c803e441f6dc40ccd_ligand_2.pdbqt
 12 12 0 0 0
SMALL
GASTEIGER

@<TRIPOS>ATOM
      1  C          5.9550   -0.8900    1.7770 C.3     1  UNL1        0.1270
      2  C          5.3750    0.4460    2.0490 C.2     1  UNL1        0.3030
      3  O          4.1990    0.5720    2.4710 O.2     1  UNL1       -0.2520
      4  O          6.1170    1.5980    1.8420 O.3     1  UNL1       -0.4810
      5  H          6.9530    1.7640    2.4090 H       1  UNL1        0.2960
      6  C          7.4130   -0.7180    1.4800 C.3     1  UNL1        0.0470
      7  C          7.7240   -0.6350    0.0540 C.2     1  UNL1       -0.0470
      8  C          8.8610    0.0030   -0.3820 C.2     1  UNL1        0.0040
      9  C          6.8630   -1.2070   -0.8550 C.2     1  UNL1        0.0040
     10  C          9.0950    0.0430   -1.7590 C.2     1  UNL1        0.0000
     11  C          7.0950   -1.1660   -2.2150 C.2     1  UNL1        0.0000
     12  C          8.2320   -0.5270   -2.6610 C.2     1  UNL1        0.0000
@<TRIPOS>BOND
     1    12    11    2
     2    12    10    1
     3    11     9    1
     4    10     8    2
     5     9     7    2
     6     8     7    1
     7     7     6    1
     8     6     1    1
     9     1     2    1
    10     4     2    1
    11     4     5    1
    12     2     3    2
