@<TRIPOS>MOLECULE
/home/cewinharhar/GITHUB/reincatalyze/data/processed/docking_pred/2023-May-02-0947_maxeplen10_maxtrainstep1000_seadep32_gamma099_lrac9e-4_lrcr1e-3/fc1d4194c005f01296b9c57c803e441f6dc40ccd_ligand_2.pdbqt
 12 12 0 0 0
SMALL
GASTEIGER

@<TRIPOS>ATOM
      1  C          8.4040   -0.6580   -2.0740 C.3     1  UNL1        0.1270
      2  C          8.3730   -1.9050   -2.8750 C.2     1  UNL1        0.3030
      3  O          7.2860   -2.4090   -3.2520 O.2     1  UNL1       -0.2520
      4  O          9.5470   -2.5500   -3.2290 O.3     1  UNL1       -0.4810
      5  H         10.4170   -2.3080   -2.7460 H       1  UNL1        0.2960
      6  C          7.0260   -0.0680   -2.0680 C.3     1  UNL1        0.0470
      7  C          6.4580    0.1020   -0.7320 C.2     1  UNL1       -0.0470
      8  C          5.8050    1.2620   -0.3880 C.2     1  UNL1        0.0040
      9  C          6.5820   -0.9170    0.1850 C.2     1  UNL1        0.0040
     10  C          5.2860    1.3550    0.9060 C.2     1  UNL1        0.0000
     11  C          6.0690   -0.8230    1.4630 C.2     1  UNL1        0.0000
     12  C          5.4130    0.3370    1.8160 C.2     1  UNL1        0.0000
@<TRIPOS>BOND
     1     3     2    2
     2     4     2    1
     3     4     5    1
     4     2     1    1
     5     1     6    1
     6     6     7    1
     7     7     8    2
     8     7     9    1
     9     8    10    1
    10     9    11    2
    11    10    12    2
    12    11    12    1
