@<TRIPOS>MOLECULE
/home/cewinharhar/GITHUB/reincatalyze/data/processed/docking_pred/2023-May-02-0947_maxeplen10_maxtrainstep1000_seadep32_gamma099_lrac9e-4_lrcr1e-3/fc1d4194c005f01296b9c57c803e441f6dc40ccd_ligand_2.pdbqt
 12 12 0 0 0
SMALL
GASTEIGER

@<TRIPOS>ATOM
      1  C          5.0930   -0.1240    2.0430 C.3     1  UNL1        0.1270
      2  C          4.4060    1.1870    1.9720 C.2     1  UNL1        0.3030
      3  O          4.9150    2.1570    1.3570 O.2     1  UNL1       -0.2520
      4  O          3.1780    1.3790    2.5850 O.3     1  UNL1       -0.4810
      5  H          2.6790    2.2610    2.4400 H       1  UNL1        0.2960
      6  C          6.5410    0.0850    1.7190 C.3     1  UNL1        0.0470
      7  C          7.0120   -0.6920    0.5740 C.2     1  UNL1       -0.0470
      8  C          6.6290   -0.3630   -0.7050 C.2     1  UNL1        0.0040
      9  C          7.8500   -1.7620    0.7890 C.2     1  UNL1        0.0040
     10  C          7.1190   -1.1480   -1.7510 C.2     1  UNL1        0.0000
     11  C          8.3330   -2.5380   -0.2460 C.2     1  UNL1        0.0000
     12  C          7.9540   -2.2150   -1.5310 C.2     1  UNL1        0.0000
@<TRIPOS>BOND
     1    10    12    2
     2    10     8    1
     3    12    11    1
     4     8     7    2
     5    11     9    2
     6     7     9    1
     7     7     6    1
     8     3     2    2
     9     6     1    1
    10     2     1    1
    11     2     4    1
    12     5     4    1
