@<TRIPOS>MOLECULE
/home/cewinharhar/GITHUB/reincatalyze/data/processed/docking_pred/2023-May-02-0947_maxeplen10_maxtrainstep1000_seadep32_gamma099_lrac9e-4_lrcr1e-3/fd0126b23dad862f417327e64da043fff24e40de_ligand_2.pdbqt
 12 12 0 0 0
SMALL
GASTEIGER

@<TRIPOS>ATOM
      1  C          8.4050   -0.6600   -2.0720 C.3     1  UNL1        0.1270
      2  C          8.3760   -1.9040   -2.8770 C.2     1  UNL1        0.3030
      3  O          7.2900   -2.4140   -3.2480 O.2     1  UNL1       -0.2520
      4  O          9.5510   -2.5410   -3.2420 O.3     1  UNL1       -0.4810
      5  H          9.7030   -3.5130   -2.9580 H       1  UNL1        0.2960
      6  C          7.0280   -0.0690   -2.0690 C.3     1  UNL1        0.0470
      7  C          6.4570    0.0980   -0.7330 C.2     1  UNL1       -0.0470
      8  C          5.8030    1.2590   -0.3890 C.2     1  UNL1        0.0040
      9  C          6.5770   -0.9220    0.1810 C.2     1  UNL1        0.0040
     10  C          5.2810    1.3490    0.9040 C.2     1  UNL1        0.0000
     11  C          6.0600   -0.8310    1.4580 C.2     1  UNL1        0.0000
     12  C          5.4050    0.3280    1.8120 C.2     1  UNL1        0.0000
@<TRIPOS>BOND
     1     3     2    2
     2     4     5    1
     3     4     2    1
     4     2     1    1
     5     1     6    1
     6     6     7    1
     7     7     8    2
     8     7     9    1
     9     8    10    1
    10     9    11    2
    11    10    12    2
    12    11    12    1
