MODEL 1
REMARK VINA RESULT:      -7.1      0.000      0.000
REMARK SMILES O=C(O)CCc1ccccc1
REMARK SMILES IDX 4 1 2 2 1 3 3 4 5 6 6 7 7 8 11 9 8 10 10 11 9 12
REMARK H PARENT 3 5
REMARK Flexibility Score: inf
ROOT
ATOM      1  C   UNL     1       8.429  -0.655  -2.117  1.00  0.00     0.127 C 
ENDROOT
BRANCH   1   2
ATOM      2  C   UNL     1       8.468  -1.910  -2.905  1.00  0.00     0.303 C 
ATOM      3  O   UNL     1       9.546  -2.524  -3.097  1.00  0.00    -0.252 OA
BRANCH   2   4
ATOM      4  O   UNL     1       7.311  -2.440  -3.454  1.00  0.00    -0.481 OA
ATOM      5  H   UNL     1       6.879  -3.259  -3.017  1.00  0.00     0.296 HD
ENDBRANCH   2   4
ENDBRANCH   1   2
BRANCH   1   6
ATOM      6  C   UNL     1       7.020  -0.144  -2.116  1.00  0.00     0.047 C 
BRANCH   6   7
ATOM      7  C   UNL     1       6.461   0.053  -0.779  1.00  0.00    -0.047 A 
ATOM      8  C   UNL     1       5.818   1.224  -0.452  1.00  0.00     0.004 A 
ATOM      9  C   UNL     1       6.581  -0.951   0.154  1.00  0.00     0.004 A 
ATOM     10  C   UNL     1       5.307   1.343   0.843  1.00  0.00     0.000 A 
ATOM     11  C   UNL     1       6.076  -0.831   1.433  1.00  0.00     0.000 A 
ATOM     12  C   UNL     1       5.431   0.339   1.770  1.00  0.00     0.000 A 
ENDBRANCH   6   7
ENDBRANCH   1   6
TORSDOF 4
ENDMDL
MODEL 2
REMARK VINA RESULT:      -6.8      1.384      1.967
REMARK SMILES O=C(O)CCc1ccccc1
REMARK SMILES IDX 4 1 2 2 1 3 3 4 5 6 6 7 7 8 11 9 8 10 10 11 9 12
REMARK H PARENT 3 5
REMARK Flexibility Score: inf
ROOT
ATOM      1  C   UNL     1       8.281  -0.506  -2.312  1.00  0.00     0.127 C 
ENDROOT
BRANCH   1   2
ATOM      2  C   UNL     1       8.387  -1.836  -2.956  1.00  0.00     0.303 C 
ATOM      3  O   UNL     1       9.495  -2.416  -3.075  1.00  0.00    -0.252 OA
BRANCH   2   4
ATOM      4  O   UNL     1       7.262  -2.479  -3.447  1.00  0.00    -0.481 OA
ATOM      5  H   UNL     1       6.804  -3.194  -2.875  1.00  0.00     0.296 HD
ENDBRANCH   2   4
ENDBRANCH   1   2
BRANCH   1   6
ATOM      6  C   UNL     1       7.022  -0.474  -1.501  1.00  0.00     0.047 C 
BRANCH   6   7
ATOM      7  C   UNL     1       6.839   0.758  -0.735  1.00  0.00    -0.047 A 
ATOM      8  C   UNL     1       7.904   1.358  -0.104  1.00  0.00     0.004 A 
ATOM      9  C   UNL     1       5.585   1.316  -0.652  1.00  0.00     0.004 A 
ATOM     10  C   UNL     1       7.656   2.533   0.610  1.00  0.00     0.000 A 
ATOM     11  C   UNL     1       5.341   2.478   0.054  1.00  0.00     0.000 A 
ATOM     12  C   UNL     1       6.402   3.085   0.690  1.00  0.00     0.000 A 
ENDBRANCH   6   7
ENDBRANCH   1   6
TORSDOF 4
ENDMDL
