@<TRIPOS>MOLECULE
/home/cewinharhar/GITHUB/reincatalyze/data/processed/docking_pred/2023-May-02-0947_maxeplen10_maxtrainstep1000_seadep32_gamma099_lrac9e-4_lrcr1e-3/fd751eb3811fc03d22e30b1993ea0072812fb772_ligand_2.pdbqt
 12 12 0 0 0
SMALL
GASTEIGER

@<TRIPOS>ATOM
      1  C          8.2810   -0.5060   -2.3120 C.3     1  UNL1        0.1270
      2  C          8.3870   -1.8360   -2.9560 C.2     1  UNL1        0.3030
      3  O          9.4950   -2.4160   -3.0750 O.2     1  UNL1       -0.2520
      4  O          7.2620   -2.4790   -3.4470 O.3     1  UNL1       -0.4810
      5  H          6.8040   -3.1940   -2.8750 H       1  UNL1        0.2960
      6  C          7.0220   -0.4740   -1.5010 C.3     1  UNL1        0.0470
      7  C          6.8390    0.7580   -0.7350 C.2     1  UNL1       -0.0470
      8  C          7.9040    1.3580   -0.1040 C.2     1  UNL1        0.0040
      9  C          5.5850    1.3160   -0.6520 C.2     1  UNL1        0.0040
     10  C          7.6560    2.5330    0.6100 C.2     1  UNL1        0.0000
     11  C          5.3410    2.4780    0.0540 C.2     1  UNL1        0.0000
     12  C          6.4020    3.0850    0.6900 C.2     1  UNL1        0.0000
@<TRIPOS>BOND
     1     4     2    1
     2     4     5    1
     3     3     2    2
     4     2     1    1
     5     1     6    1
     6     6     7    1
     7     7     9    2
     8     7     8    1
     9     9    11    1
    10     8    10    2
    11    11    12    2
    12    10    12    1
