@<TRIPOS>MOLECULE
/home/cewinharhar/GITHUB/reincatalyze/data/processed/docking_pred/2023-May-22-1531_sub9_nm5_bs15_s42_ex16_mel10_mts1000_k50_ec02_g099_lra9e-4_lrc1e-3/00fabcb6e86abbd64330e8a307762c5d347247e8_ligand_9.pdbqt
 14 15 0 0 0
SMALL
GASTEIGER

@<TRIPOS>ATOM
      1  C          5.7320    1.3130   -0.3080 C.3     1  UNL1        0.0800
      2  C          5.1640    1.2840    1.0680 C.2     1  UNL1        0.1300
      3  C          5.3380    0.1070    1.9600 C.3     1  UNL1        0.0870
      4  O          4.5340    2.2330    1.5060 O.2     1  UNL1       -0.3000
      5  C          7.2330    1.0990   -0.2890 C.3     1  UNL1        0.0430
      6  C          7.6080   -0.1960   -0.8850 C.2     1  UNL1       -0.0440
      7  C          7.6800   -0.3710   -2.2720 C.2     1  UNL1        0.0080
      8  C          7.8990   -1.2640   -0.0680 C.2     1  UNL1        0.0540
      9  C          8.0380   -1.6080   -2.7750 C.2     1  UNL1        0.0510
     10  C          8.2620   -2.5130   -0.5810 C.2     1  UNL1        0.1660
     11  C          8.3310   -2.6870   -1.9460 C.2     1  UNL1        0.1650
     12  O          8.5930   -3.7130    0.0120 O.2     1  UNL1       -0.4540
     13  O          8.7080   -4.0030   -2.1640 O.2     1  UNL1       -0.4540
     14  C          8.9730   -4.6630   -0.9490 C.3     1  UNL1        0.4680
@<TRIPOS>BOND
     1     9     7    1
     2     9    11    2
     3     7     6    2
     4    13    11    1
     5    13    14    1
     6    11    10    1
     7    14    12    1
     8     6     5    1
     9     6     8    1
    10    10     8    2
    11    10    12    1
    12     1     5    1
    13     1     2    1
    14     2     4    2
    15     2     3    1
