MODEL 1
REMARK VINA RESULT:      -7.9      0.000      0.000
REMARK SMILES CC(=O)CCc1ccc2c(c1)OCO2
REMARK SMILES IDX 4 1 2 2 1 3 3 4 5 5 6 6 7 7 11 8 8 9 10 10 9 11 12 12 14 13
REMARK SMILES IDX 13 14
REMARK H PARENT
REMARK Flexibility Score: inf
ROOT
ATOM      1  C   UNL     1       5.440   2.902   0.095  1.00  0.00     0.080 C 
ENDROOT
BRANCH   1   2
ATOM      2  C   UNL     1       6.280   3.804   0.932  1.00  0.00     0.130 C 
ATOM      3  C   UNL     1       7.228   4.775   0.323  1.00  0.00     0.087 C 
ATOM      4  O   UNL     1       6.213   3.772   2.150  1.00  0.00    -0.300 OA
ENDBRANCH   1   2
BRANCH   1   5
ATOM      5  C   UNL     1       5.183   1.583   0.796  1.00  0.00     0.043 C 
BRANCH   5   6
ATOM      6  C   UNL     1       6.020   0.501   0.246  1.00  0.00    -0.044 A 
ATOM      7  C   UNL     1       6.335  -0.636   0.999  1.00  0.00     0.008 A 
ATOM      8  C   UNL     1       6.506   0.599  -1.038  1.00  0.00     0.054 A 
ATOM      9  C   UNL     1       7.124  -1.620   0.431  1.00  0.00     0.051 A 
ATOM     10  C   UNL     1       7.302  -0.398  -1.608  1.00  0.00     0.166 A 
ATOM     11  C   UNL     1       7.614  -1.517  -0.868  1.00  0.00     0.165 A 
ATOM     12  O   UNL     1       7.898  -0.532  -2.844  1.00  0.00    -0.454 OA
ATOM     13  O   UNL     1       8.403  -2.323  -1.673  1.00  0.00    -0.454 OA
ATOM     14  C   UNL     1       8.532  -1.780  -2.965  1.00  0.00     0.468 C 
ENDBRANCH   5   6
ENDBRANCH   1   5
TORSDOF 3
ENDMDL
MODEL 2
REMARK VINA RESULT:      -7.7      1.886      2.618
REMARK SMILES CC(=O)CCc1ccc2c(c1)OCO2
REMARK SMILES IDX 4 1 2 2 1 3 3 4 5 5 6 6 7 7 11 8 8 9 10 10 9 11 12 12 14 13
REMARK SMILES IDX 13 14
REMARK H PARENT
REMARK Flexibility Score: inf
ROOT
ATOM      1  C   UNL     1       5.513   1.922   1.263  1.00  0.00     0.080 C 
ENDROOT
BRANCH   1   2
ATOM      2  C   UNL     1       5.070   0.707   2.001  1.00  0.00     0.130 C 
ATOM      3  C   UNL     1       5.958  -0.475   2.162  1.00  0.00     0.087 C 
ATOM      4  O   UNL     1       3.956   0.646   2.497  1.00  0.00    -0.300 OA
ENDBRANCH   1   2
BRANCH   1   5
ATOM      5  C   UNL     1       5.388   1.732  -0.236  1.00  0.00     0.043 C 
BRANCH   5   6
ATOM      6  C   UNL     1       6.557   1.030  -0.797  1.00  0.00    -0.044 A 
ATOM      7  C   UNL     1       7.863   1.468  -0.549  1.00  0.00     0.008 A 
ATOM      8  C   UNL     1       6.371  -0.084  -1.582  1.00  0.00     0.054 A 
ATOM      9  C   UNL     1       8.921   0.769  -1.101  1.00  0.00     0.051 A 
ATOM     10  C   UNL     1       7.444  -0.788  -2.137  1.00  0.00     0.166 A 
ATOM     11  C   UNL     1       8.729  -0.358  -1.895  1.00  0.00     0.165 A 
ATOM     12  O   UNL     1       7.519  -1.907  -2.940  1.00  0.00    -0.454 OA
ATOM     13  O   UNL     1       9.576  -1.231  -2.559  1.00  0.00    -0.454 OA
ATOM     14  C   UNL     1       8.855  -2.280  -3.159  1.00  0.00     0.468 C 
ENDBRANCH   5   6
ENDBRANCH   1   5
TORSDOF 3
ENDMDL
MODEL 3
REMARK VINA RESULT:      -7.5      1.962      3.023
REMARK SMILES CC(=O)CCc1ccc2c(c1)OCO2
REMARK SMILES IDX 4 1 2 2 1 3 3 4 5 5 6 6 7 7 11 8 8 9 10 10 9 11 12 12 14 13
REMARK SMILES IDX 13 14
REMARK H PARENT
REMARK Flexibility Score: inf
ROOT
ATOM      1  C   UNL     1       5.732   1.313  -0.308  1.00  0.00     0.080 C 
ENDROOT
BRANCH   1   2
ATOM      2  C   UNL     1       5.164   1.284   1.068  1.00  0.00     0.130 C 
ATOM      3  C   UNL     1       5.338   0.107   1.960  1.00  0.00     0.087 C 
ATOM      4  O   UNL     1       4.534   2.233   1.506  1.00  0.00    -0.300 OA
ENDBRANCH   1   2
BRANCH   1   5
ATOM      5  C   UNL     1       7.233   1.099  -0.289  1.00  0.00     0.043 C 
BRANCH   5   6
ATOM      6  C   UNL     1       7.608  -0.196  -0.885  1.00  0.00    -0.044 A 
ATOM      7  C   UNL     1       7.680  -0.371  -2.272  1.00  0.00     0.008 A 
ATOM      8  C   UNL     1       7.899  -1.264  -0.068  1.00  0.00     0.054 A 
ATOM      9  C   UNL     1       8.038  -1.608  -2.775  1.00  0.00     0.051 A 
ATOM     10  C   UNL     1       8.262  -2.513  -0.581  1.00  0.00     0.166 A 
ATOM     11  C   UNL     1       8.331  -2.687  -1.946  1.00  0.00     0.165 A 
ATOM     12  O   UNL     1       8.593  -3.713   0.012  1.00  0.00    -0.454 OA
ATOM     13  O   UNL     1       8.708  -4.003  -2.164  1.00  0.00    -0.454 OA
ATOM     14  C   UNL     1       8.973  -4.663  -0.949  1.00  0.00     0.468 C 
ENDBRANCH   5   6
ENDBRANCH   1   5
TORSDOF 3
ENDMDL
