@<TRIPOS>MOLECULE
/home/cewinharhar/GITHUB/reincatalyze/data/processed/docking_pred/2023-May-22-1531_sub9_nm5_bs15_s42_ex16_mel10_mts1000_k50_ec02_g099_lra9e-4_lrc1e-3/00fabcb6e86abbd64330e8a307762c5d347247e8_ligand_9.pdbqt
 14 15 0 0 0
SMALL
GASTEIGER

@<TRIPOS>ATOM
      1  C          5.4400    2.9020    0.0950 C.3     1  UNL1        0.0800
      2  C          6.2800    3.8040    0.9320 C.2     1  UNL1        0.1300
      3  C          7.2280    4.7750    0.3230 C.3     1  UNL1        0.0870
      4  O          6.2130    3.7720    2.1500 O.2     1  UNL1       -0.3000
      5  C          5.1830    1.5830    0.7960 C.3     1  UNL1        0.0430
      6  C          6.0200    0.5010    0.2460 C.2     1  UNL1       -0.0440
      7  C          6.3350   -0.6360    0.9990 C.2     1  UNL1        0.0080
      8  C          6.5060    0.5990   -1.0380 C.2     1  UNL1        0.0540
      9  C          7.1240   -1.6200    0.4310 C.2     1  UNL1        0.0510
     10  C          7.3020   -0.3980   -1.6080 C.2     1  UNL1        0.1660
     11  C          7.6140   -1.5170   -0.8680 C.2     1  UNL1        0.1650
     12  O          7.8980   -0.5320   -2.8440 O.2     1  UNL1       -0.4540
     13  O          8.4030   -2.3230   -1.6730 O.2     1  UNL1       -0.4540
     14  C          8.5320   -1.7800   -2.9650 C.3     1  UNL1        0.4680
@<TRIPOS>BOND
     1    14    12    1
     2    14    13    1
     3    12    10    1
     4    13    11    1
     5    10     8    1
     6    10    11    2
     7     8     6    2
     8    11     9    1
     9     1     5    1
    10     1     2    1
    11     6     5    1
    12     6     7    1
    13     3     2    1
    14     9     7    2
    15     2     4    2
