@<TRIPOS>MOLECULE
/home/cewinharhar/GITHUB/reincatalyze/data/processed/docking_pred/2023-May-22-1531_sub9_nm5_bs15_s42_ex16_mel10_mts1000_k50_ec02_g099_lra9e-4_lrc1e-3/0310d41f91ab2de901a6698b161cc991790b6b4b_ligand_9.pdbqt
 14 15 0 0 0
SMALL
GASTEIGER

@<TRIPOS>ATOM
      1  C          5.5480    1.9260    1.2700 C.3     1  UNL1        0.0800
      2  C          5.1140    0.7080    2.0110 C.2     1  UNL1        0.1300
      3  C          6.0190   -0.4570    2.1960 C.3     1  UNL1        0.0870
      4  O          3.9940    0.6330    2.4900 O.2     1  UNL1       -0.3000
      5  C          5.4160    1.7350   -0.2280 C.3     1  UNL1        0.0430
      6  C          6.5800    1.0300   -0.7930 C.2     1  UNL1       -0.0440
      7  C          7.8890    1.4590   -0.5430 C.2     1  UNL1        0.0080
      8  C          6.3880   -0.0790   -1.5850 C.2     1  UNL1        0.0540
      9  C          8.9430    0.7570   -1.1000 C.2     1  UNL1        0.0510
     10  C          7.4560   -0.7850   -2.1460 C.2     1  UNL1        0.1660
     11  C          8.7440   -0.3630   -1.9010 C.2     1  UNL1        0.1650
     12  O          7.5250   -1.8990   -2.9550 O.2     1  UNL1       -0.4540
     13  O          9.5860   -1.2370   -2.5720 O.2     1  UNL1       -0.4540
     14  C          8.8590   -2.2790   -3.1780 C.3     1  UNL1        0.4680
@<TRIPOS>BOND
     1    14    12    1
     2    14    13    1
     3    12    10    1
     4    13    11    1
     5    10    11    2
     6    10     8    1
     7    11     9    1
     8     8     6    2
     9     9     7    2
    10     6     7    1
    11     6     5    1
    12     5     1    1
    13     1     2    1
    14     2     3    1
    15     2     4    2
