@<TRIPOS>MOLECULE
/home/cewinharhar/GITHUB/reincatalyze/data/processed/docking_pred/2023-May-22-1531_sub9_nm5_bs15_s42_ex16_mel10_mts1000_k50_ec02_g099_lra9e-4_lrc1e-3/0310d41f91ab2de901a6698b161cc991790b6b4b_ligand_9.pdbqt
 14 15 0 0 0
SMALL
GASTEIGER

@<TRIPOS>ATOM
      1  C          5.4570    2.8990    0.3050 C.3     1  UNL1        0.0800
      2  C          6.2790    3.8930    1.0510 C.2     1  UNL1        0.1300
      3  C          7.2570    4.7740    0.3590 C.3     1  UNL1        0.0870
      4  O          6.1720    4.0130    2.2610 O.2     1  UNL1       -0.3000
      5  C          5.3110    1.6090    1.0870 C.3     1  UNL1        0.0430
      6  C          6.1050    0.5170    0.4950 C.2     1  UNL1       -0.0440
      7  C          6.4940   -0.5970    1.2460 C.2     1  UNL1        0.0080
      8  C          6.4760    0.5840   -0.8290 C.2     1  UNL1        0.0540
      9  C          7.2380   -1.5910    0.6370 C.2     1  UNL1        0.0510
     10  C          7.2270   -0.4230   -1.4410 C.2     1  UNL1        0.1660
     11  C          7.6120   -1.5200   -0.7020 C.2     1  UNL1        0.1650
     12  O          7.7140   -0.5870   -2.7200 O.2     1  UNL1       -0.4540
     13  O          8.3330   -2.3430   -1.5520 O.2     1  UNL1       -0.4540
     14  C          8.3450   -1.8340   -2.8640 C.3     1  UNL1        0.4680
@<TRIPOS>BOND
     1    14    12    1
     2    14    13    1
     3    12    10    1
     4    13    11    1
     5    10     8    1
     6    10    11    2
     7     8     6    2
     8    11     9    1
     9     1     2    1
    10     1     5    1
    11     3     2    1
    12     6     5    1
    13     6     7    1
    14     9     7    2
    15     2     4    2
