MODEL 1
REMARK VINA RESULT:      -7.7      0.000      0.000
REMARK SMILES CC(=O)CCc1ccc2c(c1)OCO2
REMARK SMILES IDX 4 1 2 2 1 3 3 4 5 5 6 6 7 7 11 8 8 9 10 10 9 11 12 12 14 13
REMARK SMILES IDX 13 14
REMARK H PARENT
REMARK Flexibility Score: inf
ROOT
ATOM      1  C   UNL     1       5.457   2.899   0.305  1.00  0.00     0.080 C 
ENDROOT
BRANCH   1   2
ATOM      2  C   UNL     1       6.279   3.893   1.051  1.00  0.00     0.130 C 
ATOM      3  C   UNL     1       7.257   4.774   0.359  1.00  0.00     0.087 C 
ATOM      4  O   UNL     1       6.172   4.013   2.261  1.00  0.00    -0.300 OA
ENDBRANCH   1   2
BRANCH   1   5
ATOM      5  C   UNL     1       5.311   1.609   1.087  1.00  0.00     0.043 C 
BRANCH   5   6
ATOM      6  C   UNL     1       6.105   0.517   0.495  1.00  0.00    -0.044 A 
ATOM      7  C   UNL     1       6.494  -0.597   1.246  1.00  0.00     0.008 A 
ATOM      8  C   UNL     1       6.476   0.584  -0.829  1.00  0.00     0.054 A 
ATOM      9  C   UNL     1       7.238  -1.591   0.637  1.00  0.00     0.051 A 
ATOM     10  C   UNL     1       7.227  -0.423  -1.441  1.00  0.00     0.166 A 
ATOM     11  C   UNL     1       7.612  -1.520  -0.702  1.00  0.00     0.165 A 
ATOM     12  O   UNL     1       7.714  -0.587  -2.720  1.00  0.00    -0.454 OA
ATOM     13  O   UNL     1       8.333  -2.343  -1.552  1.00  0.00    -0.454 OA
ATOM     14  C   UNL     1       8.345  -1.834  -2.864  1.00  0.00     0.468 C 
ENDBRANCH   5   6
ENDBRANCH   1   5
TORSDOF 3
ENDMDL
MODEL 2
REMARK VINA RESULT:      -7.6      1.920      2.666
REMARK SMILES CC(=O)CCc1ccc2c(c1)OCO2
REMARK SMILES IDX 4 1 2 2 1 3 3 4 5 5 6 6 7 7 11 8 8 9 10 10 9 11 12 12 14 13
REMARK SMILES IDX 13 14
REMARK H PARENT
REMARK Flexibility Score: inf
ROOT
ATOM      1  C   UNL     1       5.548   1.926   1.270  1.00  0.00     0.080 C 
ENDROOT
BRANCH   1   2
ATOM      2  C   UNL     1       5.114   0.708   2.011  1.00  0.00     0.130 C 
ATOM      3  C   UNL     1       6.019  -0.457   2.196  1.00  0.00     0.087 C 
ATOM      4  O   UNL     1       3.994   0.633   2.490  1.00  0.00    -0.300 OA
ENDBRANCH   1   2
BRANCH   1   5
ATOM      5  C   UNL     1       5.416   1.735  -0.228  1.00  0.00     0.043 C 
BRANCH   5   6
ATOM      6  C   UNL     1       6.580   1.030  -0.793  1.00  0.00    -0.044 A 
ATOM      7  C   UNL     1       7.889   1.459  -0.543  1.00  0.00     0.008 A 
ATOM      8  C   UNL     1       6.388  -0.079  -1.585  1.00  0.00     0.054 A 
ATOM      9  C   UNL     1       8.943   0.757  -1.100  1.00  0.00     0.051 A 
ATOM     10  C   UNL     1       7.456  -0.785  -2.146  1.00  0.00     0.166 A 
ATOM     11  C   UNL     1       8.744  -0.363  -1.901  1.00  0.00     0.165 A 
ATOM     12  O   UNL     1       7.525  -1.899  -2.955  1.00  0.00    -0.454 OA
ATOM     13  O   UNL     1       9.586  -1.237  -2.572  1.00  0.00    -0.454 OA
ATOM     14  C   UNL     1       8.859  -2.279  -3.178  1.00  0.00     0.468 C 
ENDBRANCH   5   6
ENDBRANCH   1   5
TORSDOF 3
ENDMDL
MODEL 3
REMARK VINA RESULT:      -7.4      1.991      3.055
REMARK SMILES CC(=O)CCc1ccc2c(c1)OCO2
REMARK SMILES IDX 4 1 2 2 1 3 3 4 5 5 6 6 7 7 11 8 8 9 10 10 9 11 12 12 14 13
REMARK SMILES IDX 13 14
REMARK H PARENT
REMARK Flexibility Score: inf
ROOT
ATOM      1  C   UNL     1       5.752   1.359  -0.343  1.00  0.00     0.080 C 
ENDROOT
BRANCH   1   2
ATOM      2  C   UNL     1       5.128   1.298   1.008  1.00  0.00     0.130 C 
ATOM      3  C   UNL     1       5.387   0.165   1.937  1.00  0.00     0.087 C 
ATOM      4  O   UNL     1       4.379   2.181   1.394  1.00  0.00    -0.300 OA
ENDBRANCH   1   2
BRANCH   1   5
ATOM      5  C   UNL     1       7.246   1.116  -0.271  1.00  0.00     0.043 C 
BRANCH   5   6
ATOM      6  C   UNL     1       7.619  -0.178  -0.870  1.00  0.00    -0.044 A 
ATOM      7  C   UNL     1       7.717  -0.342  -2.257  1.00  0.00     0.008 A 
ATOM      8  C   UNL     1       7.881  -1.257  -0.057  1.00  0.00     0.054 A 
ATOM      9  C   UNL     1       8.072  -1.580  -2.763  1.00  0.00     0.051 A 
ATOM     10  C   UNL     1       8.240  -2.506  -0.573  1.00  0.00     0.166 A 
ATOM     11  C   UNL     1       8.336  -2.668  -1.937  1.00  0.00     0.165 A 
ATOM     12  O   UNL     1       8.546  -3.714   0.017  1.00  0.00    -0.454 OA
ATOM     13  O   UNL     1       8.703  -3.986  -2.159  1.00  0.00    -0.454 OA
ATOM     14  C   UNL     1       8.935  -4.660  -0.945  1.00  0.00     0.468 C 
ENDBRANCH   5   6
ENDBRANCH   1   5
TORSDOF 3
ENDMDL
