@<TRIPOS>MOLECULE
/home/cewinharhar/GITHUB/reincatalyze/data/processed/docking_pred/2023-May-22-1531_sub9_nm5_bs15_s42_ex16_mel10_mts1000_k50_ec02_g099_lra9e-4_lrc1e-3/0310d41f91ab2de901a6698b161cc991790b6b4b_ligand_9.pdbqt
 14 15 0 0 0
SMALL
GASTEIGER

@<TRIPOS>ATOM
      1  C          5.7520    1.3590   -0.3430 C.3     1  UNL1        0.0800
      2  C          5.1280    1.2980    1.0080 C.2     1  UNL1        0.1300
      3  C          5.3870    0.1650    1.9370 C.3     1  UNL1        0.0870
      4  O          4.3790    2.1810    1.3940 O.2     1  UNL1       -0.3000
      5  C          7.2460    1.1160   -0.2710 C.3     1  UNL1        0.0430
      6  C          7.6190   -0.1780   -0.8700 C.2     1  UNL1       -0.0440
      7  C          7.7170   -0.3420   -2.2570 C.2     1  UNL1        0.0080
      8  C          7.8810   -1.2570   -0.0570 C.2     1  UNL1        0.0540
      9  C          8.0720   -1.5800   -2.7630 C.2     1  UNL1        0.0510
     10  C          8.2400   -2.5060   -0.5730 C.2     1  UNL1        0.1660
     11  C          8.3360   -2.6680   -1.9370 C.2     1  UNL1        0.1650
     12  O          8.5460   -3.7140    0.0170 O.2     1  UNL1       -0.4540
     13  O          8.7030   -3.9860   -2.1590 O.2     1  UNL1       -0.4540
     14  C          8.9350   -4.6600   -0.9450 C.3     1  UNL1        0.4680
@<TRIPOS>BOND
     1     9     7    1
     2     9    11    2
     3     7     6    2
     4    13    11    1
     5    13    14    1
     6    11    10    1
     7    14    12    1
     8     6     5    1
     9     6     8    1
    10    10     8    2
    11    10    12    1
    12     1     5    1
    13     1     2    1
    14     2     4    2
    15     2     3    1
