@<TRIPOS>MOLECULE
/home/cewinharhar/GITHUB/reincatalyze/data/processed/docking_pred/2023-May-22-1531_sub9_nm5_bs15_s42_ex16_mel10_mts1000_k50_ec02_g099_lra9e-4_lrc1e-3/034cecc51265c6b10d0b2cc1c9f67b1ec6b5e3be_ligand_9.pdbqt
 14 15 0 0 0
SMALL
GASTEIGER

@<TRIPOS>ATOM
      1  C          5.7900    1.3750   -0.3590 C.3     1  UNL1        0.0800
      2  C          5.1480    1.3290    0.9840 C.2     1  UNL1        0.1300
      3  C          5.4090    0.2170    1.9370 C.3     1  UNL1        0.0870
      4  O          4.3830    2.2100    1.3430 O.2     1  UNL1       -0.3000
      5  C          7.2750    1.0810   -0.2700 C.3     1  UNL1        0.0430
      6  C          7.6130   -0.2170   -0.8800 C.2     1  UNL1       -0.0440
      7  C          7.6190   -0.3960   -2.2680 C.2     1  UNL1        0.0080
      8  C          7.9340   -1.2860   -0.0740 C.2     1  UNL1        0.0540
      9  C          7.9460   -1.6370   -2.7830 C.2     1  UNL1        0.0510
     10  C          8.2640   -2.5390   -0.6000 C.2     1  UNL1        0.1660
     11  C          8.2690   -2.7150   -1.9660 C.2     1  UNL1        0.1650
     12  O          8.6130   -3.7390   -0.0200 O.2     1  UNL1       -0.4540
     13  O          8.6270   -4.0340   -2.1980 O.2     1  UNL1       -0.4540
     14  C          8.9420   -4.6950   -0.9950 C.3     1  UNL1        0.4680
@<TRIPOS>BOND
     1     9     7    1
     2     9    11    2
     3     7     6    2
     4    13    11    1
     5    13    14    1
     6    11    10    1
     7    14    12    1
     8     6     5    1
     9     6     8    1
    10    10     8    2
    11    10    12    1
    12     1     5    1
    13     1     2    1
    14     2     4    2
    15     2     3    1
