@<TRIPOS>MOLECULE
/home/cewinharhar/GITHUB/reincatalyze/data/processed/docking_pred/2023-May-22-1531_sub9_nm5_bs15_s42_ex16_mel10_mts1000_k50_ec02_g099_lra9e-4_lrc1e-3/034cecc51265c6b10d0b2cc1c9f67b1ec6b5e3be_ligand_9.pdbqt
 14 15 0 0 0
SMALL
GASTEIGER

@<TRIPOS>ATOM
      1  C          5.4540    2.8830    0.1660 C.3     1  UNL1        0.0800
      2  C          6.2620    3.8230    0.9910 C.2     1  UNL1        0.1300
      3  C          7.2260    4.7740    0.3740 C.3     1  UNL1        0.0870
      4  O          6.1560    3.8410    2.2070 O.2     1  UNL1       -0.3000
      5  C          5.2430    1.5640    0.8820 C.3     1  UNL1        0.0430
      6  C          6.0840    0.4940    0.3150 C.2     1  UNL1       -0.0440
      7  C          6.4500   -0.6270    1.0690 C.2     1  UNL1        0.0080
      8  C          6.5220    0.5880   -0.9860 C.2     1  UNL1        0.0540
      9  C          7.2400   -1.6000    0.4830 C.2     1  UNL1        0.0510
     10  C          7.3190   -0.3990   -1.5740 C.2     1  UNL1        0.1660
     11  C          7.6820   -1.5020   -0.8320 C.2     1  UNL1        0.1650
     12  O          7.8750   -0.5350   -2.8280 O.2     1  UNL1       -0.4540
     13  O          8.4590   -2.3000   -1.6560 O.2     1  UNL1       -0.4540
     14  C          8.5320   -1.7690   -2.9580 C.3     1  UNL1        0.4680
@<TRIPOS>BOND
     1    14    12    1
     2    14    13    1
     3    12    10    1
     4    13    11    1
     5    10     8    1
     6    10    11    2
     7     8     6    2
     8    11     9    1
     9     1     5    1
    10     1     2    1
    11     6     5    1
    12     6     7    1
    13     3     2    1
    14     9     7    2
    15     2     4    2
