MODEL 1
REMARK VINA RESULT:      -7.9      0.000      0.000
REMARK SMILES CC(=O)CCc1ccc2c(c1)OCO2
REMARK SMILES IDX 4 1 2 2 1 3 3 4 5 5 6 6 7 7 11 8 8 9 10 10 9 11 12 12 14 13
REMARK SMILES IDX 13 14
REMARK H PARENT
REMARK Flexibility Score: inf
ROOT
ATOM      1  C   UNL     1       5.454   2.883   0.166  1.00  0.00     0.080 C 
ENDROOT
BRANCH   1   2
ATOM      2  C   UNL     1       6.262   3.823   0.991  1.00  0.00     0.130 C 
ATOM      3  C   UNL     1       7.226   4.774   0.374  1.00  0.00     0.087 C 
ATOM      4  O   UNL     1       6.156   3.841   2.207  1.00  0.00    -0.300 OA
ENDBRANCH   1   2
BRANCH   1   5
ATOM      5  C   UNL     1       5.243   1.564   0.882  1.00  0.00     0.043 C 
BRANCH   5   6
ATOM      6  C   UNL     1       6.084   0.494   0.315  1.00  0.00    -0.044 A 
ATOM      7  C   UNL     1       6.450  -0.627   1.069  1.00  0.00     0.008 A 
ATOM      8  C   UNL     1       6.522   0.588  -0.986  1.00  0.00     0.054 A 
ATOM      9  C   UNL     1       7.240  -1.600   0.483  1.00  0.00     0.051 A 
ATOM     10  C   UNL     1       7.319  -0.399  -1.574  1.00  0.00     0.166 A 
ATOM     11  C   UNL     1       7.682  -1.502  -0.832  1.00  0.00     0.165 A 
ATOM     12  O   UNL     1       7.875  -0.535  -2.828  1.00  0.00    -0.454 OA
ATOM     13  O   UNL     1       8.459  -2.300  -1.656  1.00  0.00    -0.454 OA
ATOM     14  C   UNL     1       8.532  -1.769  -2.958  1.00  0.00     0.468 C 
ENDBRANCH   5   6
ENDBRANCH   1   5
TORSDOF 3
ENDMDL
MODEL 2
REMARK VINA RESULT:      -7.6      1.887      2.600
REMARK SMILES CC(=O)CCc1ccc2c(c1)OCO2
REMARK SMILES IDX 4 1 2 2 1 3 3 4 5 5 6 6 7 7 11 8 8 9 10 10 9 11 12 12 14 13
REMARK SMILES IDX 13 14
REMARK H PARENT
REMARK Flexibility Score: inf
ROOT
ATOM      1  C   UNL     1       5.547   1.928   1.263  1.00  0.00     0.080 C 
ENDROOT
BRANCH   1   2
ATOM      2  C   UNL     1       5.124   0.709   2.006  1.00  0.00     0.130 C 
ATOM      3  C   UNL     1       6.038  -0.450   2.190  1.00  0.00     0.087 C 
ATOM      4  O   UNL     1       4.006   0.624   2.487  1.00  0.00    -0.300 OA
ENDBRANCH   1   2
BRANCH   1   5
ATOM      5  C   UNL     1       5.417   1.733  -0.235  1.00  0.00     0.043 C 
BRANCH   5   6
ATOM      6  C   UNL     1       6.581   1.025  -0.797  1.00  0.00    -0.044 A 
ATOM      7  C   UNL     1       7.890   1.450  -0.543  1.00  0.00     0.008 A 
ATOM      8  C   UNL     1       6.387  -0.083  -1.590  1.00  0.00     0.054 A 
ATOM      9  C   UNL     1       8.943   0.745  -1.097  1.00  0.00     0.051 A 
ATOM     10  C   UNL     1       7.455  -0.792  -2.147  1.00  0.00     0.166 A 
ATOM     11  C   UNL     1       8.744  -0.375  -1.899  1.00  0.00     0.165 A 
ATOM     12  O   UNL     1       7.523  -1.907  -2.956  1.00  0.00    -0.454 OA
ATOM     13  O   UNL     1       9.585  -1.251  -2.567  1.00  0.00    -0.454 OA
ATOM     14  C   UNL     1       8.856  -2.290  -3.175  1.00  0.00     0.468 C 
ENDBRANCH   5   6
ENDBRANCH   1   5
TORSDOF 3
ENDMDL
MODEL 3
REMARK VINA RESULT:      -7.5      1.983      3.016
REMARK SMILES CC(=O)CCc1ccc2c(c1)OCO2
REMARK SMILES IDX 4 1 2 2 1 3 3 4 5 5 6 6 7 7 11 8 8 9 10 10 9 11 12 12 14 13
REMARK SMILES IDX 13 14
REMARK H PARENT
REMARK Flexibility Score: inf
ROOT
ATOM      1  C   UNL     1       5.790   1.375  -0.359  1.00  0.00     0.080 C 
ENDROOT
BRANCH   1   2
ATOM      2  C   UNL     1       5.148   1.329   0.984  1.00  0.00     0.130 C 
ATOM      3  C   UNL     1       5.409   0.217   1.937  1.00  0.00     0.087 C 
ATOM      4  O   UNL     1       4.383   2.210   1.343  1.00  0.00    -0.300 OA
ENDBRANCH   1   2
BRANCH   1   5
ATOM      5  C   UNL     1       7.275   1.081  -0.270  1.00  0.00     0.043 C 
BRANCH   5   6
ATOM      6  C   UNL     1       7.613  -0.217  -0.880  1.00  0.00    -0.044 A 
ATOM      7  C   UNL     1       7.619  -0.396  -2.268  1.00  0.00     0.008 A 
ATOM      8  C   UNL     1       7.934  -1.286  -0.074  1.00  0.00     0.054 A 
ATOM      9  C   UNL     1       7.946  -1.637  -2.783  1.00  0.00     0.051 A 
ATOM     10  C   UNL     1       8.264  -2.539  -0.600  1.00  0.00     0.166 A 
ATOM     11  C   UNL     1       8.269  -2.715  -1.966  1.00  0.00     0.165 A 
ATOM     12  O   UNL     1       8.613  -3.739  -0.020  1.00  0.00    -0.454 OA
ATOM     13  O   UNL     1       8.627  -4.034  -2.198  1.00  0.00    -0.454 OA
ATOM     14  C   UNL     1       8.942  -4.695  -0.995  1.00  0.00     0.468 C 
ENDBRANCH   5   6
ENDBRANCH   1   5
TORSDOF 3
ENDMDL
