MODEL 1
REMARK VINA RESULT:      -7.8      0.000      0.000
REMARK SMILES CC(=O)CCc1ccc2c(c1)OCO2
REMARK SMILES IDX 4 1 2 2 1 3 3 4 5 5 6 6 7 7 11 8 8 9 10 10 9 11 12 12 14 13
REMARK SMILES IDX 13 14
REMARK H PARENT
REMARK Flexibility Score: inf
ROOT
ATOM      1  C   UNL     1       5.497   2.852   0.270  1.00  0.00     0.080 C 
ENDROOT
BRANCH   1   2
ATOM      2  C   UNL     1       6.285   3.861   1.031  1.00  0.00     0.130 C 
ATOM      3  C   UNL     1       7.246   4.774   0.356  1.00  0.00     0.087 C 
ATOM      4  O   UNL     1       6.163   3.968   2.241  1.00  0.00    -0.300 OA
ENDBRANCH   1   2
BRANCH   1   5
ATOM      5  C   UNL     1       5.327   1.573   1.065  1.00  0.00     0.043 C 
BRANCH   5   6
ATOM      6  C   UNL     1       6.131   0.472   0.507  1.00  0.00    -0.044 A 
ATOM      7  C   UNL     1       6.523  -0.620   1.290  1.00  0.00     0.008 A 
ATOM      8  C   UNL     1       6.510   0.506  -0.816  1.00  0.00     0.054 A 
ATOM      9  C   UNL     1       7.277  -1.625   0.712  1.00  0.00     0.051 A 
ATOM     10  C   UNL     1       7.272  -0.513  -1.396  1.00  0.00     0.166 A 
ATOM     11  C   UNL     1       7.659  -1.586  -0.626  1.00  0.00     0.165 A 
ATOM     12  O   UNL     1       7.769  -0.707  -2.668  1.00  0.00    -0.454 OA
ATOM     13  O   UNL     1       8.392  -2.427  -1.449  1.00  0.00    -0.454 OA
ATOM     14  C   UNL     1       8.409  -1.953  -2.774  1.00  0.00     0.468 C 
ENDBRANCH   5   6
ENDBRANCH   1   5
TORSDOF 3
ENDMDL
MODEL 2
REMARK VINA RESULT:      -7.7      1.922      2.672
REMARK SMILES CC(=O)CCc1ccc2c(c1)OCO2
REMARK SMILES IDX 4 1 2 2 1 3 3 4 5 5 6 6 7 7 11 8 8 9 10 10 9 11 12 12 14 13
REMARK SMILES IDX 13 14
REMARK H PARENT
REMARK Flexibility Score: inf
ROOT
ATOM      1  C   UNL     1       5.512   1.922   1.264  1.00  0.00     0.080 C 
ENDROOT
BRANCH   1   2
ATOM      2  C   UNL     1       5.060   0.708   2.000  1.00  0.00     0.130 C 
ATOM      3  C   UNL     1       5.939  -0.482   2.156  1.00  0.00     0.087 C 
ATOM      4  O   UNL     1       3.948   0.655   2.499  1.00  0.00    -0.300 OA
ENDBRANCH   1   2
BRANCH   1   5
ATOM      5  C   UNL     1       5.389   1.734  -0.235  1.00  0.00     0.043 C 
BRANCH   5   6
ATOM      6  C   UNL     1       6.558   1.034  -0.796  1.00  0.00    -0.044 A 
ATOM      7  C   UNL     1       7.864   1.472  -0.547  1.00  0.00     0.008 A 
ATOM      8  C   UNL     1       6.373  -0.080  -1.582  1.00  0.00     0.054 A 
ATOM      9  C   UNL     1       8.922   0.775  -1.100  1.00  0.00     0.051 A 
ATOM     10  C   UNL     1       7.447  -0.783  -2.138  1.00  0.00     0.166 A 
ATOM     11  C   UNL     1       8.732  -0.351  -1.895  1.00  0.00     0.165 A 
ATOM     12  O   UNL     1       7.523  -1.900  -2.941  1.00  0.00    -0.454 OA
ATOM     13  O   UNL     1       9.580  -1.223  -2.560  1.00  0.00    -0.454 OA
ATOM     14  C   UNL     1       8.860  -2.273  -3.161  1.00  0.00     0.468 C 
ENDBRANCH   5   6
ENDBRANCH   1   5
TORSDOF 3
ENDMDL
MODEL 3
REMARK VINA RESULT:      -7.5      1.976      3.017
REMARK SMILES CC(=O)CCc1ccc2c(c1)OCO2
REMARK SMILES IDX 4 1 2 2 1 3 3 4 5 5 6 6 7 7 11 8 8 9 10 10 9 11 12 12 14 13
REMARK SMILES IDX 13 14
REMARK H PARENT
REMARK Flexibility Score: inf
ROOT
ATOM      1  C   UNL     1       5.771   1.359  -0.348  1.00  0.00     0.080 C 
ENDROOT
BRANCH   1   2
ATOM      2  C   UNL     1       5.143   1.310   1.002  1.00  0.00     0.130 C 
ATOM      3  C   UNL     1       5.402   0.188   1.944  1.00  0.00     0.087 C 
ATOM      4  O   UNL     1       4.391   2.196   1.376  1.00  0.00    -0.300 OA
ENDBRANCH   1   2
BRANCH   1   5
ATOM      5  C   UNL     1       7.257   1.071  -0.274  1.00  0.00     0.043 C 
BRANCH   5   6
ATOM      6  C   UNL     1       7.593  -0.230  -0.878  1.00  0.00    -0.044 A 
ATOM      7  C   UNL     1       7.577  -0.421  -2.264  1.00  0.00     0.008 A 
ATOM      8  C   UNL     1       7.935  -1.290  -0.069  1.00  0.00     0.054 A 
ATOM      9  C   UNL     1       7.902  -1.665  -2.774  1.00  0.00     0.051 A 
ATOM     10  C   UNL     1       8.263  -2.545  -0.589  1.00  0.00     0.166 A 
ATOM     11  C   UNL     1       8.246  -2.734  -1.953  1.00  0.00     0.165 A 
ATOM     12  O   UNL     1       8.630  -3.739  -0.004  1.00  0.00    -0.454 OA
ATOM     13  O   UNL     1       8.608  -4.053  -2.180  1.00  0.00    -0.454 OA
ATOM     14  C   UNL     1       8.948  -4.701  -0.977  1.00  0.00     0.468 C 
ENDBRANCH   5   6
ENDBRANCH   1   5
TORSDOF 3
ENDMDL
