@<TRIPOS>MOLECULE
/home/cewinharhar/GITHUB/reincatalyze/data/processed/docking_pred/2023-May-22-1531_sub9_nm5_bs15_s42_ex16_mel10_mts1000_k50_ec02_g099_lra9e-4_lrc1e-3/04093ca98f76925b46d8e425639cb467aa73d951_ligand_9.pdbqt
 14 15 0 0 0
SMALL
GASTEIGER

@<TRIPOS>ATOM
      1  C          5.4970    2.8520    0.2700 C.3     1  UNL1        0.0800
      2  C          6.2850    3.8610    1.0310 C.2     1  UNL1        0.1300
      3  C          7.2460    4.7740    0.3560 C.3     1  UNL1        0.0870
      4  O          6.1630    3.9680    2.2410 O.2     1  UNL1       -0.3000
      5  C          5.3270    1.5730    1.0650 C.3     1  UNL1        0.0430
      6  C          6.1310    0.4720    0.5070 C.2     1  UNL1       -0.0440
      7  C          6.5230   -0.6200    1.2900 C.2     1  UNL1        0.0080
      8  C          6.5100    0.5060   -0.8160 C.2     1  UNL1        0.0540
      9  C          7.2770   -1.6250    0.7120 C.2     1  UNL1        0.0510
     10  C          7.2720   -0.5130   -1.3960 C.2     1  UNL1        0.1660
     11  C          7.6590   -1.5860   -0.6260 C.2     1  UNL1        0.1650
     12  O          7.7690   -0.7070   -2.6680 O.2     1  UNL1       -0.4540
     13  O          8.3920   -2.4270   -1.4490 O.2     1  UNL1       -0.4540
     14  C          8.4090   -1.9530   -2.7740 C.3     1  UNL1        0.4680
@<TRIPOS>BOND
     1    14    12    1
     2    14    13    1
     3    12    10    1
     4    13    11    1
     5    10     8    1
     6    10    11    2
     7     8     6    2
     8    11     9    1
     9     1     2    1
    10     1     5    1
    11     3     2    1
    12     6     5    1
    13     6     7    1
    14     9     7    2
    15     2     4    2
