@<TRIPOS>MOLECULE
/home/cewinharhar/GITHUB/reincatalyze/data/processed/docking_pred/2023-May-22-1531_sub9_nm5_bs15_s42_ex16_mel10_mts1000_k50_ec02_g099_lra9e-4_lrc1e-3/04093ca98f76925b46d8e425639cb467aa73d951_ligand_9.pdbqt
 14 15 0 0 0
SMALL
GASTEIGER

@<TRIPOS>ATOM
      1  C          5.5120    1.9220    1.2640 C.3     1  UNL1        0.0800
      2  C          5.0600    0.7080    2.0000 C.2     1  UNL1        0.1300
      3  C          5.9390   -0.4820    2.1560 C.3     1  UNL1        0.0870
      4  O          3.9480    0.6550    2.4990 O.2     1  UNL1       -0.3000
      5  C          5.3890    1.7340   -0.2350 C.3     1  UNL1        0.0430
      6  C          6.5580    1.0340   -0.7960 C.2     1  UNL1       -0.0440
      7  C          7.8640    1.4720   -0.5470 C.2     1  UNL1        0.0080
      8  C          6.3730   -0.0800   -1.5820 C.2     1  UNL1        0.0540
      9  C          8.9220    0.7750   -1.1000 C.2     1  UNL1        0.0510
     10  C          7.4470   -0.7830   -2.1380 C.2     1  UNL1        0.1660
     11  C          8.7320   -0.3510   -1.8950 C.2     1  UNL1        0.1650
     12  O          7.5230   -1.9000   -2.9410 O.2     1  UNL1       -0.4540
     13  O          9.5800   -1.2230   -2.5600 O.2     1  UNL1       -0.4540
     14  C          8.8600   -2.2730   -3.1610 C.3     1  UNL1        0.4680
@<TRIPOS>BOND
     1    14    12    1
     2    14    13    1
     3    12    10    1
     4    13    11    1
     5    10    11    2
     6    10     8    1
     7    11     9    1
     8     8     6    2
     9     9     7    2
    10     6     7    1
    11     6     5    1
    12     5     1    1
    13     1     2    1
    14     2     3    1
    15     2     4    2
