MODEL 1
REMARK VINA RESULT:      -7.7      0.000      0.000
REMARK SMILES CC(=O)CCc1ccc2c(c1)OCO2
REMARK SMILES IDX 4 1 2 2 1 3 3 4 5 5 6 6 7 7 11 8 8 9 10 10 9 11 12 12 14 13
REMARK SMILES IDX 13 14
REMARK H PARENT
REMARK Flexibility Score: inf
ROOT
ATOM      1  C   UNL     1       5.522   2.831   0.310  1.00  0.00     0.080 C 
ENDROOT
BRANCH   1   2
ATOM      2  C   UNL     1       6.417   3.720   1.102  1.00  0.00     0.130 C 
ATOM      3  C   UNL     1       7.242   4.775   0.455  1.00  0.00     0.087 C 
ATOM      4  O   UNL     1       6.501   3.605   2.314  1.00  0.00    -0.300 OA
ENDBRANCH   1   2
BRANCH   1   5
ATOM      5  C   UNL     1       5.285   1.513   1.020  1.00  0.00     0.043 C 
BRANCH   5   6
ATOM      6  C   UNL     1       6.092   0.426   0.438  1.00  0.00    -0.044 A 
ATOM      7  C   UNL     1       6.443  -0.706   1.182  1.00  0.00     0.008 A 
ATOM      8  C   UNL     1       6.514   0.514  -0.869  1.00  0.00     0.054 A 
ATOM      9  C   UNL     1       7.201  -1.695   0.583  1.00  0.00     0.051 A 
ATOM     10  C   UNL     1       7.279  -0.489  -1.471  1.00  0.00     0.166 A 
ATOM     11  C   UNL     1       7.626  -1.602  -0.739  1.00  0.00     0.165 A 
ATOM     12  O   UNL     1       7.813  -0.633  -2.734  1.00  0.00    -0.454 OA
ATOM     13  O   UNL     1       8.373  -2.416  -1.577  1.00  0.00    -0.454 OA
ATOM     14  C   UNL     1       8.439  -1.882  -2.877  1.00  0.00     0.468 C 
ENDBRANCH   5   6
ENDBRANCH   1   5
TORSDOF 3
ENDMDL
MODEL 2
REMARK VINA RESULT:      -7.7      1.898      2.651
REMARK SMILES CC(=O)CCc1ccc2c(c1)OCO2
REMARK SMILES IDX 4 1 2 2 1 3 3 4 5 5 6 6 7 7 11 8 8 9 10 10 9 11 12 12 14 13
REMARK SMILES IDX 13 14
REMARK H PARENT
REMARK Flexibility Score: inf
ROOT
ATOM      1  C   UNL     1       5.516   1.904   1.274  1.00  0.00     0.080 C 
ENDROOT
BRANCH   1   2
ATOM      2  C   UNL     1       5.074   0.684   2.006  1.00  0.00     0.130 C 
ATOM      3  C   UNL     1       5.962  -0.500   2.155  1.00  0.00     0.087 C 
ATOM      4  O   UNL     1       3.963   0.621   2.507  1.00  0.00    -0.300 OA
ENDBRANCH   1   2
BRANCH   1   5
ATOM      5  C   UNL     1       5.390   1.722  -0.226  1.00  0.00     0.043 C 
BRANCH   5   6
ATOM      6  C   UNL     1       6.560   1.027  -0.792  1.00  0.00    -0.044 A 
ATOM      7  C   UNL     1       7.865   1.470  -0.547  1.00  0.00     0.008 A 
ATOM      8  C   UNL     1       6.377  -0.086  -1.580  1.00  0.00     0.054 A 
ATOM      9  C   UNL     1       8.924   0.778  -1.104  1.00  0.00     0.051 A 
ATOM     10  C   UNL     1       7.451  -0.784  -2.140  1.00  0.00     0.166 A 
ATOM     11  C   UNL     1       8.736  -0.348  -1.901  1.00  0.00     0.165 A 
ATOM     12  O   UNL     1       7.530  -1.900  -2.946  1.00  0.00    -0.454 OA
ATOM     13  O   UNL     1       9.585  -1.215  -2.570  1.00  0.00    -0.454 OA
ATOM     14  C   UNL     1       8.867  -2.266  -3.171  1.00  0.00     0.468 C 
ENDBRANCH   5   6
ENDBRANCH   1   5
TORSDOF 3
ENDMDL
MODEL 3
REMARK VINA RESULT:      -7.5      1.967      3.020
REMARK SMILES CC(=O)CCc1ccc2c(c1)OCO2
REMARK SMILES IDX 4 1 2 2 1 3 3 4 5 5 6 6 7 7 11 8 8 9 10 10 9 11 12 12 14 13
REMARK SMILES IDX 13 14
REMARK H PARENT
REMARK Flexibility Score: inf
ROOT
ATOM      1  C   UNL     1       5.730   1.290  -0.306  1.00  0.00     0.080 C 
ENDROOT
BRANCH   1   2
ATOM      2  C   UNL     1       5.162   1.278   1.070  1.00  0.00     0.130 C 
ATOM      3  C   UNL     1       5.314   0.102   1.968  1.00  0.00     0.087 C 
ATOM      4  O   UNL     1       4.549   2.241   1.504  1.00  0.00    -0.300 OA
ENDBRANCH   1   2
BRANCH   1   5
ATOM      5  C   UNL     1       7.231   1.079  -0.284  1.00  0.00     0.043 C 
BRANCH   5   6
ATOM      6  C   UNL     1       7.610  -0.213  -0.882  1.00  0.00    -0.044 A 
ATOM      7  C   UNL     1       7.694  -0.383  -2.268  1.00  0.00     0.008 A 
ATOM      8  C   UNL     1       7.894  -1.285  -0.066  1.00  0.00     0.054 A 
ATOM      9  C   UNL     1       8.055  -1.619  -2.772  1.00  0.00     0.051 A 
ATOM     10  C   UNL     1       8.260  -2.532  -0.581  1.00  0.00     0.166 A 
ATOM     11  C   UNL     1       8.341  -2.701  -1.945  1.00  0.00     0.165 A 
ATOM     12  O   UNL     1       8.586  -3.734   0.011  1.00  0.00    -0.454 OA
ATOM     13  O   UNL     1       8.719  -4.016  -2.165  1.00  0.00    -0.454 OA
ATOM     14  C   UNL     1       8.973  -4.682  -0.951  1.00  0.00     0.468 C 
ENDBRANCH   5   6
ENDBRANCH   1   5
TORSDOF 3
ENDMDL
