@<TRIPOS>MOLECULE
/home/cewinharhar/GITHUB/reincatalyze/data/processed/docking_pred/2023-May-22-1531_sub9_nm5_bs15_s42_ex16_mel10_mts1000_k50_ec02_g099_lra9e-4_lrc1e-3/051d9442833557c4466992e4bdada3c2de553c76_ligand_9.pdbqt
 14 15 0 0 0
SMALL
GASTEIGER

@<TRIPOS>ATOM
      1  C          5.5160    1.9040    1.2740 C.3     1  UNL1        0.0800
      2  C          5.0740    0.6840    2.0060 C.2     1  UNL1        0.1300
      3  C          5.9620   -0.5000    2.1550 C.3     1  UNL1        0.0870
      4  O          3.9630    0.6210    2.5070 O.2     1  UNL1       -0.3000
      5  C          5.3900    1.7220   -0.2260 C.3     1  UNL1        0.0430
      6  C          6.5600    1.0270   -0.7920 C.2     1  UNL1       -0.0440
      7  C          7.8650    1.4700   -0.5470 C.2     1  UNL1        0.0080
      8  C          6.3770   -0.0860   -1.5800 C.2     1  UNL1        0.0540
      9  C          8.9240    0.7780   -1.1040 C.2     1  UNL1        0.0510
     10  C          7.4510   -0.7840   -2.1400 C.2     1  UNL1        0.1660
     11  C          8.7360   -0.3480   -1.9010 C.2     1  UNL1        0.1650
     12  O          7.5300   -1.9000   -2.9460 O.2     1  UNL1       -0.4540
     13  O          9.5850   -1.2150   -2.5700 O.2     1  UNL1       -0.4540
     14  C          8.8670   -2.2660   -3.1710 C.3     1  UNL1        0.4680
@<TRIPOS>BOND
     1    14    12    1
     2    14    13    1
     3    12    10    1
     4    13    11    1
     5    10    11    2
     6    10     8    1
     7    11     9    1
     8     8     6    2
     9     9     7    2
    10     6     7    1
    11     6     5    1
    12     5     1    1
    13     1     2    1
    14     2     3    1
    15     2     4    2
