@<TRIPOS>MOLECULE
/home/cewinharhar/GITHUB/reincatalyze/data/processed/docking_pred/2023-May-22-1531_sub9_nm5_bs15_s42_ex16_mel10_mts1000_k50_ec02_g099_lra9e-4_lrc1e-3/051d9442833557c4466992e4bdada3c2de553c76_ligand_9.pdbqt
 14 15 0 0 0
SMALL
GASTEIGER

@<TRIPOS>ATOM
      1  C          5.5220    2.8310    0.3100 C.3     1  UNL1        0.0800
      2  C          6.4170    3.7200    1.1020 C.2     1  UNL1        0.1300
      3  C          7.2420    4.7750    0.4550 C.3     1  UNL1        0.0870
      4  O          6.5010    3.6050    2.3140 O.2     1  UNL1       -0.3000
      5  C          5.2850    1.5130    1.0200 C.3     1  UNL1        0.0430
      6  C          6.0920    0.4260    0.4380 C.2     1  UNL1       -0.0440
      7  C          6.4430   -0.7060    1.1820 C.2     1  UNL1        0.0080
      8  C          6.5140    0.5140   -0.8690 C.2     1  UNL1        0.0540
      9  C          7.2010   -1.6950    0.5830 C.2     1  UNL1        0.0510
     10  C          7.2790   -0.4890   -1.4710 C.2     1  UNL1        0.1660
     11  C          7.6260   -1.6020   -0.7390 C.2     1  UNL1        0.1650
     12  O          7.8130   -0.6330   -2.7340 O.2     1  UNL1       -0.4540
     13  O          8.3730   -2.4160   -1.5770 O.2     1  UNL1       -0.4540
     14  C          8.4390   -1.8820   -2.8770 C.3     1  UNL1        0.4680
@<TRIPOS>BOND
     1    14    12    1
     2    14    13    1
     3    12    10    1
     4    13    11    1
     5    10     8    1
     6    10    11    2
     7     8     6    2
     8    11     9    1
     9     1     5    1
    10     1     2    1
    11     6     5    1
    12     6     7    1
    13     3     2    1
    14     9     7    2
    15     2     4    2
