@<TRIPOS>MOLECULE
/home/cewinharhar/GITHUB/reincatalyze/data/processed/docking_pred/2023-May-22-1531_sub9_nm5_bs15_s42_ex16_mel10_mts1000_k50_ec02_g099_lra9e-4_lrc1e-3/074f71e156faecc69724e62cc987f5104d3c940c_ligand_9.pdbqt
 14 15 0 0 0
SMALL
GASTEIGER

@<TRIPOS>ATOM
      1  C          5.4420    2.9340    0.1310 C.3     1  UNL1        0.0800
      2  C          6.2820    3.8380    0.9650 C.2     1  UNL1        0.1300
      3  C          7.2640    4.7740    0.3550 C.3     1  UNL1        0.0870
      4  O          6.1890    3.8340    2.1820 O.2     1  UNL1       -0.3000
      5  C          5.1600    1.6280    0.8470 C.3     1  UNL1        0.0430
      6  C          5.9950    0.5300    0.3300 C.2     1  UNL1       -0.0440
      7  C          6.3640   -0.5530    1.1370 C.2     1  UNL1        0.0080
      8  C          6.4280    0.5580   -0.9760 C.2     1  UNL1        0.0540
      9  C          7.1490   -1.5560    0.5970 C.2     1  UNL1        0.0510
     10  C          7.2210   -0.4580   -1.5170 C.2     1  UNL1        0.1660
     11  C          7.5850   -1.5230   -0.7240 C.2     1  UNL1        0.1650
     12  O          7.7710   -0.6570   -2.7660 O.2     1  UNL1       -0.4540
     13  O          8.3570   -2.3630   -1.5110 O.2     1  UNL1       -0.4540
     14  C          8.4250   -1.8980   -2.8370 C.3     1  UNL1        0.4680
@<TRIPOS>BOND
     1    14    12    1
     2    14    13    1
     3    12    10    1
     4    10     8    1
     5    10    11    2
     6    13    11    1
     7     8     6    2
     8    11     9    1
     9     1     5    1
    10     1     2    1
    11     6     5    1
    12     6     7    1
    13     3     2    1
    14     9     7    2
    15     2     4    2
