MODEL 1
REMARK VINA RESULT:      -7.9      0.000      0.000
REMARK SMILES CC(=O)CCc1ccc2c(c1)OCO2
REMARK SMILES IDX 4 1 2 2 1 3 3 4 5 5 6 6 7 7 11 8 8 9 10 10 9 11 12 12 14 13
REMARK SMILES IDX 13 14
REMARK H PARENT
REMARK Flexibility Score: inf
ROOT
ATOM      1  C   UNL     1       5.442   2.934   0.131  1.00  0.00     0.080 C 
ENDROOT
BRANCH   1   2
ATOM      2  C   UNL     1       6.282   3.838   0.965  1.00  0.00     0.130 C 
ATOM      3  C   UNL     1       7.264   4.774   0.355  1.00  0.00     0.087 C 
ATOM      4  O   UNL     1       6.189   3.834   2.182  1.00  0.00    -0.300 OA
ENDBRANCH   1   2
BRANCH   1   5
ATOM      5  C   UNL     1       5.160   1.628   0.847  1.00  0.00     0.043 C 
BRANCH   5   6
ATOM      6  C   UNL     1       5.995   0.530   0.330  1.00  0.00    -0.044 A 
ATOM      7  C   UNL     1       6.364  -0.553   1.137  1.00  0.00     0.008 A 
ATOM      8  C   UNL     1       6.428   0.558  -0.976  1.00  0.00     0.054 A 
ATOM      9  C   UNL     1       7.149  -1.556   0.597  1.00  0.00     0.051 A 
ATOM     10  C   UNL     1       7.221  -0.458  -1.517  1.00  0.00     0.166 A 
ATOM     11  C   UNL     1       7.585  -1.523  -0.724  1.00  0.00     0.165 A 
ATOM     12  O   UNL     1       7.771  -0.657  -2.766  1.00  0.00    -0.454 OA
ATOM     13  O   UNL     1       8.357  -2.363  -1.511  1.00  0.00    -0.454 OA
ATOM     14  C   UNL     1       8.425  -1.898  -2.837  1.00  0.00     0.468 C 
ENDBRANCH   5   6
ENDBRANCH   1   5
TORSDOF 3
ENDMDL
MODEL 2
REMARK VINA RESULT:      -7.6      1.892      2.637
REMARK SMILES CC(=O)CCc1ccc2c(c1)OCO2
REMARK SMILES IDX 4 1 2 2 1 3 3 4 5 5 6 6 7 7 11 8 8 9 10 10 9 11 12 12 14 13
REMARK SMILES IDX 13 14
REMARK H PARENT
REMARK Flexibility Score: inf
ROOT
ATOM      1  C   UNL     1       5.547   1.915   1.274  1.00  0.00     0.080 C 
ENDROOT
BRANCH   1   2
ATOM      2  C   UNL     1       5.118   0.694   2.012  1.00  0.00     0.130 C 
ATOM      3  C   UNL     1       6.026  -0.471   2.188  1.00  0.00     0.087 C 
ATOM      4  O   UNL     1       4.000   0.615   2.495  1.00  0.00    -0.300 OA
ENDBRANCH   1   2
BRANCH   1   5
ATOM      5  C   UNL     1       5.417   1.728  -0.224  1.00  0.00     0.043 C 
BRANCH   5   6
ATOM      6  C   UNL     1       6.581   1.023  -0.790  1.00  0.00    -0.044 A 
ATOM      7  C   UNL     1       7.890   1.449  -0.537  1.00  0.00     0.008 A 
ATOM      8  C   UNL     1       6.388  -0.084  -1.586  1.00  0.00     0.054 A 
ATOM      9  C   UNL     1       8.944   0.747  -1.095  1.00  0.00     0.051 A 
ATOM     10  C   UNL     1       7.457  -0.790  -2.147  1.00  0.00     0.166 A 
ATOM     11  C   UNL     1       8.745  -0.370  -1.899  1.00  0.00     0.165 A 
ATOM     12  O   UNL     1       7.525  -1.902  -2.959  1.00  0.00    -0.454 OA
ATOM     13  O   UNL     1       9.586  -1.243  -2.571  1.00  0.00    -0.454 OA
ATOM     14  C   UNL     1       8.859  -2.283  -3.181  1.00  0.00     0.468 C 
ENDBRANCH   5   6
ENDBRANCH   1   5
TORSDOF 3
ENDMDL
MODEL 3
REMARK VINA RESULT:      -7.5      1.964      3.021
REMARK SMILES CC(=O)CCc1ccc2c(c1)OCO2
REMARK SMILES IDX 4 1 2 2 1 3 3 4 5 5 6 6 7 7 11 8 8 9 10 10 9 11 12 12 14 13
REMARK SMILES IDX 13 14
REMARK H PARENT
REMARK Flexibility Score: inf
ROOT
ATOM      1  C   UNL     1       5.791   1.398  -0.337  1.00  0.00     0.080 C 
ENDROOT
BRANCH   1   2
ATOM      2  C   UNL     1       5.136   1.323   0.999  1.00  0.00     0.130 C 
ATOM      3  C   UNL     1       5.413   0.209   1.944  1.00  0.00     0.087 C 
ATOM      4  O   UNL     1       4.346   2.182   1.358  1.00  0.00    -0.300 OA
ENDBRANCH   1   2
BRANCH   1   5
ATOM      5  C   UNL     1       7.279   1.123  -0.236  1.00  0.00     0.043 C 
BRANCH   5   6
ATOM      6  C   UNL     1       7.637  -0.172  -0.841  1.00  0.00    -0.044 A 
ATOM      7  C   UNL     1       7.703  -0.339  -2.229  1.00  0.00     0.008 A 
ATOM      8  C   UNL     1       7.919  -1.249  -0.031  1.00  0.00     0.054 A 
ATOM      9  C   UNL     1       8.046  -1.578  -2.740  1.00  0.00     0.051 A 
ATOM     10  C   UNL     1       8.266  -2.499  -0.553  1.00  0.00     0.166 A 
ATOM     11  C   UNL     1       8.330  -2.664  -1.919  1.00  0.00     0.165 A 
ATOM     12  O   UNL     1       8.586  -3.705   0.032  1.00  0.00    -0.454 OA
ATOM     13  O   UNL     1       8.692  -3.983  -2.146  1.00  0.00    -0.454 OA
ATOM     14  C   UNL     1       8.953  -4.654  -0.936  1.00  0.00     0.468 C 
ENDBRANCH   5   6
ENDBRANCH   1   5
TORSDOF 3
ENDMDL
