@<TRIPOS>MOLECULE
/home/cewinharhar/GITHUB/reincatalyze/data/processed/docking_pred/2023-May-22-1531_sub9_nm5_bs15_s42_ex16_mel10_mts1000_k50_ec02_g099_lra9e-4_lrc1e-3/074f71e156faecc69724e62cc987f5104d3c940c_ligand_9.pdbqt
 14 15 0 0 0
SMALL
GASTEIGER

@<TRIPOS>ATOM
      1  C          5.5470    1.9150    1.2740 C.3     1  UNL1        0.0800
      2  C          5.1180    0.6940    2.0120 C.2     1  UNL1        0.1300
      3  C          6.0260   -0.4710    2.1880 C.3     1  UNL1        0.0870
      4  O          4.0000    0.6150    2.4950 O.2     1  UNL1       -0.3000
      5  C          5.4170    1.7280   -0.2240 C.3     1  UNL1        0.0430
      6  C          6.5810    1.0230   -0.7900 C.2     1  UNL1       -0.0440
      7  C          7.8900    1.4490   -0.5370 C.2     1  UNL1        0.0080
      8  C          6.3880   -0.0840   -1.5860 C.2     1  UNL1        0.0540
      9  C          8.9440    0.7470   -1.0950 C.2     1  UNL1        0.0510
     10  C          7.4570   -0.7900   -2.1470 C.2     1  UNL1        0.1660
     11  C          8.7450   -0.3700   -1.8990 C.2     1  UNL1        0.1650
     12  O          7.5250   -1.9020   -2.9590 O.2     1  UNL1       -0.4540
     13  O          9.5860   -1.2430   -2.5710 O.2     1  UNL1       -0.4540
     14  C          8.8590   -2.2830   -3.1810 C.3     1  UNL1        0.4680
@<TRIPOS>BOND
     1    14    12    1
     2    14    13    1
     3    12    10    1
     4    13    11    1
     5    10    11    2
     6    10     8    1
     7    11     9    1
     8     8     6    2
     9     9     7    2
    10     6     7    1
    11     6     5    1
    12     5     1    1
    13     1     2    1
    14     2     3    1
    15     2     4    2
