@<TRIPOS>MOLECULE
/home/cewinharhar/GITHUB/reincatalyze/data/processed/docking_pred/2023-May-22-1531_sub9_nm5_bs15_s42_ex16_mel10_mts1000_k50_ec02_g099_lra9e-4_lrc1e-3/074f71e156faecc69724e62cc987f5104d3c940c_ligand_9.pdbqt
 14 15 0 0 0
SMALL
GASTEIGER

@<TRIPOS>ATOM
      1  C          5.7910    1.3980   -0.3370 C.3     1  UNL1        0.0800
      2  C          5.1360    1.3230    0.9990 C.2     1  UNL1        0.1300
      3  C          5.4130    0.2090    1.9440 C.3     1  UNL1        0.0870
      4  O          4.3460    2.1820    1.3580 O.2     1  UNL1       -0.3000
      5  C          7.2790    1.1230   -0.2360 C.3     1  UNL1        0.0430
      6  C          7.6370   -0.1720   -0.8410 C.2     1  UNL1       -0.0440
      7  C          7.7030   -0.3390   -2.2290 C.2     1  UNL1        0.0080
      8  C          7.9190   -1.2490   -0.0310 C.2     1  UNL1        0.0540
      9  C          8.0460   -1.5780   -2.7400 C.2     1  UNL1        0.0510
     10  C          8.2660   -2.4990   -0.5530 C.2     1  UNL1        0.1660
     11  C          8.3300   -2.6640   -1.9190 C.2     1  UNL1        0.1650
     12  O          8.5860   -3.7050    0.0320 O.2     1  UNL1       -0.4540
     13  O          8.6920   -3.9830   -2.1460 O.2     1  UNL1       -0.4540
     14  C          8.9530   -4.6540   -0.9360 C.3     1  UNL1        0.4680
@<TRIPOS>BOND
     1     9     7    1
     2     9    11    2
     3     7     6    2
     4    13    11    1
     5    13    14    1
     6    11    10    1
     7    14    12    1
     8     6     5    1
     9     6     8    1
    10    10     8    2
    11    10    12    1
    12     1     5    1
    13     1     2    1
    14     2     4    2
    15     2     3    1
