@<TRIPOS>MOLECULE
/home/cewinharhar/GITHUB/reincatalyze/data/processed/docking_pred/2023-May-22-1531_sub9_nm5_bs15_s42_ex16_mel10_mts1000_k50_ec02_g099_lra9e-4_lrc1e-3/08a74a7e320cd1ecb560e86b752820c061dfae11_ligand_9.pdbqt
 14 15 0 0 0
SMALL
GASTEIGER

@<TRIPOS>ATOM
      1  C          5.7270    1.2890   -0.3110 C.3     1  UNL1        0.0800
      2  C          5.1750    1.2850    1.0730 C.2     1  UNL1        0.1300
      3  C          5.3290    0.1100    1.9710 C.3     1  UNL1        0.0870
      4  O          4.5760    2.2540    1.5120 O.2     1  UNL1       -0.3000
      5  C          7.2290    1.0900   -0.3050 C.3     1  UNL1        0.0430
      6  C          7.6120   -0.2030   -0.9010 C.2     1  UNL1       -0.0440
      7  C          7.7020   -0.3730   -2.2870 C.2     1  UNL1        0.0080
      8  C          7.8910   -1.2740   -0.0830 C.2     1  UNL1        0.0540
      9  C          8.0660   -1.6090   -2.7890 C.2     1  UNL1        0.0510
     10  C          8.2600   -2.5220   -0.5960 C.2     1  UNL1        0.1660
     11  C          8.3480   -2.6900   -1.9600 C.2     1  UNL1        0.1650
     12  O          8.5820   -3.7230   -0.0020 O.2     1  UNL1       -0.4540
     13  O          8.7270   -4.0060   -2.1770 O.2     1  UNL1       -0.4540
     14  C          8.9750   -4.6710   -0.9610 C.3     1  UNL1        0.4680
@<TRIPOS>BOND
     1     9     7    1
     2     9    11    2
     3     7     6    2
     4    13    11    1
     5    13    14    1
     6    11    10    1
     7    14    12    1
     8     6     5    1
     9     6     8    1
    10    10     8    2
    11    10    12    1
    12     1     5    1
    13     1     2    1
    14     2     4    2
    15     2     3    1
