MODEL 1
REMARK VINA RESULT:      -7.6      0.000      0.000
REMARK SMILES CC(=O)CCc1ccc2c(c1)OCO2
REMARK SMILES IDX 4 1 2 2 1 3 3 4 5 5 6 6 7 7 11 8 8 9 10 10 9 11 12 12 14 13
REMARK SMILES IDX 13 14
REMARK H PARENT
REMARK Flexibility Score: inf
ROOT
ATOM      1  C   UNL     1       5.509   1.901   1.278  1.00  0.00     0.080 C 
ENDROOT
BRANCH   1   2
ATOM      2  C   UNL     1       5.065   0.682   2.010  1.00  0.00     0.130 C 
ATOM      3  C   UNL     1       5.946  -0.508   2.153  1.00  0.00     0.087 C 
ATOM      4  O   UNL     1       3.956   0.626   2.517  1.00  0.00    -0.300 OA
ENDBRANCH   1   2
BRANCH   1   5
ATOM      5  C   UNL     1       5.384   1.719  -0.221  1.00  0.00     0.043 C 
BRANCH   5   6
ATOM      6  C   UNL     1       6.554   1.024  -0.787  1.00  0.00    -0.044 A 
ATOM      7  C   UNL     1       7.859   1.469  -0.544  1.00  0.00     0.008 A 
ATOM      8  C   UNL     1       6.371  -0.091  -1.573  1.00  0.00     0.054 A 
ATOM      9  C   UNL     1       8.918   0.777  -1.101  1.00  0.00     0.051 A 
ATOM     10  C   UNL     1       7.446  -0.788  -2.133  1.00  0.00     0.166 A 
ATOM     11  C   UNL     1       8.730  -0.350  -1.896  1.00  0.00     0.165 A 
ATOM     12  O   UNL     1       7.525  -1.905  -2.937  1.00  0.00    -0.454 OA
ATOM     13  O   UNL     1       9.579  -1.218  -2.565  1.00  0.00    -0.454 OA
ATOM     14  C   UNL     1       8.862  -2.271  -3.163  1.00  0.00     0.468 C 
ENDBRANCH   5   6
ENDBRANCH   1   5
TORSDOF 3
ENDMDL
MODEL 2
REMARK VINA RESULT:      -7.5      1.925      2.407
REMARK SMILES CC(=O)CCc1ccc2c(c1)OCO2
REMARK SMILES IDX 4 1 2 2 1 3 3 4 5 5 6 6 7 7 11 8 8 9 10 10 9 11 12 12 14 13
REMARK SMILES IDX 13 14
REMARK H PARENT
REMARK Flexibility Score: inf
ROOT
ATOM      1  C   UNL     1       5.727   1.289  -0.311  1.00  0.00     0.080 C 
ENDROOT
BRANCH   1   2
ATOM      2  C   UNL     1       5.175   1.285   1.073  1.00  0.00     0.130 C 
ATOM      3  C   UNL     1       5.329   0.110   1.971  1.00  0.00     0.087 C 
ATOM      4  O   UNL     1       4.576   2.254   1.512  1.00  0.00    -0.300 OA
ENDBRANCH   1   2
BRANCH   1   5
ATOM      5  C   UNL     1       7.229   1.090  -0.305  1.00  0.00     0.043 C 
BRANCH   5   6
ATOM      6  C   UNL     1       7.612  -0.203  -0.901  1.00  0.00    -0.044 A 
ATOM      7  C   UNL     1       7.702  -0.373  -2.287  1.00  0.00     0.008 A 
ATOM      8  C   UNL     1       7.891  -1.274  -0.083  1.00  0.00     0.054 A 
ATOM      9  C   UNL     1       8.066  -1.609  -2.789  1.00  0.00     0.051 A 
ATOM     10  C   UNL     1       8.260  -2.522  -0.596  1.00  0.00     0.166 A 
ATOM     11  C   UNL     1       8.348  -2.690  -1.960  1.00  0.00     0.165 A 
ATOM     12  O   UNL     1       8.582  -3.723  -0.002  1.00  0.00    -0.454 OA
ATOM     13  O   UNL     1       8.727  -4.006  -2.177  1.00  0.00    -0.454 OA
ATOM     14  C   UNL     1       8.975  -4.671  -0.961  1.00  0.00     0.468 C 
ENDBRANCH   5   6
ENDBRANCH   1   5
TORSDOF 3
ENDMDL
MODEL 3
REMARK VINA RESULT:      -7.1      2.048      2.637
REMARK SMILES CC(=O)CCc1ccc2c(c1)OCO2
REMARK SMILES IDX 4 1 2 2 1 3 3 4 5 5 6 6 7 7 11 8 8 9 10 10 9 11 12 12 14 13
REMARK SMILES IDX 13 14
REMARK H PARENT
REMARK Flexibility Score: inf
ROOT
ATOM      1  C   UNL     1       5.741   2.593   1.316  1.00  0.00     0.080 C 
ENDROOT
BRANCH   1   2
ATOM      2  C   UNL     1       6.399   3.914   1.115  1.00  0.00     0.130 C 
ATOM      3  C   UNL     1       6.867   4.736   2.263  1.00  0.00     0.087 C 
ATOM      4  O   UNL     1       6.572   4.364  -0.006  1.00  0.00    -0.300 OA
ENDBRANCH   1   2
BRANCH   1   5
ATOM      5  C   UNL     1       5.353   1.964  -0.008  1.00  0.00     0.043 C 
BRANCH   5   6
ATOM      6  C   UNL     1       6.118   0.733  -0.273  1.00  0.00    -0.044 A 
ATOM      7  C   UNL     1       6.330  -0.227   0.723  1.00  0.00     0.008 A 
ATOM      8  C   UNL     1       6.640   0.510  -1.527  1.00  0.00     0.054 A 
ATOM      9  C   UNL     1       7.055  -1.364   0.416  1.00  0.00     0.051 A 
ATOM     10  C   UNL     1       7.371  -0.641  -1.833  1.00  0.00     0.166 A 
ATOM     11  C   UNL     1       7.581  -1.586  -0.853  1.00  0.00     0.165 A 
ATOM     12  O   UNL     1       7.984  -1.087  -2.985  1.00  0.00    -0.454 OA
ATOM     13  O   UNL     1       8.325  -2.603  -1.430  1.00  0.00    -0.454 OA
ATOM     14  C   UNL     1       8.525  -2.370  -2.804  1.00  0.00     0.468 C 
ENDBRANCH   5   6
ENDBRANCH   1   5
TORSDOF 3
ENDMDL
