@<TRIPOS>MOLECULE
/home/cewinharhar/GITHUB/reincatalyze/data/processed/docking_pred/2023-May-22-1531_sub9_nm5_bs15_s42_ex16_mel10_mts1000_k50_ec02_g099_lra9e-4_lrc1e-3/08a74a7e320cd1ecb560e86b752820c061dfae11_ligand_9.pdbqt
 14 15 0 0 0
SMALL
GASTEIGER

@<TRIPOS>ATOM
      1  C          5.7410    2.5930    1.3160 C.3     1  UNL1        0.0800
      2  C          6.3990    3.9140    1.1150 C.2     1  UNL1        0.1300
      3  C          6.8670    4.7360    2.2630 C.3     1  UNL1        0.0870
      4  O          6.5720    4.3640   -0.0060 O.2     1  UNL1       -0.3000
      5  C          5.3530    1.9640   -0.0080 C.3     1  UNL1        0.0430
      6  C          6.1180    0.7330   -0.2730 C.2     1  UNL1       -0.0440
      7  C          6.3300   -0.2270    0.7230 C.2     1  UNL1        0.0080
      8  C          6.6400    0.5100   -1.5270 C.2     1  UNL1        0.0540
      9  C          7.0550   -1.3640    0.4160 C.2     1  UNL1        0.0510
     10  C          7.3710   -0.6410   -1.8330 C.2     1  UNL1        0.1660
     11  C          7.5810   -1.5860   -0.8530 C.2     1  UNL1        0.1650
     12  O          7.9840   -1.0870   -2.9850 O.2     1  UNL1       -0.4540
     13  O          8.3250   -2.6030   -1.4300 O.2     1  UNL1       -0.4540
     14  C          8.5250   -2.3700   -2.8040 C.3     1  UNL1        0.4680
@<TRIPOS>BOND
     1    12    14    1
     2    12    10    1
     3    14    13    1
     4    10     8    1
     5    10    11    2
     6     8     6    2
     7    13    11    1
     8    11     9    1
     9     6     5    1
    10     6     7    1
    11     5     1    1
    12     4     2    2
    13     9     7    2
    14     2     1    1
    15     2     3    1
