@<TRIPOS>MOLECULE
/home/cewinharhar/GITHUB/reincatalyze/data/processed/docking_pred/2023-May-22-1531_sub9_nm5_bs15_s42_ex16_mel10_mts1000_k50_ec02_g099_lra9e-4_lrc1e-3/08e84468c81f1cd513554bb3b422d21af10d92b8_ligand_9.pdbqt
 14 15 0 0 0
SMALL
GASTEIGER

@<TRIPOS>ATOM
      1  C          5.4320    2.9200    0.2570 C.3     1  UNL1        0.0800
      2  C          6.3600    3.7760    1.0460 C.2     1  UNL1        0.1300
      3  C          7.2480    4.7750    0.3930 C.3     1  UNL1        0.0870
      4  O          6.4200    3.6810    2.2610 O.2     1  UNL1       -0.3000
      5  C          5.1740    1.5990    0.9530 C.3     1  UNL1        0.0430
      6  C          6.0030    0.5160    0.3950 C.2     1  UNL1       -0.0440
      7  C          6.3700   -0.5960    1.1620 C.2     1  UNL1        0.0080
      8  C          6.4300    0.5880   -0.9110 C.2     1  UNL1        0.0540
      9  C          7.1490   -1.5820    0.5850 C.2     1  UNL1        0.0510
     10  C          7.2170   -0.4120   -1.4910 C.2     1  UNL1        0.1660
     11  C          7.5800   -1.5050   -0.7360 C.2     1  UNL1        0.1650
     12  O          7.7610   -0.5690   -2.7480 O.2     1  UNL1       -0.4540
     13  O          8.3460   -2.3210   -1.5550 O.2     1  UNL1       -0.4540
     14  C          8.4100   -1.8100   -2.8650 C.3     1  UNL1        0.4680
@<TRIPOS>BOND
     1    14    12    1
     2    14    13    1
     3    12    10    1
     4    13    11    1
     5    10     8    1
     6    10    11    2
     7     8     6    2
     8    11     9    1
     9     1     5    1
    10     1     2    1
    11     3     2    1
    12     6     5    1
    13     6     7    1
    14     9     7    2
    15     2     4    2
