@<TRIPOS>MOLECULE
/home/cewinharhar/GITHUB/reincatalyze/data/processed/docking_pred/2023-May-22-1531_sub9_nm5_bs15_s42_ex16_mel10_mts1000_k50_ec02_g099_lra9e-4_lrc1e-3/08e84468c81f1cd513554bb3b422d21af10d92b8_ligand_9.pdbqt
 14 15 0 0 0
SMALL
GASTEIGER

@<TRIPOS>ATOM
      1  C          5.4150    2.9140    0.1690 C.3     1  UNL1        0.0800
      2  C          6.3820    3.6660    1.0170 C.2     1  UNL1        0.1300
      3  C          7.2060    4.7750    0.4650 C.3     1  UNL1        0.0870
      4  O          6.5270    3.3920    2.1970 O.2     1  UNL1       -0.3000
      5  C          5.0990    1.5570    0.7670 C.3     1  UNL1        0.0430
      6  C          5.9670    0.5010    0.2160 C.2     1  UNL1       -0.0440
      7  C          6.3780    0.5140   -1.1220 C.2     1  UNL1        0.0080
      8  C          6.3920   -0.5250    1.0290 C.2     1  UNL1        0.0540
      9  C          7.1940   -0.5030   -1.5830 C.2     1  UNL1        0.0510
     10  C          7.2170   -1.5510    0.5580 C.2     1  UNL1        0.1660
     11  C          7.6210   -1.5400   -0.7590 C.2     1  UNL1        0.1650
     12  O          7.7660   -2.6650    1.1560 O.2     1  UNL1       -0.4540
     13  O          8.4190   -2.6590   -0.9430 O.2     1  UNL1       -0.4540
     14  C          8.6110   -3.3510    0.2680 C.3     1  UNL1        0.4680
@<TRIPOS>BOND
     1     9     7    1
     2     9    11    2
     3     7     6    2
     4    13    11    1
     5    13    14    1
     6    11    10    1
     7     1     5    1
     8     1     2    1
     9     6     5    1
    10     6     8    1
    11    14    12    1
    12     3     2    1
    13    10     8    2
    14    10    12    1
    15     2     4    2
