@<TRIPOS>MOLECULE
/home/cewinharhar/GITHUB/reincatalyze/data/processed/docking_pred/2023-May-22-1531_sub9_nm5_bs15_s42_ex16_mel10_mts1000_k50_ec02_g099_lra9e-4_lrc1e-3/08e84468c81f1cd513554bb3b422d21af10d92b8_ligand_9.pdbqt
 14 15 0 0 0
SMALL
GASTEIGER

@<TRIPOS>ATOM
      1  C          5.5180    1.9200    1.2620 C.3     1  UNL1        0.0800
      2  C          5.0820    0.7030    2.0020 C.2     1  UNL1        0.1300
      3  C          5.9810   -0.4700    2.1740 C.3     1  UNL1        0.0870
      4  O          3.9670    0.6330    2.4930 O.2     1  UNL1       -0.3000
      5  C          5.3930    1.7260   -0.2360 C.3     1  UNL1        0.0430
      6  C          6.5620    1.0240   -0.7960 C.2     1  UNL1       -0.0440
      7  C          7.8680    1.4580   -0.5420 C.2     1  UNL1        0.0080
      8  C          6.3760   -0.0880   -1.5850 C.2     1  UNL1        0.0540
      9  C          8.9260    0.7580   -1.0940 C.2     1  UNL1        0.0510
     10  C          7.4490   -0.7920   -2.1400 C.2     1  UNL1        0.1660
     11  C          8.7340   -0.3660   -1.8920 C.2     1  UNL1        0.1650
     12  O          7.5240   -1.9090   -2.9450 O.2     1  UNL1       -0.4540
     13  O          9.5810   -1.2380   -2.5570 O.2     1  UNL1       -0.4540
     14  C          8.8600   -2.2840   -3.1620 C.3     1  UNL1        0.4680
@<TRIPOS>BOND
     1    14    12    1
     2    14    13    1
     3    12    10    1
     4    13    11    1
     5    10    11    2
     6    10     8    1
     7    11     9    1
     8     8     6    2
     9     9     7    2
    10     6     7    1
    11     6     5    1
    12     5     1    1
    13     1     2    1
    14     2     3    1
    15     2     4    2
