MODEL 1
REMARK VINA RESULT:      -7.8      0.000      0.000
REMARK SMILES CC(=O)CCc1ccc2c(c1)OCO2
REMARK SMILES IDX 4 1 2 2 1 3 3 4 5 5 6 6 7 7 11 8 8 9 10 10 9 11 12 12 14 13
REMARK SMILES IDX 13 14
REMARK H PARENT
REMARK Flexibility Score: inf
ROOT
ATOM      1  C   UNL     1       5.432   2.920   0.257  1.00  0.00     0.080 C 
ENDROOT
BRANCH   1   2
ATOM      2  C   UNL     1       6.360   3.776   1.046  1.00  0.00     0.130 C 
ATOM      3  C   UNL     1       7.248   4.775   0.393  1.00  0.00     0.087 C 
ATOM      4  O   UNL     1       6.420   3.681   2.261  1.00  0.00    -0.300 OA
ENDBRANCH   1   2
BRANCH   1   5
ATOM      5  C   UNL     1       5.174   1.599   0.953  1.00  0.00     0.043 C 
BRANCH   5   6
ATOM      6  C   UNL     1       6.003   0.516   0.395  1.00  0.00    -0.044 A 
ATOM      7  C   UNL     1       6.370  -0.596   1.162  1.00  0.00     0.008 A 
ATOM      8  C   UNL     1       6.430   0.588  -0.911  1.00  0.00     0.054 A 
ATOM      9  C   UNL     1       7.149  -1.582   0.585  1.00  0.00     0.051 A 
ATOM     10  C   UNL     1       7.217  -0.412  -1.491  1.00  0.00     0.166 A 
ATOM     11  C   UNL     1       7.580  -1.505  -0.736  1.00  0.00     0.165 A 
ATOM     12  O   UNL     1       7.761  -0.569  -2.748  1.00  0.00    -0.454 OA
ATOM     13  O   UNL     1       8.346  -2.321  -1.555  1.00  0.00    -0.454 OA
ATOM     14  C   UNL     1       8.410  -1.810  -2.865  1.00  0.00     0.468 C 
ENDBRANCH   5   6
ENDBRANCH   1   5
TORSDOF 3
ENDMDL
MODEL 2
REMARK VINA RESULT:      -7.8      0.999      1.989
REMARK SMILES CC(=O)CCc1ccc2c(c1)OCO2
REMARK SMILES IDX 4 1 2 2 1 3 3 4 5 5 6 6 7 7 11 8 8 9 10 10 9 11 12 12 14 13
REMARK SMILES IDX 13 14
REMARK H PARENT
REMARK Flexibility Score: inf
ROOT
ATOM      1  C   UNL     1       5.415   2.914   0.169  1.00  0.00     0.080 C 
ENDROOT
BRANCH   1   2
ATOM      2  C   UNL     1       6.382   3.666   1.017  1.00  0.00     0.130 C 
ATOM      3  C   UNL     1       7.206   4.775   0.465  1.00  0.00     0.087 C 
ATOM      4  O   UNL     1       6.527   3.392   2.197  1.00  0.00    -0.300 OA
ENDBRANCH   1   2
BRANCH   1   5
ATOM      5  C   UNL     1       5.099   1.557   0.767  1.00  0.00     0.043 C 
BRANCH   5   6
ATOM      6  C   UNL     1       5.967   0.501   0.216  1.00  0.00    -0.044 A 
ATOM      7  C   UNL     1       6.378   0.514  -1.122  1.00  0.00     0.008 A 
ATOM      8  C   UNL     1       6.392  -0.525   1.029  1.00  0.00     0.054 A 
ATOM      9  C   UNL     1       7.194  -0.503  -1.583  1.00  0.00     0.051 A 
ATOM     10  C   UNL     1       7.217  -1.551   0.558  1.00  0.00     0.166 A 
ATOM     11  C   UNL     1       7.621  -1.540  -0.759  1.00  0.00     0.165 A 
ATOM     12  O   UNL     1       7.766  -2.665   1.156  1.00  0.00    -0.454 OA
ATOM     13  O   UNL     1       8.419  -2.659  -0.943  1.00  0.00    -0.454 OA
ATOM     14  C   UNL     1       8.611  -3.351   0.268  1.00  0.00     0.468 C 
ENDBRANCH   5   6
ENDBRANCH   1   5
TORSDOF 3
ENDMDL
MODEL 3
REMARK VINA RESULT:      -7.6      1.895      2.640
REMARK SMILES CC(=O)CCc1ccc2c(c1)OCO2
REMARK SMILES IDX 4 1 2 2 1 3 3 4 5 5 6 6 7 7 11 8 8 9 10 10 9 11 12 12 14 13
REMARK SMILES IDX 13 14
REMARK H PARENT
REMARK Flexibility Score: inf
ROOT
ATOM      1  C   UNL     1       5.518   1.920   1.262  1.00  0.00     0.080 C 
ENDROOT
BRANCH   1   2
ATOM      2  C   UNL     1       5.082   0.703   2.002  1.00  0.00     0.130 C 
ATOM      3  C   UNL     1       5.981  -0.470   2.174  1.00  0.00     0.087 C 
ATOM      4  O   UNL     1       3.967   0.633   2.493  1.00  0.00    -0.300 OA
ENDBRANCH   1   2
BRANCH   1   5
ATOM      5  C   UNL     1       5.393   1.726  -0.236  1.00  0.00     0.043 C 
BRANCH   5   6
ATOM      6  C   UNL     1       6.562   1.024  -0.796  1.00  0.00    -0.044 A 
ATOM      7  C   UNL     1       7.868   1.458  -0.542  1.00  0.00     0.008 A 
ATOM      8  C   UNL     1       6.376  -0.088  -1.585  1.00  0.00     0.054 A 
ATOM      9  C   UNL     1       8.926   0.758  -1.094  1.00  0.00     0.051 A 
ATOM     10  C   UNL     1       7.449  -0.792  -2.140  1.00  0.00     0.166 A 
ATOM     11  C   UNL     1       8.734  -0.366  -1.892  1.00  0.00     0.165 A 
ATOM     12  O   UNL     1       7.524  -1.909  -2.945  1.00  0.00    -0.454 OA
ATOM     13  O   UNL     1       9.581  -1.238  -2.557  1.00  0.00    -0.454 OA
ATOM     14  C   UNL     1       8.860  -2.284  -3.162  1.00  0.00     0.468 C 
ENDBRANCH   5   6
ENDBRANCH   1   5
TORSDOF 3
ENDMDL
