@<TRIPOS>MOLECULE
/home/cewinharhar/GITHUB/reincatalyze/data/processed/docking_pred/2023-May-22-1531_sub9_nm5_bs15_s42_ex16_mel10_mts1000_k50_ec02_g099_lra9e-4_lrc1e-3/09c0e00cbaa22f287e1ef7d21129eabb08ea3244_ligand_9.pdbqt
 14 15 0 0 0
SMALL
GASTEIGER

@<TRIPOS>ATOM
      1  C          5.8260    1.6050    0.8550 C.3     1  UNL1        0.0800
      2  C          5.3830    0.6000    1.8610 C.2     1  UNL1        0.1300
      3  C          6.2600   -0.5290    2.2760 C.3     1  UNL1        0.0870
      4  O          4.2800    0.6740    2.3780 O.2     1  UNL1       -0.3000
      5  C          5.7480    1.0460   -0.5520 C.3     1  UNL1        0.0430
      6  C          7.0080    0.3940   -0.9510 C.2     1  UNL1       -0.0440
      7  C          8.2500    1.0010   -0.7290 C.2     1  UNL1        0.0080
      8  C          6.9750   -0.8420   -1.5550 C.2     1  UNL1        0.0540
      9  C          9.3990    0.3420   -1.1250 C.2     1  UNL1        0.0510
     10  C          8.1400   -1.5050   -1.9530 C.2     1  UNL1        0.1660
     11  C          9.3620   -0.9080   -1.7360 C.2     1  UNL1        0.1650
     12  O          8.3680   -2.7200   -2.5640 O.2     1  UNL1       -0.4540
     13  O         10.3250   -1.7780   -2.2220 O.2     1  UNL1       -0.4540
     14  C          9.7440   -2.9780   -2.6730 C.3     1  UNL1        0.4680
@<TRIPOS>BOND
     1    14    12    1
     2    14    13    1
     3    12    10    1
     4    13    11    1
     5    10    11    2
     6    10     8    1
     7    11     9    1
     8     8     6    2
     9     9     7    2
    10     6     7    1
    11     6     5    1
    12     5     1    1
    13     1     2    1
    14     2     3    1
    15     2     4    2
