@<TRIPOS>MOLECULE
/home/cewinharhar/GITHUB/reincatalyze/data/processed/docking_pred/2023-May-22-1531_sub9_nm5_bs15_s42_ex16_mel10_mts1000_k50_ec02_g099_lra9e-4_lrc1e-3/09c0e00cbaa22f287e1ef7d21129eabb08ea3244_ligand_9.pdbqt
 14 15 0 0 0
SMALL
GASTEIGER

@<TRIPOS>ATOM
      1  C          5.6420    1.3200   -0.4900 C.3     1  UNL1        0.0800
      2  C          5.3560    2.3650    0.5320 C.2     1  UNL1        0.1300
      3  C          6.1750    3.6020    0.6340 C.3     1  UNL1        0.0870
      4  O          4.4350    2.2330    1.3220 O.2     1  UNL1       -0.3000
      5  C          6.2530    0.0850    0.1400 C.3     1  UNL1        0.0430
      6  C          7.7010   -0.0020   -0.1200 C.2     1  UNL1       -0.0440
      7  C          8.3480    0.9000   -0.9730 C.2     1  UNL1        0.0080
      8  C          8.4450   -0.9890    0.4860 C.2     1  UNL1        0.0540
      9  C          9.7090    0.7700   -1.1790 C.2     1  UNL1        0.0510
     10  C          9.8210   -1.1150    0.2750 C.2     1  UNL1        0.1660
     11  C         10.4590   -0.2290   -0.5650 C.2     1  UNL1        0.1650
     12  O         10.7680   -1.9970    0.7520 O.2     1  UNL1       -0.4540
     13  O         11.7970   -0.5880   -0.5850 O.2     1  UNL1       -0.4540
     14  C         12.0530   -1.6470    0.3060 C.3     1  UNL1        0.4680
@<TRIPOS>BOND
     1     9     7    1
     2     9    11    2
     3     7     6    2
     4    13    11    1
     5    13    14    1
     6    11    10    1
     7     1     5    1
     8     1     2    1
     9     6     5    1
    10     6     8    1
    11    10     8    2
    12    10    12    1
    13    14    12    1
    14     2     3    1
    15     2     4    2
