MODEL 1
REMARK VINA RESULT:      -8.1      0.000      0.000
REMARK SMILES CC(=O)CCc1ccc2c(c1)OCO2
REMARK SMILES IDX 4 1 2 2 1 3 3 4 5 5 6 6 7 7 11 8 8 9 10 10 9 11 12 12 14 13
REMARK SMILES IDX 13 14
REMARK H PARENT
REMARK Flexibility Score: inf
ROOT
ATOM      1  C   UNL     1       5.826   1.605   0.855  1.00  0.00     0.080 C 
ENDROOT
BRANCH   1   2
ATOM      2  C   UNL     1       5.383   0.600   1.861  1.00  0.00     0.130 C 
ATOM      3  C   UNL     1       6.260  -0.529   2.276  1.00  0.00     0.087 C 
ATOM      4  O   UNL     1       4.280   0.674   2.378  1.00  0.00    -0.300 OA
ENDBRANCH   1   2
BRANCH   1   5
ATOM      5  C   UNL     1       5.748   1.046  -0.552  1.00  0.00     0.043 C 
BRANCH   5   6
ATOM      6  C   UNL     1       7.008   0.394  -0.951  1.00  0.00    -0.044 A 
ATOM      7  C   UNL     1       8.250   1.001  -0.729  1.00  0.00     0.008 A 
ATOM      8  C   UNL     1       6.975  -0.842  -1.555  1.00  0.00     0.054 A 
ATOM      9  C   UNL     1       9.399   0.342  -1.125  1.00  0.00     0.051 A 
ATOM     10  C   UNL     1       8.140  -1.505  -1.953  1.00  0.00     0.166 A 
ATOM     11  C   UNL     1       9.362  -0.908  -1.736  1.00  0.00     0.165 A 
ATOM     12  O   UNL     1       8.368  -2.720  -2.564  1.00  0.00    -0.454 OA
ATOM     13  O   UNL     1      10.325  -1.778  -2.222  1.00  0.00    -0.454 OA
ATOM     14  C   UNL     1       9.744  -2.978  -2.673  1.00  0.00     0.468 C 
ENDBRANCH   5   6
ENDBRANCH   1   5
TORSDOF 3
ENDMDL
MODEL 2
REMARK VINA RESULT:      -7.7      2.122      2.540
REMARK SMILES CC(=O)CCc1ccc2c(c1)OCO2
REMARK SMILES IDX 4 1 2 2 1 3 3 4 5 5 6 6 7 7 11 8 8 9 10 10 9 11 12 12 14 13
REMARK SMILES IDX 13 14
REMARK H PARENT
REMARK Flexibility Score: inf
ROOT
ATOM      1  C   UNL     1       5.642   1.320  -0.490  1.00  0.00     0.080 C 
ENDROOT
BRANCH   1   2
ATOM      2  C   UNL     1       5.356   2.365   0.532  1.00  0.00     0.130 C 
ATOM      3  C   UNL     1       6.175   3.602   0.634  1.00  0.00     0.087 C 
ATOM      4  O   UNL     1       4.435   2.233   1.322  1.00  0.00    -0.300 OA
ENDBRANCH   1   2
BRANCH   1   5
ATOM      5  C   UNL     1       6.253   0.085   0.140  1.00  0.00     0.043 C 
BRANCH   5   6
ATOM      6  C   UNL     1       7.701  -0.002  -0.120  1.00  0.00    -0.044 A 
ATOM      7  C   UNL     1       8.348   0.900  -0.973  1.00  0.00     0.008 A 
ATOM      8  C   UNL     1       8.445  -0.989   0.486  1.00  0.00     0.054 A 
ATOM      9  C   UNL     1       9.709   0.770  -1.179  1.00  0.00     0.051 A 
ATOM     10  C   UNL     1       9.821  -1.115   0.275  1.00  0.00     0.166 A 
ATOM     11  C   UNL     1      10.459  -0.229  -0.565  1.00  0.00     0.165 A 
ATOM     12  O   UNL     1      10.768  -1.997   0.752  1.00  0.00    -0.454 OA
ATOM     13  O   UNL     1      11.797  -0.588  -0.585  1.00  0.00    -0.454 OA
ATOM     14  C   UNL     1      12.053  -1.647   0.306  1.00  0.00     0.468 C 
ENDBRANCH   5   6
ENDBRANCH   1   5
TORSDOF 3
ENDMDL
MODEL 3
REMARK VINA RESULT:      -7.5      1.871      2.817
REMARK SMILES CC(=O)CCc1ccc2c(c1)OCO2
REMARK SMILES IDX 4 1 2 2 1 3 3 4 5 5 6 6 7 7 11 8 8 9 10 10 9 11 12 12 14 13
REMARK SMILES IDX 13 14
REMARK H PARENT
REMARK Flexibility Score: inf
ROOT
ATOM      1  C   UNL     1       5.457   2.942   0.095  1.00  0.00     0.080 C 
ENDROOT
BRANCH   1   2
ATOM      2  C   UNL     1       6.317   3.810   0.947  1.00  0.00     0.130 C 
ATOM      3  C   UNL     1       7.282   4.774   0.355  1.00  0.00     0.087 C 
ATOM      4  O   UNL     1       6.253   3.753   2.164  1.00  0.00    -0.300 OA
ENDBRANCH   1   2
BRANCH   1   5
ATOM      5  C   UNL     1       5.082   1.662   0.815  1.00  0.00     0.043 C 
BRANCH   5   6
ATOM      6  C   UNL     1       5.924   0.530   0.391  1.00  0.00    -0.044 A 
ATOM      7  C   UNL     1       6.303  -0.478   1.286  1.00  0.00     0.008 A 
ATOM      8  C   UNL     1       6.353   0.449  -0.915  1.00  0.00     0.054 A 
ATOM      9  C   UNL     1       7.094  -1.517   0.830  1.00  0.00     0.051 A 
ATOM     10  C   UNL     1       7.152  -0.603  -1.370  1.00  0.00     0.166 A 
ATOM     11  C   UNL     1       7.526  -1.594  -0.490  1.00  0.00     0.165 A 
ATOM     12  O   UNL     1       7.700  -0.904  -2.599  1.00  0.00    -0.454 OA
ATOM     13  O   UNL     1       8.303  -2.493  -1.205  1.00  0.00    -0.454 OA
ATOM     14  C   UNL     1       8.363  -2.142  -2.567  1.00  0.00     0.468 C 
ENDBRANCH   5   6
ENDBRANCH   1   5
TORSDOF 3
ENDMDL
