@<TRIPOS>MOLECULE
/home/cewinharhar/GITHUB/reincatalyze/data/processed/docking_pred/2023-May-22-1531_sub9_nm5_bs15_s42_ex16_mel10_mts1000_k50_ec02_g099_lra9e-4_lrc1e-3/09c0e00cbaa22f287e1ef7d21129eabb08ea3244_ligand_9.pdbqt
 14 15 0 0 0
SMALL
GASTEIGER

@<TRIPOS>ATOM
      1  C          5.4570    2.9420    0.0950 C.3     1  UNL1        0.0800
      2  C          6.3170    3.8100    0.9470 C.2     1  UNL1        0.1300
      3  C          7.2820    4.7740    0.3550 C.3     1  UNL1        0.0870
      4  O          6.2530    3.7530    2.1640 O.2     1  UNL1       -0.3000
      5  C          5.0820    1.6620    0.8150 C.3     1  UNL1        0.0430
      6  C          5.9240    0.5300    0.3910 C.2     1  UNL1       -0.0440
      7  C          6.3030   -0.4780    1.2860 C.2     1  UNL1        0.0080
      8  C          6.3530    0.4490   -0.9150 C.2     1  UNL1        0.0540
      9  C          7.0940   -1.5170    0.8300 C.2     1  UNL1        0.0510
     10  C          7.1520   -0.6030   -1.3700 C.2     1  UNL1        0.1660
     11  C          7.5260   -1.5940   -0.4900 C.2     1  UNL1        0.1650
     12  O          7.7000   -0.9040   -2.5990 O.2     1  UNL1       -0.4540
     13  O          8.3030   -2.4930   -1.2050 O.2     1  UNL1       -0.4540
     14  C          8.3630   -2.1420   -2.5670 C.3     1  UNL1        0.4680
@<TRIPOS>BOND
     1    12    14    1
     2    12    10    1
     3    14    13    1
     4    10     8    1
     5    10    11    2
     6    13    11    1
     7     8     6    2
     8    11     9    1
     9     1     5    1
    10     1     2    1
    11     3     2    1
    12     6     5    1
    13     6     7    1
    14     9     7    2
    15     2     4    2
