@<TRIPOS>MOLECULE
/home/cewinharhar/GITHUB/reincatalyze/data/processed/docking_pred/2023-May-22-1531_sub9_nm5_bs15_s42_ex16_mel10_mts1000_k50_ec02_g099_lra9e-4_lrc1e-3/0bc78f1071f374665515956646110ea4a2a90639_ligand_9.pdbqt
 14 15 0 0 0
SMALL
GASTEIGER

@<TRIPOS>ATOM
      1  C          5.5120    1.9240    1.2610 C.3     1  UNL1        0.0800
      2  C          5.0720    0.7080    2.0010 C.2     1  UNL1        0.1300
      3  C          5.9630   -0.4710    2.1660 C.3     1  UNL1        0.0870
      4  O          3.9580    0.6450    2.4950 O.2     1  UNL1       -0.3000
      5  C          5.3880    1.7320   -0.2370 C.3     1  UNL1        0.0430
      6  C          6.5560    1.0310   -0.7980 C.2     1  UNL1       -0.0440
      7  C          7.8620    1.4690   -0.5500 C.2     1  UNL1        0.0080
      8  C          6.3710   -0.0850   -1.5820 C.2     1  UNL1        0.0540
      9  C          8.9200    0.7690   -1.1020 C.2     1  UNL1        0.0510
     10  C          7.4440   -0.7890   -2.1370 C.2     1  UNL1        0.1660
     11  C          8.7290   -0.3570   -1.8960 C.2     1  UNL1        0.1650
     12  O          7.5190   -1.9080   -2.9390 O.2     1  UNL1       -0.4540
     13  O          9.5760   -1.2310   -2.5600 O.2     1  UNL1       -0.4540
     14  C          8.8550   -2.2810   -3.1590 C.3     1  UNL1        0.4680
@<TRIPOS>BOND
     1    14    12    1
     2    14    13    1
     3    12    10    1
     4    13    11    1
     5    10    11    2
     6    10     8    1
     7    11     9    1
     8     8     6    2
     9     9     7    2
    10     6     7    1
    11     6     5    1
    12     5     1    1
    13     1     2    1
    14     2     3    1
    15     2     4    2
