@<TRIPOS>MOLECULE
/home/cewinharhar/GITHUB/reincatalyze/data/processed/docking_pred/2023-May-22-1531_sub9_nm5_bs15_s42_ex16_mel10_mts1000_k50_ec02_g099_lra9e-4_lrc1e-3/0bc78f1071f374665515956646110ea4a2a90639_ligand_9.pdbqt
 14 15 0 0 0
SMALL
GASTEIGER

@<TRIPOS>ATOM
      1  C          5.7470    1.3270   -0.2990 C.3     1  UNL1        0.0800
      2  C          5.1600    1.2790    1.0690 C.2     1  UNL1        0.1300
      3  C          5.3280    0.0920    1.9500 C.3     1  UNL1        0.0870
      4  O          4.5180    2.2190    1.5080 O.2     1  UNL1       -0.3000
      5  C          7.2460    1.1000   -0.2630 C.3     1  UNL1        0.0430
      6  C          7.6180   -0.1920   -0.8680 C.2     1  UNL1       -0.0440
      7  C          7.6930   -0.3570   -2.2560 C.2     1  UNL1        0.0080
      8  C          7.9020   -1.2670   -0.0580 C.2     1  UNL1        0.0540
      9  C          8.0480   -1.5920   -2.7660 C.2     1  UNL1        0.0510
     10  C          8.2610   -2.5140   -0.5790 C.2     1  UNL1        0.1660
     11  C          8.3350   -2.6780   -1.9440 C.2     1  UNL1        0.1650
     12  O          8.5860   -3.7190    0.0070 O.2     1  UNL1       -0.4540
     13  O          8.7080   -3.9930   -2.1710 O.2     1  UNL1       -0.4540
     14  C          8.9650   -4.6640   -0.9600 C.3     1  UNL1        0.4680
@<TRIPOS>BOND
     1     9     7    1
     2     9    11    2
     3     7     6    2
     4    13    11    1
     5    13    14    1
     6    11    10    1
     7    14    12    1
     8     6     5    1
     9     6     8    1
    10    10     8    2
    11    10    12    1
    12     1     5    1
    13     1     2    1
    14     2     4    2
    15     2     3    1
