@<TRIPOS>MOLECULE
/home/cewinharhar/GITHUB/reincatalyze/data/processed/docking_pred/2023-May-22-1531_sub9_nm5_bs15_s42_ex16_mel10_mts1000_k50_ec02_g099_lra9e-4_lrc1e-3/0bc78f1071f374665515956646110ea4a2a90639_ligand_9.pdbqt
 14 15 0 0 0
SMALL
GASTEIGER

@<TRIPOS>ATOM
      1  C          5.4600    2.9210    0.1040 C.3     1  UNL1        0.0800
      2  C          6.2690    3.8090    0.9850 C.2     1  UNL1        0.1300
      3  C          7.2530    4.7750    0.4290 C.3     1  UNL1        0.0870
      4  O          6.1460    3.7670    2.1990 O.2     1  UNL1       -0.3000
      5  C          5.1540    1.6010    0.7840 C.3     1  UNL1        0.0430
      6  C          5.9960    0.5100    0.2630 C.2     1  UNL1       -0.0440
      7  C          6.3500   -0.5870    1.0580 C.2     1  UNL1        0.0080
      8  C          6.4500    0.5580   -1.0360 C.2     1  UNL1        0.0540
      9  C          7.1420   -1.5820    0.5150 C.2     1  UNL1        0.0510
     10  C          7.2500   -0.4500   -1.5800 C.2     1  UNL1        0.1660
     11  C          7.6000   -1.5290   -0.7980 C.2     1  UNL1        0.1650
     12  O          7.8200   -0.6300   -2.8230 O.2     1  UNL1       -0.4540
     13  O          8.3830   -2.3580   -1.5860 O.2     1  UNL1       -0.4540
     14  C          8.4730   -1.8710   -2.9040 C.3     1  UNL1        0.4680
@<TRIPOS>BOND
     1    14    12    1
     2    14    13    1
     3    12    10    1
     4    13    11    1
     5    10     8    1
     6    10    11    2
     7     8     6    2
     8    11     9    1
     9     1     5    1
    10     1     2    1
    11     6     5    1
    12     6     7    1
    13     3     2    1
    14     9     7    2
    15     2     4    2
