MODEL 1
REMARK VINA RESULT:      -7.9      0.000      0.000
REMARK SMILES CC(=O)CCc1ccc2c(c1)OCO2
REMARK SMILES IDX 4 1 2 2 1 3 3 4 5 5 6 6 7 7 11 8 8 9 10 10 9 11 12 12 14 13
REMARK SMILES IDX 13 14
REMARK H PARENT
REMARK Flexibility Score: inf
ROOT
ATOM      1  C   UNL     1       5.460   2.921   0.104  1.00  0.00     0.080 C 
ENDROOT
BRANCH   1   2
ATOM      2  C   UNL     1       6.269   3.809   0.985  1.00  0.00     0.130 C 
ATOM      3  C   UNL     1       7.253   4.775   0.429  1.00  0.00     0.087 C 
ATOM      4  O   UNL     1       6.146   3.767   2.199  1.00  0.00    -0.300 OA
ENDBRANCH   1   2
BRANCH   1   5
ATOM      5  C   UNL     1       5.154   1.601   0.784  1.00  0.00     0.043 C 
BRANCH   5   6
ATOM      6  C   UNL     1       5.996   0.510   0.263  1.00  0.00    -0.044 A 
ATOM      7  C   UNL     1       6.350  -0.587   1.058  1.00  0.00     0.008 A 
ATOM      8  C   UNL     1       6.450   0.558  -1.036  1.00  0.00     0.054 A 
ATOM      9  C   UNL     1       7.142  -1.582   0.515  1.00  0.00     0.051 A 
ATOM     10  C   UNL     1       7.250  -0.450  -1.580  1.00  0.00     0.166 A 
ATOM     11  C   UNL     1       7.600  -1.529  -0.798  1.00  0.00     0.165 A 
ATOM     12  O   UNL     1       7.820  -0.630  -2.823  1.00  0.00    -0.454 OA
ATOM     13  O   UNL     1       8.383  -2.358  -1.586  1.00  0.00    -0.454 OA
ATOM     14  C   UNL     1       8.473  -1.871  -2.904  1.00  0.00     0.468 C 
ENDBRANCH   5   6
ENDBRANCH   1   5
TORSDOF 3
ENDMDL
MODEL 2
REMARK VINA RESULT:      -7.7      1.873      2.608
REMARK SMILES CC(=O)CCc1ccc2c(c1)OCO2
REMARK SMILES IDX 4 1 2 2 1 3 3 4 5 5 6 6 7 7 11 8 8 9 10 10 9 11 12 12 14 13
REMARK SMILES IDX 13 14
REMARK H PARENT
REMARK Flexibility Score: inf
ROOT
ATOM      1  C   UNL     1       5.512   1.924   1.261  1.00  0.00     0.080 C 
ENDROOT
BRANCH   1   2
ATOM      2  C   UNL     1       5.072   0.708   2.001  1.00  0.00     0.130 C 
ATOM      3  C   UNL     1       5.963  -0.471   2.166  1.00  0.00     0.087 C 
ATOM      4  O   UNL     1       3.958   0.645   2.495  1.00  0.00    -0.300 OA
ENDBRANCH   1   2
BRANCH   1   5
ATOM      5  C   UNL     1       5.388   1.732  -0.237  1.00  0.00     0.043 C 
BRANCH   5   6
ATOM      6  C   UNL     1       6.556   1.031  -0.798  1.00  0.00    -0.044 A 
ATOM      7  C   UNL     1       7.862   1.469  -0.550  1.00  0.00     0.008 A 
ATOM      8  C   UNL     1       6.371  -0.085  -1.582  1.00  0.00     0.054 A 
ATOM      9  C   UNL     1       8.920   0.769  -1.102  1.00  0.00     0.051 A 
ATOM     10  C   UNL     1       7.444  -0.789  -2.137  1.00  0.00     0.166 A 
ATOM     11  C   UNL     1       8.729  -0.357  -1.896  1.00  0.00     0.165 A 
ATOM     12  O   UNL     1       7.519  -1.908  -2.939  1.00  0.00    -0.454 OA
ATOM     13  O   UNL     1       9.576  -1.231  -2.560  1.00  0.00    -0.454 OA
ATOM     14  C   UNL     1       8.855  -2.281  -3.159  1.00  0.00     0.468 C 
ENDBRANCH   5   6
ENDBRANCH   1   5
TORSDOF 3
ENDMDL
MODEL 3
REMARK VINA RESULT:      -7.5      1.951      3.016
REMARK SMILES CC(=O)CCc1ccc2c(c1)OCO2
REMARK SMILES IDX 4 1 2 2 1 3 3 4 5 5 6 6 7 7 11 8 8 9 10 10 9 11 12 12 14 13
REMARK SMILES IDX 13 14
REMARK H PARENT
REMARK Flexibility Score: inf
ROOT
ATOM      1  C   UNL     1       5.747   1.327  -0.299  1.00  0.00     0.080 C 
ENDROOT
BRANCH   1   2
ATOM      2  C   UNL     1       5.160   1.279   1.069  1.00  0.00     0.130 C 
ATOM      3  C   UNL     1       5.328   0.092   1.950  1.00  0.00     0.087 C 
ATOM      4  O   UNL     1       4.518   2.219   1.508  1.00  0.00    -0.300 OA
ENDBRANCH   1   2
BRANCH   1   5
ATOM      5  C   UNL     1       7.246   1.100  -0.263  1.00  0.00     0.043 C 
BRANCH   5   6
ATOM      6  C   UNL     1       7.618  -0.192  -0.868  1.00  0.00    -0.044 A 
ATOM      7  C   UNL     1       7.693  -0.357  -2.256  1.00  0.00     0.008 A 
ATOM      8  C   UNL     1       7.902  -1.267  -0.058  1.00  0.00     0.054 A 
ATOM      9  C   UNL     1       8.048  -1.592  -2.766  1.00  0.00     0.051 A 
ATOM     10  C   UNL     1       8.261  -2.514  -0.579  1.00  0.00     0.166 A 
ATOM     11  C   UNL     1       8.335  -2.678  -1.944  1.00  0.00     0.165 A 
ATOM     12  O   UNL     1       8.586  -3.719   0.007  1.00  0.00    -0.454 OA
ATOM     13  O   UNL     1       8.708  -3.993  -2.171  1.00  0.00    -0.454 OA
ATOM     14  C   UNL     1       8.965  -4.664  -0.960  1.00  0.00     0.468 C 
ENDBRANCH   5   6
ENDBRANCH   1   5
TORSDOF 3
ENDMDL
