MODEL 1
REMARK VINA RESULT:      -7.9      0.000      0.000
REMARK SMILES CC(=O)CCc1ccc2c(c1)OCO2
REMARK SMILES IDX 4 1 2 2 1 3 3 4 5 5 6 6 7 7 11 8 8 9 10 10 9 11 12 12 14 13
REMARK SMILES IDX 13 14
REMARK H PARENT
REMARK Flexibility Score: inf
ROOT
ATOM      1  C   UNL     1       5.514   2.856   0.188  1.00  0.00     0.080 C 
ENDROOT
BRANCH   1   2
ATOM      2  C   UNL     1       6.393   3.711   1.033  1.00  0.00     0.130 C 
ATOM      3  C   UNL     1       7.249   4.775   0.443  1.00  0.00     0.087 C 
ATOM      4  O   UNL     1       6.437   3.561   2.243  1.00  0.00    -0.300 OA
ENDBRANCH   1   2
BRANCH   1   5
ATOM      5  C   UNL     1       5.230   1.526   0.858  1.00  0.00     0.043 C 
BRANCH   5   6
ATOM      6  C   UNL     1       6.083   0.451   0.322  1.00  0.00    -0.044 A 
ATOM      7  C   UNL     1       6.513  -0.613   1.124  1.00  0.00     0.008 A 
ATOM      8  C   UNL     1       6.470   0.481  -0.999  1.00  0.00     0.054 A 
ATOM      9  C   UNL     1       7.312  -1.594   0.565  1.00  0.00     0.051 A 
ATOM     10  C   UNL     1       7.277  -0.514  -1.559  1.00  0.00     0.166 A 
ATOM     11  C   UNL     1       7.701  -1.560  -0.770  1.00  0.00     0.165 A 
ATOM     12  O   UNL     1       7.790  -0.706  -2.824  1.00  0.00    -0.454 OA
ATOM     13  O   UNL     1       8.473  -2.382  -1.576  1.00  0.00    -0.454 OA
ATOM     14  C   UNL     1       8.481  -1.926  -2.908  1.00  0.00     0.468 C 
ENDBRANCH   5   6
ENDBRANCH   1   5
TORSDOF 3
ENDMDL
MODEL 2
REMARK VINA RESULT:      -7.7      1.082      2.036
REMARK SMILES CC(=O)CCc1ccc2c(c1)OCO2
REMARK SMILES IDX 4 1 2 2 1 3 3 4 5 5 6 6 7 7 11 8 8 9 10 10 9 11 12 12 14 13
REMARK SMILES IDX 13 14
REMARK H PARENT
REMARK Flexibility Score: inf
ROOT
ATOM      1  C   UNL     1       5.320   3.183   0.194  1.00  0.00     0.080 C 
ENDROOT
BRANCH   1   2
ATOM      2  C   UNL     1       6.341   3.877   1.027  1.00  0.00     0.130 C 
ATOM      3  C   UNL     1       7.362   4.775   0.425  1.00  0.00     0.087 C 
ATOM      4  O   UNL     1       6.369   3.726   2.238  1.00  0.00    -0.300 OA
ENDBRANCH   1   2
BRANCH   1   5
ATOM      5  C   UNL     1       4.945   1.839   0.787  1.00  0.00     0.043 C 
BRANCH   5   6
ATOM      6  C   UNL     1       5.811   0.759   0.281  1.00  0.00    -0.044 A 
ATOM      7  C   UNL     1       6.240   0.726  -1.051  1.00  0.00     0.008 A 
ATOM      8  C   UNL     1       6.215  -0.246   1.131  1.00  0.00     0.054 A 
ATOM      9  C   UNL     1       7.052  -0.313  -1.469  1.00  0.00     0.051 A 
ATOM     10  C   UNL     1       7.036  -1.293   0.704  1.00  0.00     0.166 A 
ATOM     11  C   UNL     1       7.458  -1.327  -0.607  1.00  0.00     0.165 A 
ATOM     12  O   UNL     1       7.566  -2.393   1.344  1.00  0.00    -0.454 OA
ATOM     13  O   UNL     1       8.247  -2.459  -0.745  1.00  0.00    -0.454 OA
ATOM     14  C   UNL     1       8.416  -3.114   0.489  1.00  0.00     0.468 C 
ENDBRANCH   5   6
ENDBRANCH   1   5
TORSDOF 3
ENDMDL
MODEL 3
REMARK VINA RESULT:      -7.6      1.874      2.582
REMARK SMILES CC(=O)CCc1ccc2c(c1)OCO2
REMARK SMILES IDX 4 1 2 2 1 3 3 4 5 5 6 6 7 7 11 8 8 9 10 10 9 11 12 12 14 13
REMARK SMILES IDX 13 14
REMARK H PARENT
REMARK Flexibility Score: inf
ROOT
ATOM      1  C   UNL     1       5.549   1.921   1.274  1.00  0.00     0.080 C 
ENDROOT
BRANCH   1   2
ATOM      2  C   UNL     1       5.128   0.700   2.015  1.00  0.00     0.130 C 
ATOM      3  C   UNL     1       6.041  -0.461   2.189  1.00  0.00     0.087 C 
ATOM      4  O   UNL     1       4.013   0.616   2.504  1.00  0.00    -0.300 OA
ENDBRANCH   1   2
BRANCH   1   5
ATOM      5  C   UNL     1       5.417   1.729  -0.224  1.00  0.00     0.043 C 
BRANCH   5   6
ATOM      6  C   UNL     1       6.582   1.024  -0.789  1.00  0.00    -0.044 A 
ATOM      7  C   UNL     1       7.890   1.449  -0.532  1.00  0.00     0.008 A 
ATOM      8  C   UNL     1       6.390  -0.080  -1.588  1.00  0.00     0.054 A 
ATOM      9  C   UNL     1       8.945   0.748  -1.089  1.00  0.00     0.051 A 
ATOM     10  C   UNL     1       7.459  -0.785  -2.148  1.00  0.00     0.166 A 
ATOM     11  C   UNL     1       8.747  -0.368  -1.897  1.00  0.00     0.165 A 
ATOM     12  O   UNL     1       7.528  -1.895  -2.963  1.00  0.00    -0.454 OA
ATOM     13  O   UNL     1       9.589  -1.239  -2.569  1.00  0.00    -0.454 OA
ATOM     14  C   UNL     1       8.862  -2.276  -3.183  1.00  0.00     0.468 C 
ENDBRANCH   5   6
ENDBRANCH   1   5
TORSDOF 3
ENDMDL
