@<TRIPOS>MOLECULE
/home/cewinharhar/GITHUB/reincatalyze/data/processed/docking_pred/2023-May-22-1531_sub9_nm5_bs15_s42_ex16_mel10_mts1000_k50_ec02_g099_lra9e-4_lrc1e-3/0c0669ff2f8dcec30d9aff9f411b757c1c1ac29f_ligand_9.pdbqt
 14 15 0 0 0
SMALL
GASTEIGER

@<TRIPOS>ATOM
      1  C          5.5140    2.8560    0.1880 C.3     1  UNL1        0.0800
      2  C          6.3930    3.7110    1.0330 C.2     1  UNL1        0.1300
      3  C          7.2490    4.7750    0.4430 C.3     1  UNL1        0.0870
      4  O          6.4370    3.5610    2.2430 O.2     1  UNL1       -0.3000
      5  C          5.2300    1.5260    0.8580 C.3     1  UNL1        0.0430
      6  C          6.0830    0.4510    0.3220 C.2     1  UNL1       -0.0440
      7  C          6.5130   -0.6130    1.1240 C.2     1  UNL1        0.0080
      8  C          6.4700    0.4810   -0.9990 C.2     1  UNL1        0.0540
      9  C          7.3120   -1.5940    0.5650 C.2     1  UNL1        0.0510
     10  C          7.2770   -0.5140   -1.5590 C.2     1  UNL1        0.1660
     11  C          7.7010   -1.5600   -0.7700 C.2     1  UNL1        0.1650
     12  O          7.7900   -0.7060   -2.8240 O.2     1  UNL1       -0.4540
     13  O          8.4730   -2.3820   -1.5760 O.2     1  UNL1       -0.4540
     14  C          8.4810   -1.9260   -2.9080 C.3     1  UNL1        0.4680
@<TRIPOS>BOND
     1    14    12    1
     2    14    13    1
     3    12    10    1
     4    13    11    1
     5    10     8    1
     6    10    11    2
     7     8     6    2
     8    11     9    1
     9     1     5    1
    10     1     2    1
    11     6     5    1
    12     6     7    1
    13     3     2    1
    14     9     7    2
    15     2     4    2
