@<TRIPOS>MOLECULE
/home/cewinharhar/GITHUB/reincatalyze/data/processed/docking_pred/2023-May-22-1531_sub9_nm5_bs15_s42_ex16_mel10_mts1000_k50_ec02_g099_lra9e-4_lrc1e-3/0c0669ff2f8dcec30d9aff9f411b757c1c1ac29f_ligand_9.pdbqt
 14 15 0 0 0
SMALL
GASTEIGER

@<TRIPOS>ATOM
      1  C          5.5490    1.9210    1.2740 C.3     1  UNL1        0.0800
      2  C          5.1280    0.7000    2.0150 C.2     1  UNL1        0.1300
      3  C          6.0410   -0.4610    2.1890 C.3     1  UNL1        0.0870
      4  O          4.0130    0.6160    2.5040 O.2     1  UNL1       -0.3000
      5  C          5.4170    1.7290   -0.2240 C.3     1  UNL1        0.0430
      6  C          6.5820    1.0240   -0.7890 C.2     1  UNL1       -0.0440
      7  C          7.8900    1.4490   -0.5320 C.2     1  UNL1        0.0080
      8  C          6.3900   -0.0800   -1.5880 C.2     1  UNL1        0.0540
      9  C          8.9450    0.7480   -1.0890 C.2     1  UNL1        0.0510
     10  C          7.4590   -0.7850   -2.1480 C.2     1  UNL1        0.1660
     11  C          8.7470   -0.3680   -1.8970 C.2     1  UNL1        0.1650
     12  O          7.5280   -1.8950   -2.9630 O.2     1  UNL1       -0.4540
     13  O          9.5890   -1.2390   -2.5690 O.2     1  UNL1       -0.4540
     14  C          8.8620   -2.2760   -3.1830 C.3     1  UNL1        0.4680
@<TRIPOS>BOND
     1    14    12    1
     2    14    13    1
     3    12    10    1
     4    13    11    1
     5    10    11    2
     6    10     8    1
     7    11     9    1
     8     8     6    2
     9     9     7    2
    10     6     7    1
    11     6     5    1
    12     5     1    1
    13     1     2    1
    14     2     3    1
    15     2     4    2
