@<TRIPOS>MOLECULE
/home/cewinharhar/GITHUB/reincatalyze/data/processed/docking_pred/2023-May-22-1531_sub9_nm5_bs15_s42_ex16_mel10_mts1000_k50_ec02_g099_lra9e-4_lrc1e-3/0c0669ff2f8dcec30d9aff9f411b757c1c1ac29f_ligand_9.pdbqt
 14 15 0 0 0
SMALL
GASTEIGER

@<TRIPOS>ATOM
      1  C          5.3200    3.1830    0.1940 C.3     1  UNL1        0.0800
      2  C          6.3410    3.8770    1.0270 C.2     1  UNL1        0.1300
      3  C          7.3620    4.7750    0.4250 C.3     1  UNL1        0.0870
      4  O          6.3690    3.7260    2.2380 O.2     1  UNL1       -0.3000
      5  C          4.9450    1.8390    0.7870 C.3     1  UNL1        0.0430
      6  C          5.8110    0.7590    0.2810 C.2     1  UNL1       -0.0440
      7  C          6.2400    0.7260   -1.0510 C.2     1  UNL1        0.0080
      8  C          6.2150   -0.2460    1.1310 C.2     1  UNL1        0.0540
      9  C          7.0520   -0.3130   -1.4690 C.2     1  UNL1        0.0510
     10  C          7.0360   -1.2930    0.7040 C.2     1  UNL1        0.1660
     11  C          7.4580   -1.3270   -0.6070 C.2     1  UNL1        0.1650
     12  O          7.5660   -2.3930    1.3440 O.2     1  UNL1       -0.4540
     13  O          8.2470   -2.4590   -0.7450 O.2     1  UNL1       -0.4540
     14  C          8.4160   -3.1140    0.4890 C.3     1  UNL1        0.4680
@<TRIPOS>BOND
     1     9     7    1
     2     9    11    2
     3     7     6    2
     4    13    11    1
     5    13    14    1
     6    11    10    1
     7     1     5    1
     8     1     2    1
     9     6     5    1
    10     6     8    1
    11     3     2    1
    12    14    12    1
    13    10     8    2
    14    10    12    1
    15     2     4    2
