@<TRIPOS>MOLECULE
/home/cewinharhar/GITHUB/reincatalyze/data/processed/docking_pred/2023-May-22-1531_sub9_nm5_bs15_s42_ex16_mel10_mts1000_k50_ec02_g099_lra9e-4_lrc1e-3/0df60b8790b800bbceb9ee276e91b409308b6f54_ligand_9.pdbqt
 14 15 0 0 0
SMALL
GASTEIGER

@<TRIPOS>ATOM
      1  C          5.5340    1.8850    1.2890 C.3     1  UNL1        0.0800
      2  C          5.0860    0.6630    2.0130 C.2     1  UNL1        0.1300
      3  C          5.9730   -0.5210    2.1690 C.3     1  UNL1        0.0870
      4  O          3.9710    0.5980    2.5030 O.2     1  UNL1       -0.3000
      5  C          5.4050    1.7130   -0.2120 C.3     1  UNL1        0.0430
      6  C          6.5720    1.0190   -0.7850 C.2     1  UNL1       -0.0440
      7  C          7.8780    1.4620   -0.5470 C.2     1  UNL1        0.0080
      8  C          6.3840   -0.0950   -1.5720 C.2     1  UNL1        0.0540
      9  C          8.9340    0.7690   -1.1100 C.2     1  UNL1        0.0510
     10  C          7.4550   -0.7910   -2.1390 C.2     1  UNL1        0.1660
     11  C          8.7410   -0.3560   -1.9060 C.2     1  UNL1        0.1650
     12  O          7.5290   -1.9070   -2.9450 O.2     1  UNL1       -0.4540
     13  O          9.5860   -1.2230   -2.5810 O.2     1  UNL1       -0.4540
     14  C          8.8650   -2.2740   -3.1780 C.3     1  UNL1        0.4680
@<TRIPOS>BOND
     1    14    12    1
     2    14    13    1
     3    12    10    1
     4    13    11    1
     5    10    11    2
     6    10     8    1
     7    11     9    1
     8     8     6    2
     9     9     7    2
    10     6     7    1
    11     6     5    1
    12     5     1    1
    13     1     2    1
    14     2     3    1
    15     2     4    2
