MODEL 1
REMARK VINA RESULT:      -7.9      0.000      0.000
REMARK SMILES CC(=O)CCc1ccc2c(c1)OCO2
REMARK SMILES IDX 4 1 2 2 1 3 3 4 5 5 6 6 7 7 11 8 8 9 10 10 9 11 12 12 14 13
REMARK SMILES IDX 13 14
REMARK H PARENT
REMARK Flexibility Score: inf
ROOT
ATOM      1  C   UNL     1       5.464   2.889   0.136  1.00  0.00     0.080 C 
ENDROOT
BRANCH   1   2
ATOM      2  C   UNL     1       6.256   3.848   0.955  1.00  0.00     0.130 C 
ATOM      3  C   UNL     1       7.242   4.774   0.337  1.00  0.00     0.087 C 
ATOM      4  O   UNL     1       6.118   3.900   2.167  1.00  0.00    -0.300 OA
ENDBRANCH   1   2
BRANCH   1   5
ATOM      5  C   UNL     1       5.245   1.583   0.875  1.00  0.00     0.043 C 
BRANCH   5   6
ATOM      6  C   UNL     1       6.074   0.497   0.322  1.00  0.00    -0.044 A 
ATOM      7  C   UNL     1       6.435  -0.614   1.093  1.00  0.00     0.008 A 
ATOM      8  C   UNL     1       6.507   0.566  -0.982  1.00  0.00     0.054 A 
ATOM      9  C   UNL     1       7.214  -1.603   0.520  1.00  0.00     0.051 A 
ATOM     10  C   UNL     1       7.294  -0.437  -1.557  1.00  0.00     0.166 A 
ATOM     11  C   UNL     1       7.651  -1.530  -0.799  1.00  0.00     0.165 A 
ATOM     12  O   UNL     1       7.843  -0.598  -2.811  1.00  0.00    -0.454 OA
ATOM     13  O   UNL     1       8.418  -2.349  -1.613  1.00  0.00    -0.454 OA
ATOM     14  C   UNL     1       8.489  -1.840  -2.923  1.00  0.00     0.468 C 
ENDBRANCH   5   6
ENDBRANCH   1   5
TORSDOF 3
ENDMDL
MODEL 2
REMARK VINA RESULT:      -7.8      1.001      1.987
REMARK SMILES CC(=O)CCc1ccc2c(c1)OCO2
REMARK SMILES IDX 4 1 2 2 1 3 3 4 5 5 6 6 7 7 11 8 8 9 10 10 9 11 12 12 14 13
REMARK SMILES IDX 13 14
REMARK H PARENT
REMARK Flexibility Score: inf
ROOT
ATOM      1  C   UNL     1       5.412   2.937   0.225  1.00  0.00     0.080 C 
ENDROOT
BRANCH   1   2
ATOM      2  C   UNL     1       6.320   3.806   1.024  1.00  0.00     0.130 C 
ATOM      3  C   UNL     1       7.244   4.775   0.375  1.00  0.00     0.087 C 
ATOM      4  O   UNL     1       6.332   3.747   2.243  1.00  0.00    -0.300 OA
ENDBRANCH   1   2
BRANCH   1   5
ATOM      5  C   UNL     1       5.188   1.601   0.906  1.00  0.00     0.043 C 
BRANCH   5   6
ATOM      6  C   UNL     1       6.011   0.537   0.306  1.00  0.00    -0.044 A 
ATOM      7  C   UNL     1       6.367   0.560  -1.047  1.00  0.00     0.008 A 
ATOM      8  C   UNL     1       6.447  -0.510   1.086  1.00  0.00     0.054 A 
ATOM      9  C   UNL     1       7.142  -0.466  -1.555  1.00  0.00     0.051 A 
ATOM     10  C   UNL     1       7.231  -1.545   0.568  1.00  0.00     0.166 A 
ATOM     11  C   UNL     1       7.581  -1.523  -0.764  1.00  0.00     0.165 A 
ATOM     12  O   UNL     1       7.781  -2.679   1.128  1.00  0.00    -0.454 OA
ATOM     13  O   UNL     1       8.347  -2.655  -0.995  1.00  0.00    -0.454 OA
ATOM     14  C   UNL     1       8.574  -3.368   0.197  1.00  0.00     0.468 C 
ENDBRANCH   5   6
ENDBRANCH   1   5
TORSDOF 3
ENDMDL
MODEL 3
REMARK VINA RESULT:      -7.7      1.905      2.643
REMARK SMILES CC(=O)CCc1ccc2c(c1)OCO2
REMARK SMILES IDX 4 1 2 2 1 3 3 4 5 5 6 6 7 7 11 8 8 9 10 10 9 11 12 12 14 13
REMARK SMILES IDX 13 14
REMARK H PARENT
REMARK Flexibility Score: inf
ROOT
ATOM      1  C   UNL     1       5.534   1.885   1.289  1.00  0.00     0.080 C 
ENDROOT
BRANCH   1   2
ATOM      2  C   UNL     1       5.086   0.663   2.013  1.00  0.00     0.130 C 
ATOM      3  C   UNL     1       5.973  -0.521   2.169  1.00  0.00     0.087 C 
ATOM      4  O   UNL     1       3.971   0.598   2.503  1.00  0.00    -0.300 OA
ENDBRANCH   1   2
BRANCH   1   5
ATOM      5  C   UNL     1       5.405   1.713  -0.212  1.00  0.00     0.043 C 
BRANCH   5   6
ATOM      6  C   UNL     1       6.572   1.019  -0.785  1.00  0.00    -0.044 A 
ATOM      7  C   UNL     1       7.878   1.462  -0.547  1.00  0.00     0.008 A 
ATOM      8  C   UNL     1       6.384  -0.095  -1.572  1.00  0.00     0.054 A 
ATOM      9  C   UNL     1       8.934   0.769  -1.110  1.00  0.00     0.051 A 
ATOM     10  C   UNL     1       7.455  -0.791  -2.139  1.00  0.00     0.166 A 
ATOM     11  C   UNL     1       8.741  -0.356  -1.906  1.00  0.00     0.165 A 
ATOM     12  O   UNL     1       7.529  -1.907  -2.945  1.00  0.00    -0.454 OA
ATOM     13  O   UNL     1       9.586  -1.223  -2.581  1.00  0.00    -0.454 OA
ATOM     14  C   UNL     1       8.865  -2.274  -3.178  1.00  0.00     0.468 C 
ENDBRANCH   5   6
ENDBRANCH   1   5
TORSDOF 3
ENDMDL
