@<TRIPOS>MOLECULE
/home/cewinharhar/GITHUB/reincatalyze/data/processed/docking_pred/2023-May-22-1531_sub9_nm5_bs15_s42_ex16_mel10_mts1000_k50_ec02_g099_lra9e-4_lrc1e-3/0df60b8790b800bbceb9ee276e91b409308b6f54_ligand_9.pdbqt
 14 15 0 0 0
SMALL
GASTEIGER

@<TRIPOS>ATOM
      1  C          5.4120    2.9370    0.2250 C.3     1  UNL1        0.0800
      2  C          6.3200    3.8060    1.0240 C.2     1  UNL1        0.1300
      3  C          7.2440    4.7750    0.3750 C.3     1  UNL1        0.0870
      4  O          6.3320    3.7470    2.2430 O.2     1  UNL1       -0.3000
      5  C          5.1880    1.6010    0.9060 C.3     1  UNL1        0.0430
      6  C          6.0110    0.5370    0.3060 C.2     1  UNL1       -0.0440
      7  C          6.3670    0.5600   -1.0470 C.2     1  UNL1        0.0080
      8  C          6.4470   -0.5100    1.0860 C.2     1  UNL1        0.0540
      9  C          7.1420   -0.4660   -1.5550 C.2     1  UNL1        0.0510
     10  C          7.2310   -1.5450    0.5680 C.2     1  UNL1        0.1660
     11  C          7.5810   -1.5230   -0.7640 C.2     1  UNL1        0.1650
     12  O          7.7810   -2.6790    1.1280 O.2     1  UNL1       -0.4540
     13  O          8.3470   -2.6550   -0.9950 O.2     1  UNL1       -0.4540
     14  C          8.5740   -3.3680    0.1970 C.3     1  UNL1        0.4680
@<TRIPOS>BOND
     1     9     7    1
     2     9    11    2
     3     7     6    2
     4    13    11    1
     5    13    14    1
     6    11    10    1
     7    14    12    1
     8     1     5    1
     9     1     2    1
    10     6     5    1
    11     6     8    1
    12     3     2    1
    13    10     8    2
    14    10    12    1
    15     2     4    2
