@<TRIPOS>MOLECULE
/home/cewinharhar/GITHUB/reincatalyze/data/processed/docking_pred/2023-May-22-1531_sub9_nm5_bs15_s42_ex16_mel10_mts1000_k50_ec02_g099_lra9e-4_lrc1e-3/10ef791c1764d6d7d99274693c0e95c254b80295_ligand_9.pdbqt
 14 15 0 0 0
SMALL
GASTEIGER

@<TRIPOS>ATOM
      1  C          5.4310    2.9580    0.0890 C.3     1  UNL1        0.0800
      2  C          6.2720    3.8290    0.9570 C.2     1  UNL1        0.1300
      3  C          7.2680    4.7740    0.3830 C.3     1  UNL1        0.0870
      4  O          6.1680    3.7910    2.1720 O.2     1  UNL1       -0.3000
      5  C          5.0940    1.6530    0.7820 C.3     1  UNL1        0.0430
      6  C          5.9440    0.5470    0.3070 C.2     1  UNL1       -0.0440
      7  C          6.3300   -0.4980    1.1550 C.2     1  UNL1        0.0080
      8  C          6.3720    0.5290   -1.0010 C.2     1  UNL1        0.0540
      9  C          7.1280   -1.5100    0.6530 C.2     1  UNL1        0.0510
     10  C          7.1790   -0.4970   -1.5040 C.2     1  UNL1        0.1660
     11  C          7.5600   -1.5240   -0.6700 C.2     1  UNL1        0.1650
     12  O          7.7270   -0.7380   -2.7460 O.2     1  UNL1       -0.4540
     13  O          8.3420   -2.3840   -1.4250 O.2     1  UNL1       -0.4540
     14  C          8.3990   -1.9710   -2.7700 C.3     1  UNL1        0.4680
@<TRIPOS>BOND
     1    14    12    1
     2    14    13    1
     3    12    10    1
     4    10     8    1
     5    10    11    2
     6    13    11    1
     7     8     6    2
     8    11     9    1
     9     1     5    1
    10     1     2    1
    11     6     5    1
    12     6     7    1
    13     3     2    1
    14     9     7    2
    15     2     4    2
