@<TRIPOS>MOLECULE
/home/cewinharhar/GITHUB/reincatalyze/data/processed/docking_pred/2023-May-22-1531_sub9_nm5_bs15_s42_ex16_mel10_mts1000_k50_ec02_g099_lra9e-4_lrc1e-3/10ef791c1764d6d7d99274693c0e95c254b80295_ligand_9.pdbqt
 14 15 0 0 0
SMALL
GASTEIGER

@<TRIPOS>ATOM
      1  C          5.5500    1.9150    1.2740 C.3     1  UNL1        0.0800
      2  C          5.1250    0.6930    2.0130 C.2     1  UNL1        0.1300
      3  C          6.0360   -0.4690    2.1900 C.3     1  UNL1        0.0870
      4  O          4.0080    0.6110    2.4980 O.2     1  UNL1       -0.3000
      5  C          5.4180    1.7250   -0.2240 C.3     1  UNL1        0.0430
      6  C          6.5820    1.0200   -0.7900 C.2     1  UNL1       -0.0440
      7  C          7.8910    1.4470   -0.5380 C.2     1  UNL1        0.0080
      8  C          6.3890   -0.0870   -1.5850 C.2     1  UNL1        0.0540
      9  C          8.9440    0.7450   -1.0960 C.2     1  UNL1        0.0510
     10  C          7.4570   -0.7930   -2.1460 C.2     1  UNL1        0.1660
     11  C          8.7460   -0.3740   -1.8990 C.2     1  UNL1        0.1650
     12  O          7.5250   -1.9060   -2.9570 O.2     1  UNL1       -0.4540
     13  O          9.5870   -1.2470   -2.5710 O.2     1  UNL1       -0.4540
     14  C          8.8590   -2.2870   -3.1800 C.3     1  UNL1        0.4680
@<TRIPOS>BOND
     1    14    12    1
     2    14    13    1
     3    12    10    1
     4    13    11    1
     5    10    11    2
     6    10     8    1
     7    11     9    1
     8     8     6    2
     9     9     7    2
    10     6     7    1
    11     6     5    1
    12     5     1    1
    13     1     2    1
    14     2     3    1
    15     2     4    2
