MODEL 1
REMARK VINA RESULT:      -7.9      0.000      0.000
REMARK SMILES CC(=O)CCc1ccc2c(c1)OCO2
REMARK SMILES IDX 4 1 2 2 1 3 3 4 5 5 6 6 7 7 11 8 8 9 10 10 9 11 12 12 14 13
REMARK SMILES IDX 13 14
REMARK H PARENT
REMARK Flexibility Score: inf
ROOT
ATOM      1  C   UNL     1       5.431   2.958   0.089  1.00  0.00     0.080 C 
ENDROOT
BRANCH   1   2
ATOM      2  C   UNL     1       6.272   3.829   0.957  1.00  0.00     0.130 C 
ATOM      3  C   UNL     1       7.268   4.774   0.383  1.00  0.00     0.087 C 
ATOM      4  O   UNL     1       6.168   3.791   2.172  1.00  0.00    -0.300 OA
ENDBRANCH   1   2
BRANCH   1   5
ATOM      5  C   UNL     1       5.094   1.653   0.782  1.00  0.00     0.043 C 
BRANCH   5   6
ATOM      6  C   UNL     1       5.944   0.547   0.307  1.00  0.00    -0.044 A 
ATOM      7  C   UNL     1       6.330  -0.498   1.155  1.00  0.00     0.008 A 
ATOM      8  C   UNL     1       6.372   0.529  -1.001  1.00  0.00     0.054 A 
ATOM      9  C   UNL     1       7.128  -1.510   0.653  1.00  0.00     0.051 A 
ATOM     10  C   UNL     1       7.179  -0.497  -1.504  1.00  0.00     0.166 A 
ATOM     11  C   UNL     1       7.560  -1.524  -0.670  1.00  0.00     0.165 A 
ATOM     12  O   UNL     1       7.727  -0.738  -2.746  1.00  0.00    -0.454 OA
ATOM     13  O   UNL     1       8.342  -2.384  -1.425  1.00  0.00    -0.454 OA
ATOM     14  C   UNL     1       8.399  -1.971  -2.770  1.00  0.00     0.468 C 
ENDBRANCH   5   6
ENDBRANCH   1   5
TORSDOF 3
ENDMDL
MODEL 2
REMARK VINA RESULT:      -7.6      1.883      2.633
REMARK SMILES CC(=O)CCc1ccc2c(c1)OCO2
REMARK SMILES IDX 4 1 2 2 1 3 3 4 5 5 6 6 7 7 11 8 8 9 10 10 9 11 12 12 14 13
REMARK SMILES IDX 13 14
REMARK H PARENT
REMARK Flexibility Score: inf
ROOT
ATOM      1  C   UNL     1       5.550   1.915   1.274  1.00  0.00     0.080 C 
ENDROOT
BRANCH   1   2
ATOM      2  C   UNL     1       5.125   0.693   2.013  1.00  0.00     0.130 C 
ATOM      3  C   UNL     1       6.036  -0.469   2.190  1.00  0.00     0.087 C 
ATOM      4  O   UNL     1       4.008   0.611   2.498  1.00  0.00    -0.300 OA
ENDBRANCH   1   2
BRANCH   1   5
ATOM      5  C   UNL     1       5.418   1.725  -0.224  1.00  0.00     0.043 C 
BRANCH   5   6
ATOM      6  C   UNL     1       6.582   1.020  -0.790  1.00  0.00    -0.044 A 
ATOM      7  C   UNL     1       7.891   1.447  -0.538  1.00  0.00     0.008 A 
ATOM      8  C   UNL     1       6.389  -0.087  -1.585  1.00  0.00     0.054 A 
ATOM      9  C   UNL     1       8.944   0.745  -1.096  1.00  0.00     0.051 A 
ATOM     10  C   UNL     1       7.457  -0.793  -2.146  1.00  0.00     0.166 A 
ATOM     11  C   UNL     1       8.746  -0.374  -1.899  1.00  0.00     0.165 A 
ATOM     12  O   UNL     1       7.525  -1.906  -2.957  1.00  0.00    -0.454 OA
ATOM     13  O   UNL     1       9.587  -1.247  -2.571  1.00  0.00    -0.454 OA
ATOM     14  C   UNL     1       8.859  -2.287  -3.180  1.00  0.00     0.468 C 
ENDBRANCH   5   6
ENDBRANCH   1   5
TORSDOF 3
ENDMDL
MODEL 3
REMARK VINA RESULT:      -7.5      1.951      3.018
REMARK SMILES CC(=O)CCc1ccc2c(c1)OCO2
REMARK SMILES IDX 4 1 2 2 1 3 3 4 5 5 6 6 7 7 11 8 8 9 10 10 9 11 12 12 14 13
REMARK SMILES IDX 13 14
REMARK H PARENT
REMARK Flexibility Score: inf
ROOT
ATOM      1  C   UNL     1       5.796   1.399  -0.362  1.00  0.00     0.080 C 
ENDROOT
BRANCH   1   2
ATOM      2  C   UNL     1       5.120   1.345   0.964  1.00  0.00     0.130 C 
ATOM      3  C   UNL     1       5.363   0.230   1.919  1.00  0.00     0.087 C 
ATOM      4  O   UNL     1       4.342   2.220   1.308  1.00  0.00    -0.300 OA
ENDBRANCH   1   2
BRANCH   1   5
ATOM      5  C   UNL     1       7.280   1.114  -0.236  1.00  0.00     0.043 C 
BRANCH   5   6
ATOM      6  C   UNL     1       7.641  -0.178  -0.846  1.00  0.00    -0.044 A 
ATOM      7  C   UNL     1       7.717  -0.337  -2.235  1.00  0.00     0.008 A 
ATOM      8  C   UNL     1       7.916  -1.260  -0.041  1.00  0.00     0.054 A 
ATOM      9  C   UNL     1       8.063  -1.572  -2.751  1.00  0.00     0.051 A 
ATOM     10  C   UNL     1       8.265  -2.507  -0.568  1.00  0.00     0.166 A 
ATOM     11  C   UNL     1       8.339  -2.664  -1.934  1.00  0.00     0.165 A 
ATOM     12  O   UNL     1       8.579  -3.717   0.013  1.00  0.00    -0.454 OA
ATOM     13  O   UNL     1       8.701  -3.982  -2.166  1.00  0.00    -0.454 OA
ATOM     14  C   UNL     1       8.952  -4.661  -0.959  1.00  0.00     0.468 C 
ENDBRANCH   5   6
ENDBRANCH   1   5
TORSDOF 3
ENDMDL
