MODEL 1
REMARK VINA RESULT:      -7.6      0.000      0.000
REMARK SMILES CC(=O)CCc1ccc2c(c1)OCO2
REMARK SMILES IDX 4 1 2 2 1 3 3 4 5 5 6 6 7 7 11 8 8 9 10 10 9 11 12 12 14 13
REMARK SMILES IDX 13 14
REMARK H PARENT
REMARK Flexibility Score: inf
ROOT
ATOM      1  C   UNL     1       5.543   1.906   1.278  1.00  0.00     0.080 C 
ENDROOT
BRANCH   1   2
ATOM      2  C   UNL     1       5.108   0.685   2.011  1.00  0.00     0.130 C 
ATOM      3  C   UNL     1       6.008  -0.487   2.180  1.00  0.00     0.087 C 
ATOM      4  O   UNL     1       3.991   0.611   2.497  1.00  0.00    -0.300 OA
ENDBRANCH   1   2
BRANCH   1   5
ATOM      5  C   UNL     1       5.414   1.723  -0.222  1.00  0.00     0.043 C 
BRANCH   5   6
ATOM      6  C   UNL     1       6.579   1.021  -0.789  1.00  0.00    -0.044 A 
ATOM      7  C   UNL     1       7.888   1.450  -0.538  1.00  0.00     0.008 A 
ATOM      8  C   UNL     1       6.387  -0.087  -1.583  1.00  0.00     0.054 A 
ATOM      9  C   UNL     1       8.942   0.750  -1.096  1.00  0.00     0.051 A 
ATOM     10  C   UNL     1       7.457  -0.791  -2.145  1.00  0.00     0.166 A 
ATOM     11  C   UNL     1       8.744  -0.369  -1.899  1.00  0.00     0.165 A 
ATOM     12  O   UNL     1       7.526  -1.904  -2.956  1.00  0.00    -0.454 OA
ATOM     13  O   UNL     1       9.587  -1.240  -2.571  1.00  0.00    -0.454 OA
ATOM     14  C   UNL     1       8.861  -2.282  -3.180  1.00  0.00     0.468 C 
ENDBRANCH   5   6
ENDBRANCH   1   5
TORSDOF 3
ENDMDL
MODEL 2
REMARK VINA RESULT:      -7.4      1.938      2.417
REMARK SMILES CC(=O)CCc1ccc2c(c1)OCO2
REMARK SMILES IDX 4 1 2 2 1 3 3 4 5 5 6 6 7 7 11 8 8 9 10 10 9 11 12 12 14 13
REMARK SMILES IDX 13 14
REMARK H PARENT
REMARK Flexibility Score: inf
ROOT
ATOM      1  C   UNL     1       5.770   1.347  -0.318  1.00  0.00     0.080 C 
ENDROOT
BRANCH   1   2
ATOM      2  C   UNL     1       5.171   1.304   1.045  1.00  0.00     0.130 C 
ATOM      3  C   UNL     1       5.372   0.141   1.950  1.00  0.00     0.087 C 
ATOM      4  O   UNL     1       4.491   2.229   1.460  1.00  0.00    -0.300 OA
ENDBRANCH   1   2
BRANCH   1   5
ATOM      5  C   UNL     1       7.264   1.092  -0.270  1.00  0.00     0.043 C 
BRANCH   5   6
ATOM      6  C   UNL     1       7.616  -0.206  -0.873  1.00  0.00    -0.044 A 
ATOM      7  C   UNL     1       7.641  -0.388  -2.260  1.00  0.00     0.008 A 
ATOM      8  C   UNL     1       7.931  -1.272  -0.061  1.00  0.00     0.054 A 
ATOM      9  C   UNL     1       7.980  -1.629  -2.769  1.00  0.00     0.051 A 
ATOM     10  C   UNL     1       8.273  -2.524  -0.580  1.00  0.00     0.166 A 
ATOM     11  C   UNL     1       8.297  -2.704  -1.945  1.00  0.00     0.165 A 
ATOM     12  O   UNL     1       8.621  -3.722   0.008  1.00  0.00    -0.454 OA
ATOM     13  O   UNL     1       8.664  -4.022  -2.169  1.00  0.00    -0.454 OA
ATOM     14  C   UNL     1       8.966  -4.678  -0.961  1.00  0.00     0.468 C 
ENDBRANCH   5   6
ENDBRANCH   1   5
TORSDOF 3
ENDMDL
MODEL 3
REMARK VINA RESULT:      -7.2      2.204      2.722
REMARK SMILES CC(=O)CCc1ccc2c(c1)OCO2
REMARK SMILES IDX 4 1 2 2 1 3 3 4 5 5 6 6 7 7 11 8 8 9 10 10 9 11 12 12 14 13
REMARK SMILES IDX 13 14
REMARK H PARENT
REMARK Flexibility Score: inf
ROOT
ATOM      1  C   UNL     1       5.637   1.311  -0.529  1.00  0.00     0.080 C 
ENDROOT
BRANCH   1   2
ATOM      2  C   UNL     1       5.379   2.293   0.560  1.00  0.00     0.130 C 
ATOM      3  C   UNL     1       6.129   3.575   0.650  1.00  0.00     0.087 C 
ATOM      4  O   UNL     1       4.539   2.072   1.417  1.00  0.00    -0.300 OA
ENDBRANCH   1   2
BRANCH   1   5
ATOM      5  C   UNL     1       7.123   1.129  -0.766  1.00  0.00     0.043 C 
BRANCH   5   6
ATOM      6  C   UNL     1       7.563  -0.241  -0.447  1.00  0.00    -0.044 A 
ATOM      7  C   UNL     1       7.723  -0.671   0.875  1.00  0.00     0.008 A 
ATOM      8  C   UNL     1       7.823  -1.128  -1.467  1.00  0.00     0.054 A 
ATOM      9  C   UNL     1       8.137  -1.969   1.113  1.00  0.00     0.051 A 
ATOM     10  C   UNL     1       8.242  -2.440  -1.221  1.00  0.00     0.166 A 
ATOM     11  C   UNL     1       8.400  -2.863   0.080  1.00  0.00     0.165 A 
ATOM     12  O   UNL     1       8.560  -3.495  -2.049  1.00  0.00    -0.454 OA
ATOM     13  O   UNL     1       8.816  -4.184   0.023  1.00  0.00    -0.454 OA
ATOM     14  C   UNL     1       8.842  -4.652  -1.304  1.00  0.00     0.468 C 
ENDBRANCH   5   6
ENDBRANCH   1   5
TORSDOF 3
ENDMDL
