@<TRIPOS>MOLECULE
/home/cewinharhar/GITHUB/reincatalyze/data/processed/docking_pred/2023-May-22-1531_sub9_nm5_bs15_s42_ex16_mel10_mts1000_k50_ec02_g099_lra9e-4_lrc1e-3/12e5788d749ca0b681d4f032b25b6d257325d045_ligand_9.pdbqt
 14 15 0 0 0
SMALL
GASTEIGER

@<TRIPOS>ATOM
      1  C          5.7700    1.3470   -0.3180 C.3     1  UNL1        0.0800
      2  C          5.1710    1.3040    1.0450 C.2     1  UNL1        0.1300
      3  C          5.3720    0.1410    1.9500 C.3     1  UNL1        0.0870
      4  O          4.4910    2.2290    1.4600 O.2     1  UNL1       -0.3000
      5  C          7.2640    1.0920   -0.2700 C.3     1  UNL1        0.0430
      6  C          7.6160   -0.2060   -0.8730 C.2     1  UNL1       -0.0440
      7  C          7.6410   -0.3880   -2.2600 C.2     1  UNL1        0.0080
      8  C          7.9310   -1.2720   -0.0610 C.2     1  UNL1        0.0540
      9  C          7.9800   -1.6290   -2.7690 C.2     1  UNL1        0.0510
     10  C          8.2730   -2.5240   -0.5800 C.2     1  UNL1        0.1660
     11  C          8.2970   -2.7040   -1.9450 C.2     1  UNL1        0.1650
     12  O          8.6210   -3.7220    0.0080 O.2     1  UNL1       -0.4540
     13  O          8.6640   -4.0220   -2.1690 O.2     1  UNL1       -0.4540
     14  C          8.9660   -4.6780   -0.9610 C.3     1  UNL1        0.4680
@<TRIPOS>BOND
     1     9     7    1
     2     9    11    2
     3     7     6    2
     4    13    11    1
     5    13    14    1
     6    11    10    1
     7    14    12    1
     8     6     5    1
     9     6     8    1
    10    10     8    2
    11    10    12    1
    12     1     5    1
    13     1     2    1
    14     2     4    2
    15     2     3    1
