@<TRIPOS>MOLECULE
/home/cewinharhar/GITHUB/reincatalyze/data/processed/docking_pred/2023-May-22-1531_sub9_nm5_bs15_s42_ex16_mel10_mts1000_k50_ec02_g099_lra9e-4_lrc1e-3/12e5788d749ca0b681d4f032b25b6d257325d045_ligand_9.pdbqt
 14 15 0 0 0
SMALL
GASTEIGER

@<TRIPOS>ATOM
      1  C          5.6370    1.3110   -0.5290 C.3     1  UNL1        0.0800
      2  C          5.3790    2.2930    0.5600 C.2     1  UNL1        0.1300
      3  C          6.1290    3.5750    0.6500 C.3     1  UNL1        0.0870
      4  O          4.5390    2.0720    1.4170 O.2     1  UNL1       -0.3000
      5  C          7.1230    1.1290   -0.7660 C.3     1  UNL1        0.0430
      6  C          7.5630   -0.2410   -0.4470 C.2     1  UNL1       -0.0440
      7  C          7.7230   -0.6710    0.8750 C.2     1  UNL1        0.0080
      8  C          7.8230   -1.1280   -1.4670 C.2     1  UNL1        0.0540
      9  C          8.1370   -1.9690    1.1130 C.2     1  UNL1        0.0510
     10  C          8.2420   -2.4400   -1.2210 C.2     1  UNL1        0.1660
     11  C          8.4000   -2.8630    0.0800 C.2     1  UNL1        0.1650
     12  O          8.5600   -3.4950   -2.0490 O.2     1  UNL1       -0.4540
     13  O          8.8160   -4.1840    0.0230 O.2     1  UNL1       -0.4540
     14  C          8.8420   -4.6520   -1.3040 C.3     1  UNL1        0.4680
@<TRIPOS>BOND
     1    12    14    1
     2    12    10    1
     3     8    10    1
     4     8     6    2
     5    14    13    1
     6    10    11    2
     7     5     1    1
     8     5     6    1
     9     1     2    1
    10     6     7    1
    11    13    11    1
    12    11     9    1
    13     2     3    1
    14     2     4    2
    15     7     9    2
