@<TRIPOS>MOLECULE
/home/cewinharhar/GITHUB/reincatalyze/data/processed/docking_pred/2023-May-22-1531_sub9_nm5_bs15_s42_ex16_mel10_mts1000_k50_ec02_g099_lra9e-4_lrc1e-3/13e8c6f9c16a4fbf8ad14846e02839591438c51f_ligand_9.pdbqt
 14 15 0 0 0
SMALL
GASTEIGER

@<TRIPOS>ATOM
      1  C          5.7920    1.3780   -0.3570 C.3     1  UNL1        0.0800
      2  C          5.1490    1.3290    0.9850 C.2     1  UNL1        0.1300
      3  C          5.4120    0.2170    1.9370 C.3     1  UNL1        0.0870
      4  O          4.3810    2.2060    1.3450 O.2     1  UNL1       -0.3000
      5  C          7.2760    1.0820   -0.2680 C.3     1  UNL1        0.0430
      6  C          7.6120   -0.2170   -0.8760 C.2     1  UNL1       -0.0440
      7  C          7.6110   -0.3990   -2.2640 C.2     1  UNL1        0.0080
      8  C          7.9380   -1.2840   -0.0700 C.2     1  UNL1        0.0540
      9  C          7.9350   -1.6410   -2.7780 C.2     1  UNL1        0.0510
     10  C          8.2660   -2.5380   -0.5950 C.2     1  UNL1        0.1660
     11  C          8.2640   -2.7180   -1.9610 C.2     1  UNL1        0.1650
     12  O          8.6200   -3.7370   -0.0140 O.2     1  UNL1       -0.4540
     13  O          8.6210   -4.0370   -2.1910 O.2     1  UNL1       -0.4540
     14  C          8.9440   -4.6940   -0.9890 C.3     1  UNL1        0.4680
@<TRIPOS>BOND
     1     9     7    1
     2     9    11    2
     3     7     6    2
     4    13    11    1
     5    13    14    1
     6    11    10    1
     7    14    12    1
     8     6     5    1
     9     6     8    1
    10    10     8    2
    11    10    12    1
    12     1     5    1
    13     1     2    1
    14     2     4    2
    15     2     3    1
