MODEL 1
REMARK VINA RESULT:      -8.0      0.000      0.000
REMARK SMILES CC(=O)CCc1ccc2c(c1)OCO2
REMARK SMILES IDX 4 1 2 2 1 3 3 4 5 5 6 6 7 7 11 8 8 9 10 10 9 11 12 12 14 13
REMARK SMILES IDX 13 14
REMARK H PARENT
REMARK Flexibility Score: inf
ROOT
ATOM      1  C   UNL     1       5.467   2.905   0.149  1.00  0.00     0.080 C 
ENDROOT
BRANCH   1   2
ATOM      2  C   UNL     1       6.279   3.838   0.980  1.00  0.00     0.130 C 
ATOM      3  C   UNL     1       7.260   4.774   0.370  1.00  0.00     0.087 C 
ATOM      4  O   UNL     1       6.160   3.859   2.195  1.00  0.00    -0.300 OA
ENDBRANCH   1   2
BRANCH   1   5
ATOM      5  C   UNL     1       5.210   1.601   0.878  1.00  0.00     0.043 C 
BRANCH   5   6
ATOM      6  C   UNL     1       6.032   0.502   0.340  1.00  0.00    -0.044 A 
ATOM      7  C   UNL     1       6.404  -0.590   1.131  1.00  0.00     0.008 A 
ATOM      8  C   UNL     1       6.446   0.540  -0.972  1.00  0.00     0.054 A 
ATOM      9  C   UNL     1       7.176  -1.592   0.572  1.00  0.00     0.051 A 
ATOM     10  C   UNL     1       7.226  -0.476  -1.533  1.00  0.00     0.166 A 
ATOM     11  C   UNL     1       7.594  -1.550  -0.755  1.00  0.00     0.165 A 
ATOM     12  O   UNL     1       7.757  -0.667  -2.791  1.00  0.00    -0.454 OA
ATOM     13  O   UNL     1       8.351  -2.388  -1.559  1.00  0.00    -0.454 OA
ATOM     14  C   UNL     1       8.403  -1.911  -2.883  1.00  0.00     0.468 C 
ENDBRANCH   5   6
ENDBRANCH   1   5
TORSDOF 3
ENDMDL
MODEL 2
REMARK VINA RESULT:      -7.7      1.891      2.631
REMARK SMILES CC(=O)CCc1ccc2c(c1)OCO2
REMARK SMILES IDX 4 1 2 2 1 3 3 4 5 5 6 6 7 7 11 8 8 9 10 10 9 11 12 12 14 13
REMARK SMILES IDX 13 14
REMARK H PARENT
REMARK Flexibility Score: inf
ROOT
ATOM      1  C   UNL     1       5.535   1.920   1.265  1.00  0.00     0.080 C 
ENDROOT
BRANCH   1   2
ATOM      2  C   UNL     1       5.105   0.701   2.006  1.00  0.00     0.130 C 
ATOM      3  C   UNL     1       6.013  -0.463   2.188  1.00  0.00     0.087 C 
ATOM      4  O   UNL     1       3.987   0.623   2.488  1.00  0.00    -0.300 OA
ENDBRANCH   1   2
BRANCH   1   5
ATOM      5  C   UNL     1       5.407   1.727  -0.233  1.00  0.00     0.043 C 
BRANCH   5   6
ATOM      6  C   UNL     1       6.573   1.023  -0.795  1.00  0.00    -0.044 A 
ATOM      7  C   UNL     1       7.881   1.451  -0.540  1.00  0.00     0.008 A 
ATOM      8  C   UNL     1       6.383  -0.085  -1.590  1.00  0.00     0.054 A 
ATOM      9  C   UNL     1       8.937   0.750  -1.095  1.00  0.00     0.051 A 
ATOM     10  C   UNL     1       7.454  -0.790  -2.147  1.00  0.00     0.166 A 
ATOM     11  C   UNL     1       8.741  -0.369  -1.898  1.00  0.00     0.165 A 
ATOM     12  O   UNL     1       7.526  -1.903  -2.957  1.00  0.00    -0.454 OA
ATOM     13  O   UNL     1       9.585  -1.242  -2.566  1.00  0.00    -0.454 OA
ATOM     14  C   UNL     1       8.860  -2.283  -3.176  1.00  0.00     0.468 C 
ENDBRANCH   5   6
ENDBRANCH   1   5
TORSDOF 3
ENDMDL
MODEL 3
REMARK VINA RESULT:      -7.5      1.972      3.015
REMARK SMILES CC(=O)CCc1ccc2c(c1)OCO2
REMARK SMILES IDX 4 1 2 2 1 3 3 4 5 5 6 6 7 7 11 8 8 9 10 10 9 11 12 12 14 13
REMARK SMILES IDX 13 14
REMARK H PARENT
REMARK Flexibility Score: inf
ROOT
ATOM      1  C   UNL     1       5.792   1.378  -0.357  1.00  0.00     0.080 C 
ENDROOT
BRANCH   1   2
ATOM      2  C   UNL     1       5.149   1.329   0.985  1.00  0.00     0.130 C 
ATOM      3  C   UNL     1       5.412   0.217   1.937  1.00  0.00     0.087 C 
ATOM      4  O   UNL     1       4.381   2.206   1.345  1.00  0.00    -0.300 OA
ENDBRANCH   1   2
BRANCH   1   5
ATOM      5  C   UNL     1       7.276   1.082  -0.268  1.00  0.00     0.043 C 
BRANCH   5   6
ATOM      6  C   UNL     1       7.612  -0.217  -0.876  1.00  0.00    -0.044 A 
ATOM      7  C   UNL     1       7.611  -0.399  -2.264  1.00  0.00     0.008 A 
ATOM      8  C   UNL     1       7.938  -1.284  -0.070  1.00  0.00     0.054 A 
ATOM      9  C   UNL     1       7.935  -1.641  -2.778  1.00  0.00     0.051 A 
ATOM     10  C   UNL     1       8.266  -2.538  -0.595  1.00  0.00     0.166 A 
ATOM     11  C   UNL     1       8.264  -2.718  -1.961  1.00  0.00     0.165 A 
ATOM     12  O   UNL     1       8.620  -3.737  -0.014  1.00  0.00    -0.454 OA
ATOM     13  O   UNL     1       8.621  -4.037  -2.191  1.00  0.00    -0.454 OA
ATOM     14  C   UNL     1       8.944  -4.694  -0.989  1.00  0.00     0.468 C 
ENDBRANCH   5   6
ENDBRANCH   1   5
TORSDOF 3
ENDMDL
