@<TRIPOS>MOLECULE
/home/cewinharhar/GITHUB/reincatalyze/data/processed/docking_pred/2023-May-22-1531_sub9_nm5_bs15_s42_ex16_mel10_mts1000_k50_ec02_g099_lra9e-4_lrc1e-3/13e8c6f9c16a4fbf8ad14846e02839591438c51f_ligand_9.pdbqt
 14 15 0 0 0
SMALL
GASTEIGER

@<TRIPOS>ATOM
      1  C          5.4670    2.9050    0.1490 C.3     1  UNL1        0.0800
      2  C          6.2790    3.8380    0.9800 C.2     1  UNL1        0.1300
      3  C          7.2600    4.7740    0.3700 C.3     1  UNL1        0.0870
      4  O          6.1600    3.8590    2.1950 O.2     1  UNL1       -0.3000
      5  C          5.2100    1.6010    0.8780 C.3     1  UNL1        0.0430
      6  C          6.0320    0.5020    0.3400 C.2     1  UNL1       -0.0440
      7  C          6.4040   -0.5900    1.1310 C.2     1  UNL1        0.0080
      8  C          6.4460    0.5400   -0.9720 C.2     1  UNL1        0.0540
      9  C          7.1760   -1.5920    0.5720 C.2     1  UNL1        0.0510
     10  C          7.2260   -0.4760   -1.5330 C.2     1  UNL1        0.1660
     11  C          7.5940   -1.5500   -0.7550 C.2     1  UNL1        0.1650
     12  O          7.7570   -0.6670   -2.7910 O.2     1  UNL1       -0.4540
     13  O          8.3510   -2.3880   -1.5590 O.2     1  UNL1       -0.4540
     14  C          8.4030   -1.9110   -2.8830 C.3     1  UNL1        0.4680
@<TRIPOS>BOND
     1    14    12    1
     2    14    13    1
     3    12    10    1
     4    13    11    1
     5    10     8    1
     6    10    11    2
     7     8     6    2
     8    11     9    1
     9     1     5    1
    10     1     2    1
    11     6     5    1
    12     6     7    1
    13     3     2    1
    14     9     7    2
    15     2     4    2
