@<TRIPOS>MOLECULE
/home/cewinharhar/GITHUB/reincatalyze/data/processed/docking_pred/2023-May-22-1531_sub9_nm5_bs15_s42_ex16_mel10_mts1000_k50_ec02_g099_lra9e-4_lrc1e-3/141be626e2cd6ba8f6b8a46d6dbef4dd02701a2b_ligand_9.pdbqt
 14 15 0 0 0
SMALL
GASTEIGER

@<TRIPOS>ATOM
      1  C          5.4750    2.8800    0.0890 C.3     1  UNL1        0.0800
      2  C          6.2170    3.7650    1.0290 C.2     1  UNL1        0.1300
      3  C          7.1970    4.7740    0.5440 C.3     1  UNL1        0.0870
      4  O          6.0410    3.6870    2.2340 O.2     1  UNL1       -0.3000
      5  C          5.1590    1.5420    0.7260 C.3     1  UNL1        0.0430
      6  C          6.0250    0.4690    0.2020 C.2     1  UNL1       -0.0440
      7  C          6.3710   -0.6390    0.9830 C.2     1  UNL1        0.0080
      8  C          6.5070    0.5490   -1.0850 C.2     1  UNL1        0.0540
      9  C          7.1860   -1.6150    0.4380 C.2     1  UNL1        0.0510
     10  C          7.3290   -0.4410   -1.6310 C.2     1  UNL1        0.1660
     11  C          7.6720   -1.5310   -0.8630 C.2     1  UNL1        0.1650
     12  O          7.9280   -0.5890   -2.8640 O.2     1  UNL1       -0.4540
     13  O          8.4820   -2.3360   -1.6490 O.2     1  UNL1       -0.4540
     14  C          8.5960   -1.8220   -2.9550 C.3     1  UNL1        0.4680
@<TRIPOS>BOND
     1    14    12    1
     2    14    13    1
     3    12    10    1
     4    13    11    1
     5    10     8    1
     6    10    11    2
     7     8     6    2
     8    11     9    1
     9     1     5    1
    10     1     2    1
    11     6     5    1
    12     6     7    1
    13     9     7    2
    14     3     2    1
    15     2     4    2
