@<TRIPOS>MOLECULE
/home/cewinharhar/GITHUB/reincatalyze/data/processed/docking_pred/2023-May-22-1531_sub9_nm5_bs15_s42_ex16_mel10_mts1000_k50_ec02_g099_lra9e-4_lrc1e-3/141be626e2cd6ba8f6b8a46d6dbef4dd02701a2b_ligand_9.pdbqt
 14 15 0 0 0
SMALL
GASTEIGER

@<TRIPOS>ATOM
      1  C          5.3860    2.8500    0.2220 C.3     1  UNL1        0.0800
      2  C          6.1450    3.8140    1.0660 C.2     1  UNL1        0.1300
      3  C          7.1150    4.7750    0.4750 C.3     1  UNL1        0.0870
      4  O          5.9920    3.8420    2.2770 O.2     1  UNL1       -0.3000
      5  C          5.2160    1.5180    0.9240 C.3     1  UNL1        0.0430
      6  C          6.0510    0.4680    0.3140 C.2     1  UNL1       -0.0440
      7  C          6.4320    0.5240   -1.0310 C.2     1  UNL1        0.0080
      8  C          6.4750   -0.5960    1.0780 C.2     1  UNL1        0.0540
      9  C          7.2180   -0.4900   -1.5490 C.2     1  UNL1        0.0510
     10  C          7.2700   -1.6180    0.5500 C.2     1  UNL1        0.1660
     11  C          7.6440   -1.5640   -0.7740 C.2     1  UNL1        0.1650
     12  O          7.8110   -2.7630    1.0940 O.2     1  UNL1       -0.4540
     13  O          8.4160   -2.6890   -1.0190 O.2     1  UNL1       -0.4540
     14  C          8.6220   -3.4300    0.1610 C.3     1  UNL1        0.4680
@<TRIPOS>BOND
     1     9     7    1
     2     9    11    2
     3     7     6    2
     4    13    11    1
     5    13    14    1
     6    11    10    1
     7    14    12    1
     8     1     5    1
     9     1     2    1
    10     6     5    1
    11     6     8    1
    12     3     2    1
    13    10     8    2
    14    10    12    1
    15     2     4    2
