MODEL 1
REMARK VINA RESULT:      -7.9      0.000      0.000
REMARK SMILES CC(=O)CCc1ccc2c(c1)OCO2
REMARK SMILES IDX 4 1 2 2 1 3 3 4 5 5 6 6 7 7 11 8 8 9 10 10 9 11 12 12 14 13
REMARK SMILES IDX 13 14
REMARK H PARENT
REMARK Flexibility Score: inf
ROOT
ATOM      1  C   UNL     1       5.924   1.783   1.141  1.00  0.00     0.080 C 
ENDROOT
BRANCH   1   2
ATOM      2  C   UNL     1       5.437   0.709   2.052  1.00  0.00     0.130 C 
ATOM      3  C   UNL     1       6.322  -0.402   2.492  1.00  0.00     0.087 C 
ATOM      4  O   UNL     1       4.288   0.711   2.465  1.00  0.00    -0.300 OA
ENDBRANCH   1   2
BRANCH   1   5
ATOM      5  C   UNL     1       5.638   1.446  -0.309  1.00  0.00     0.043 C 
BRANCH   5   6
ATOM      6  C   UNL     1       6.752   0.707  -0.928  1.00  0.00    -0.044 A 
ATOM      7  C   UNL     1       8.083   1.103  -0.751  1.00  0.00     0.008 A 
ATOM      8  C   UNL     1       6.490  -0.403  -1.699  1.00  0.00     0.054 A 
ATOM      9  C   UNL     1       9.088   0.370  -1.356  1.00  0.00     0.051 A 
ATOM     10  C   UNL     1       7.509  -1.141  -2.308  1.00  0.00     0.166 A 
ATOM     11  C   UNL     1       8.819  -0.751  -2.135  1.00  0.00     0.165 A 
ATOM     12  O   UNL     1       7.507  -2.263  -3.109  1.00  0.00    -0.454 OA
ATOM     13  O   UNL     1       9.601  -1.652  -2.840  1.00  0.00    -0.454 OA
ATOM     14  C   UNL     1       8.817  -2.679  -3.398  1.00  0.00     0.468 C 
ENDBRANCH   5   6
ENDBRANCH   1   5
TORSDOF 3
ENDMDL
MODEL 2
REMARK VINA RESULT:      -7.6      1.896      2.573
REMARK SMILES CC(=O)CCc1ccc2c(c1)OCO2
REMARK SMILES IDX 4 1 2 2 1 3 3 4 5 5 6 6 7 7 11 8 8 9 10 10 9 11 12 12 14 13
REMARK SMILES IDX 13 14
REMARK H PARENT
REMARK Flexibility Score: inf
ROOT
ATOM      1  C   UNL     1       5.475   2.880   0.089  1.00  0.00     0.080 C 
ENDROOT
BRANCH   1   2
ATOM      2  C   UNL     1       6.217   3.765   1.029  1.00  0.00     0.130 C 
ATOM      3  C   UNL     1       7.197   4.774   0.544  1.00  0.00     0.087 C 
ATOM      4  O   UNL     1       6.041   3.687   2.234  1.00  0.00    -0.300 OA
ENDBRANCH   1   2
BRANCH   1   5
ATOM      5  C   UNL     1       5.159   1.542   0.726  1.00  0.00     0.043 C 
BRANCH   5   6
ATOM      6  C   UNL     1       6.025   0.469   0.202  1.00  0.00    -0.044 A 
ATOM      7  C   UNL     1       6.371  -0.639   0.983  1.00  0.00     0.008 A 
ATOM      8  C   UNL     1       6.507   0.549  -1.085  1.00  0.00     0.054 A 
ATOM      9  C   UNL     1       7.186  -1.615   0.438  1.00  0.00     0.051 A 
ATOM     10  C   UNL     1       7.329  -0.441  -1.631  1.00  0.00     0.166 A 
ATOM     11  C   UNL     1       7.672  -1.531  -0.863  1.00  0.00     0.165 A 
ATOM     12  O   UNL     1       7.928  -0.589  -2.864  1.00  0.00    -0.454 OA
ATOM     13  O   UNL     1       8.482  -2.336  -1.649  1.00  0.00    -0.454 OA
ATOM     14  C   UNL     1       8.596  -1.822  -2.955  1.00  0.00     0.468 C 
ENDBRANCH   5   6
ENDBRANCH   1   5
TORSDOF 3
ENDMDL
MODEL 3
REMARK VINA RESULT:      -7.4      2.383      3.000
REMARK SMILES CC(=O)CCc1ccc2c(c1)OCO2
REMARK SMILES IDX 4 1 2 2 1 3 3 4 5 5 6 6 7 7 11 8 8 9 10 10 9 11 12 12 14 13
REMARK SMILES IDX 13 14
REMARK H PARENT
REMARK Flexibility Score: inf
ROOT
ATOM      1  C   UNL     1       5.386   2.850   0.222  1.00  0.00     0.080 C 
ENDROOT
BRANCH   1   2
ATOM      2  C   UNL     1       6.145   3.814   1.066  1.00  0.00     0.130 C 
ATOM      3  C   UNL     1       7.115   4.775   0.475  1.00  0.00     0.087 C 
ATOM      4  O   UNL     1       5.992   3.842   2.277  1.00  0.00    -0.300 OA
ENDBRANCH   1   2
BRANCH   1   5
ATOM      5  C   UNL     1       5.216   1.518   0.924  1.00  0.00     0.043 C 
BRANCH   5   6
ATOM      6  C   UNL     1       6.051   0.468   0.314  1.00  0.00    -0.044 A 
ATOM      7  C   UNL     1       6.432   0.524  -1.031  1.00  0.00     0.008 A 
ATOM      8  C   UNL     1       6.475  -0.596   1.078  1.00  0.00     0.054 A 
ATOM      9  C   UNL     1       7.218  -0.490  -1.549  1.00  0.00     0.051 A 
ATOM     10  C   UNL     1       7.270  -1.618   0.550  1.00  0.00     0.166 A 
ATOM     11  C   UNL     1       7.644  -1.564  -0.774  1.00  0.00     0.165 A 
ATOM     12  O   UNL     1       7.811  -2.763   1.094  1.00  0.00    -0.454 OA
ATOM     13  O   UNL     1       8.416  -2.689  -1.019  1.00  0.00    -0.454 OA
ATOM     14  C   UNL     1       8.622  -3.430   0.161  1.00  0.00     0.468 C 
ENDBRANCH   5   6
ENDBRANCH   1   5
TORSDOF 3
ENDMDL
