@<TRIPOS>MOLECULE
/home/cewinharhar/GITHUB/reincatalyze/data/processed/docking_pred/2023-May-22-1531_sub9_nm5_bs15_s42_ex16_mel10_mts1000_k50_ec02_g099_lra9e-4_lrc1e-3/141be626e2cd6ba8f6b8a46d6dbef4dd02701a2b_ligand_9.pdbqt
 14 15 0 0 0
SMALL
GASTEIGER

@<TRIPOS>ATOM
      1  C          5.9240    1.7830    1.1410 C.3     1  UNL1        0.0800
      2  C          5.4370    0.7090    2.0520 C.2     1  UNL1        0.1300
      3  C          6.3220   -0.4020    2.4920 C.3     1  UNL1        0.0870
      4  O          4.2880    0.7110    2.4650 O.2     1  UNL1       -0.3000
      5  C          5.6380    1.4460   -0.3090 C.3     1  UNL1        0.0430
      6  C          6.7520    0.7070   -0.9280 C.2     1  UNL1       -0.0440
      7  C          8.0830    1.1030   -0.7510 C.2     1  UNL1        0.0080
      8  C          6.4900   -0.4030   -1.6990 C.2     1  UNL1        0.0540
      9  C          9.0880    0.3700   -1.3560 C.2     1  UNL1        0.0510
     10  C          7.5090   -1.1410   -2.3080 C.2     1  UNL1        0.1660
     11  C          8.8190   -0.7510   -2.1350 C.2     1  UNL1        0.1650
     12  O          7.5070   -2.2630   -3.1090 O.2     1  UNL1       -0.4540
     13  O          9.6010   -1.6520   -2.8400 O.2     1  UNL1       -0.4540
     14  C          8.8170   -2.6790   -3.3980 C.3     1  UNL1        0.4680
@<TRIPOS>BOND
     1    14    12    1
     2    14    13    1
     3    12    10    1
     4    13    11    1
     5    10    11    2
     6    10     8    1
     7    11     9    1
     8     8     6    2
     9     9     7    2
    10     6     7    1
    11     6     5    1
    12     5     1    1
    13     1     2    1
    14     2     4    2
    15     2     3    1
