@<TRIPOS>MOLECULE
/home/cewinharhar/GITHUB/reincatalyze/data/processed/docking_pred/2023-May-22-1531_sub9_nm5_bs15_s42_ex16_mel10_mts1000_k50_ec02_g099_lra9e-4_lrc1e-3/1444e75be78da7e2931ed2b5f85ad252461f0798_ligand_9.pdbqt
 14 15 0 0 0
SMALL
GASTEIGER

@<TRIPOS>ATOM
      1  C          5.3300    3.0000    0.1100 C.3     1  UNL1        0.0800
      2  C          6.2730    3.7900    0.9500 C.2     1  UNL1        0.1300
      3  C          7.2140    4.7750    0.3530 C.3     1  UNL1        0.0870
      4  O          6.3000    3.6490    2.1620 O.2     1  UNL1       -0.3000
      5  C          5.0190    1.6590    0.7440 C.3     1  UNL1        0.0430
      6  C          5.8790    0.5880    0.2070 C.2     1  UNL1       -0.0440
      7  C          6.2810    0.5740   -1.1330 C.2     1  UNL1        0.0080
      8  C          6.3040   -0.4250    1.0360 C.2     1  UNL1        0.0540
      9  C          7.0890   -0.4560   -1.5800 C.2     1  UNL1        0.0510
     10  C          7.1220   -1.4630    0.5790 C.2     1  UNL1        0.1660
     11  C          7.5170   -1.4790   -0.7400 C.2     1  UNL1        0.1650
     12  O          7.6690   -2.5680    1.1950 O.2     1  UNL1       -0.4540
     13  O          8.3080   -2.6050   -0.9080 O.2     1  UNL1       -0.4540
     14  C          8.5050   -3.2750    0.3140 C.3     1  UNL1        0.4680
@<TRIPOS>BOND
     1     9     7    1
     2     9    11    2
     3     7     6    2
     4    13    11    1
     5    13    14    1
     6    11    10    1
     7     1     5    1
     8     1     2    1
     9     6     5    1
    10     6     8    1
    11    14    12    1
    12     3     2    1
    13    10     8    2
    14    10    12    1
    15     2     4    2
