MODEL 1
REMARK VINA RESULT:      -7.9      0.000      0.000
REMARK SMILES CC(=O)CCc1ccc2c(c1)OCO2
REMARK SMILES IDX 4 1 2 2 1 3 3 4 5 5 6 6 7 7 11 8 8 9 10 10 9 11 12 12 14 13
REMARK SMILES IDX 13 14
REMARK H PARENT
REMARK Flexibility Score: inf
ROOT
ATOM      1  C   UNL     1       5.382   2.933   0.043  1.00  0.00     0.080 C 
ENDROOT
BRANCH   1   2
ATOM      2  C   UNL     1       6.253   3.777   0.908  1.00  0.00     0.130 C 
ATOM      3  C   UNL     1       7.193   4.775   0.332  1.00  0.00     0.087 C 
ATOM      4  O   UNL     1       6.219   3.672   2.123  1.00  0.00    -0.300 OA
ENDBRANCH   1   2
BRANCH   1   5
ATOM      5  C   UNL     1       5.037   1.622   0.721  1.00  0.00     0.043 C 
BRANCH   5   6
ATOM      6  C   UNL     1       5.883   0.517   0.237  1.00  0.00    -0.044 A 
ATOM      7  C   UNL     1       6.183  -0.585   1.046  1.00  0.00     0.008 A 
ATOM      8  C   UNL     1       6.393   0.557  -1.040  1.00  0.00     0.054 A 
ATOM      9  C   UNL     1       6.982  -1.593   0.538  1.00  0.00     0.051 A 
ATOM     10  C   UNL     1       7.200  -0.465  -1.550  1.00  0.00     0.166 A 
ATOM     11  C   UNL     1       7.497  -1.549  -0.754  1.00  0.00     0.165 A 
ATOM     12  O   UNL     1       7.819  -0.654  -2.767  1.00  0.00    -0.454 OA
ATOM     13  O   UNL     1       8.300  -2.391  -1.507  1.00  0.00    -0.454 OA
ATOM     14  C   UNL     1       8.455  -1.906  -2.819  1.00  0.00     0.468 C 
ENDBRANCH   5   6
ENDBRANCH   1   5
TORSDOF 3
ENDMDL
MODEL 2
REMARK VINA RESULT:      -7.8      0.980      1.968
REMARK SMILES CC(=O)CCc1ccc2c(c1)OCO2
REMARK SMILES IDX 4 1 2 2 1 3 3 4 5 5 6 6 7 7 11 8 8 9 10 10 9 11 12 12 14 13
REMARK SMILES IDX 13 14
REMARK H PARENT
REMARK Flexibility Score: inf
ROOT
ATOM      1  C   UNL     1       5.330   3.000   0.110  1.00  0.00     0.080 C 
ENDROOT
BRANCH   1   2
ATOM      2  C   UNL     1       6.273   3.790   0.950  1.00  0.00     0.130 C 
ATOM      3  C   UNL     1       7.214   4.775   0.353  1.00  0.00     0.087 C 
ATOM      4  O   UNL     1       6.300   3.649   2.162  1.00  0.00    -0.300 OA
ENDBRANCH   1   2
BRANCH   1   5
ATOM      5  C   UNL     1       5.019   1.659   0.744  1.00  0.00     0.043 C 
BRANCH   5   6
ATOM      6  C   UNL     1       5.879   0.588   0.207  1.00  0.00    -0.044 A 
ATOM      7  C   UNL     1       6.281   0.574  -1.133  1.00  0.00     0.008 A 
ATOM      8  C   UNL     1       6.304  -0.425   1.036  1.00  0.00     0.054 A 
ATOM      9  C   UNL     1       7.089  -0.456  -1.580  1.00  0.00     0.051 A 
ATOM     10  C   UNL     1       7.122  -1.463   0.579  1.00  0.00     0.166 A 
ATOM     11  C   UNL     1       7.517  -1.479  -0.740  1.00  0.00     0.165 A 
ATOM     12  O   UNL     1       7.669  -2.568   1.195  1.00  0.00    -0.454 OA
ATOM     13  O   UNL     1       8.308  -2.605  -0.908  1.00  0.00    -0.454 OA
ATOM     14  C   UNL     1       8.505  -3.275   0.314  1.00  0.00     0.468 C 
ENDBRANCH   5   6
ENDBRANCH   1   5
TORSDOF 3
ENDMDL
MODEL 3
REMARK VINA RESULT:      -7.6      1.868      2.635
REMARK SMILES CC(=O)CCc1ccc2c(c1)OCO2
REMARK SMILES IDX 4 1 2 2 1 3 3 4 5 5 6 6 7 7 11 8 8 9 10 10 9 11 12 12 14 13
REMARK SMILES IDX 13 14
REMARK H PARENT
REMARK Flexibility Score: inf
ROOT
ATOM      1  C   UNL     1       5.537   1.931   1.274  1.00  0.00     0.080 C 
ENDROOT
BRANCH   1   2
ATOM      2  C   UNL     1       5.096   0.714   2.011  1.00  0.00     0.130 C 
ATOM      3  C   UNL     1       5.998  -0.453   2.201  1.00  0.00     0.087 C 
ATOM      4  O   UNL     1       3.973   0.640   2.483  1.00  0.00    -0.300 OA
ENDBRANCH   1   2
BRANCH   1   5
ATOM      5  C   UNL     1       5.405   1.745  -0.224  1.00  0.00     0.043 C 
BRANCH   5   6
ATOM      6  C   UNL     1       6.567   1.038  -0.791  1.00  0.00    -0.044 A 
ATOM      7  C   UNL     1       7.877   1.467  -0.549  1.00  0.00     0.008 A 
ATOM      8  C   UNL     1       6.371  -0.075  -1.577  1.00  0.00     0.054 A 
ATOM      9  C   UNL     1       8.928   0.763  -1.106  1.00  0.00     0.051 A 
ATOM     10  C   UNL     1       7.438  -0.784  -2.138  1.00  0.00     0.166 A 
ATOM     11  C   UNL     1       8.727  -0.361  -1.901  1.00  0.00     0.165 A 
ATOM     12  O   UNL     1       7.503  -1.903  -2.942  1.00  0.00    -0.454 OA
ATOM     13  O   UNL     1       9.566  -1.238  -2.570  1.00  0.00    -0.454 OA
ATOM     14  C   UNL     1       8.836  -2.283  -3.168  1.00  0.00     0.468 C 
ENDBRANCH   5   6
ENDBRANCH   1   5
TORSDOF 3
ENDMDL
