@<TRIPOS>MOLECULE
/home/cewinharhar/GITHUB/reincatalyze/data/processed/docking_pred/2023-May-22-1531_sub9_nm5_bs15_s42_ex16_mel10_mts1000_k50_ec02_g099_lra9e-4_lrc1e-3/1a0a4210c7fbec369f44508687af2363e72d8760_ligand_9.pdbqt
 14 15 0 0 0
SMALL
GASTEIGER

@<TRIPOS>ATOM
      1  C          5.5210    1.9190    1.2680 C.3     1  UNL1        0.0800
      2  C          5.0720    0.7040    2.0030 C.2     1  UNL1        0.1300
      3  C          5.9550   -0.4820    2.1640 C.3     1  UNL1        0.0870
      4  O          3.9570    0.6470    2.4970 O.2     1  UNL1       -0.3000
      5  C          5.3960    1.7340   -0.2310 C.3     1  UNL1        0.0430
      6  C          6.5640    1.0340   -0.7940 C.2     1  UNL1       -0.0440
      7  C          7.8700    1.4720   -0.5480 C.2     1  UNL1        0.0080
      8  C          6.3780   -0.0800   -1.5810 C.2     1  UNL1        0.0540
      9  C          8.9280    0.7740   -1.1030 C.2     1  UNL1        0.0510
     10  C          7.4500   -0.7820   -2.1390 C.2     1  UNL1        0.1660
     11  C          8.7360   -0.3510   -1.8980 C.2     1  UNL1        0.1650
     12  O          7.5250   -1.9000   -2.9430 O.2     1  UNL1       -0.4540
     13  O          9.5820   -1.2230   -2.5660 O.2     1  UNL1       -0.4540
     14  C          8.8610   -2.2720   -3.1660 C.3     1  UNL1        0.4680
@<TRIPOS>BOND
     1    14    12    1
     2    14    13    1
     3    12    10    1
     4    13    11    1
     5    10    11    2
     6    10     8    1
     7    11     9    1
     8     8     6    2
     9     9     7    2
    10     6     7    1
    11     6     5    1
    12     5     1    1
    13     1     2    1
    14     2     3    1
    15     2     4    2
