MODEL 1
REMARK VINA RESULT:      -7.8      0.000      0.000
REMARK SMILES CC(=O)CCc1ccc2c(c1)OCO2
REMARK SMILES IDX 4 1 2 2 1 3 3 4 5 5 6 6 7 7 11 8 8 9 10 10 9 11 12 12 14 13
REMARK SMILES IDX 13 14
REMARK H PARENT
REMARK Flexibility Score: inf
ROOT
ATOM      1  C   UNL     1       5.361   2.980   0.189  1.00  0.00     0.080 C 
ENDROOT
BRANCH   1   2
ATOM      2  C   UNL     1       6.213   3.904   0.988  1.00  0.00     0.130 C 
ATOM      3  C   UNL     1       7.239   4.770   0.349  1.00  0.00     0.087 C 
ATOM      4  O   UNL     1       6.092   3.977   2.200  1.00  0.00    -0.300 OA
ENDBRANCH   1   2
BRANCH   1   5
ATOM      5  C   UNL     1       5.152   1.663   0.909  1.00  0.00     0.043 C 
BRANCH   5   6
ATOM      6  C   UNL     1       5.973   0.586   0.327  1.00  0.00    -0.044 A 
ATOM      7  C   UNL     1       6.319   0.579  -1.029  1.00  0.00     0.008 A 
ATOM      8  C   UNL     1       6.418  -0.441   1.128  1.00  0.00     0.054 A 
ATOM      9  C   UNL     1       7.093  -0.457  -1.519  1.00  0.00     0.051 A 
ATOM     10  C   UNL     1       7.201  -1.486   0.628  1.00  0.00     0.166 A 
ATOM     11  C   UNL     1       7.541  -1.494  -0.706  1.00  0.00     0.165 A 
ATOM     12  O   UNL     1       7.758  -2.604   1.211  1.00  0.00    -0.454 OA
ATOM     13  O   UNL     1       8.308  -2.629  -0.917  1.00  0.00    -0.454 OA
ATOM     14  C   UNL     1       8.546  -3.313   0.290  1.00  0.00     0.468 C 
ENDBRANCH   5   6
ENDBRANCH   1   5
TORSDOF 3
ENDMDL
MODEL 2
REMARK VINA RESULT:      -7.7      1.002      1.979
REMARK SMILES CC(=O)CCc1ccc2c(c1)OCO2
REMARK SMILES IDX 4 1 2 2 1 3 3 4 5 5 6 6 7 7 11 8 8 9 10 10 9 11 12 12 14 13
REMARK SMILES IDX 13 14
REMARK H PARENT
REMARK Flexibility Score: inf
ROOT
ATOM      1  C   UNL     1       5.507   2.818   0.331  1.00  0.00     0.080 C 
ENDROOT
BRANCH   1   2
ATOM      2  C   UNL     1       6.389   3.739   1.100  1.00  0.00     0.130 C 
ATOM      3  C   UNL     1       7.215   4.775   0.424  1.00  0.00     0.087 C 
ATOM      4  O   UNL     1       6.461   3.669   2.317  1.00  0.00    -0.300 OA
ENDBRANCH   1   2
BRANCH   1   5
ATOM      5  C   UNL     1       5.306   1.507   1.066  1.00  0.00     0.043 C 
BRANCH   5   6
ATOM      6  C   UNL     1       6.123   0.426   0.487  1.00  0.00    -0.044 A 
ATOM      7  C   UNL     1       6.527  -0.676   1.250  1.00  0.00     0.008 A 
ATOM      8  C   UNL     1       6.501   0.489  -0.835  1.00  0.00     0.054 A 
ATOM      9  C   UNL     1       7.292  -1.661   0.652  1.00  0.00     0.051 A 
ATOM     10  C   UNL     1       7.274  -0.509  -1.434  1.00  0.00     0.166 A 
ATOM     11  C   UNL     1       7.673  -1.593  -0.684  1.00  0.00     0.165 A 
ATOM     12  O   UNL     1       7.773  -0.674  -2.709  1.00  0.00    -0.454 OA
ATOM     13  O   UNL     1       8.415  -2.410  -1.523  1.00  0.00    -0.454 OA
ATOM     14  C   UNL     1       8.427  -1.910  -2.839  1.00  0.00     0.468 C 
ENDBRANCH   5   6
ENDBRANCH   1   5
TORSDOF 3
ENDMDL
MODEL 3
REMARK VINA RESULT:      -7.6      2.419      3.070
REMARK SMILES CC(=O)CCc1ccc2c(c1)OCO2
REMARK SMILES IDX 4 1 2 2 1 3 3 4 5 5 6 6 7 7 11 8 8 9 10 10 9 11 12 12 14 13
REMARK SMILES IDX 13 14
REMARK H PARENT
REMARK Flexibility Score: inf
ROOT
ATOM      1  C   UNL     1       5.521   1.919   1.268  1.00  0.00     0.080 C 
ENDROOT
BRANCH   1   2
ATOM      2  C   UNL     1       5.072   0.704   2.003  1.00  0.00     0.130 C 
ATOM      3  C   UNL     1       5.955  -0.482   2.164  1.00  0.00     0.087 C 
ATOM      4  O   UNL     1       3.957   0.647   2.497  1.00  0.00    -0.300 OA
ENDBRANCH   1   2
BRANCH   1   5
ATOM      5  C   UNL     1       5.396   1.734  -0.231  1.00  0.00     0.043 C 
BRANCH   5   6
ATOM      6  C   UNL     1       6.564   1.034  -0.794  1.00  0.00    -0.044 A 
ATOM      7  C   UNL     1       7.870   1.472  -0.548  1.00  0.00     0.008 A 
ATOM      8  C   UNL     1       6.378  -0.080  -1.581  1.00  0.00     0.054 A 
ATOM      9  C   UNL     1       8.928   0.774  -1.103  1.00  0.00     0.051 A 
ATOM     10  C   UNL     1       7.450  -0.782  -2.139  1.00  0.00     0.166 A 
ATOM     11  C   UNL     1       8.736  -0.351  -1.898  1.00  0.00     0.165 A 
ATOM     12  O   UNL     1       7.525  -1.900  -2.943  1.00  0.00    -0.454 OA
ATOM     13  O   UNL     1       9.582  -1.223  -2.566  1.00  0.00    -0.454 OA
ATOM     14  C   UNL     1       8.861  -2.272  -3.166  1.00  0.00     0.468 C 
ENDBRANCH   5   6
ENDBRANCH   1   5
TORSDOF 3
ENDMDL
