@<TRIPOS>MOLECULE
/home/cewinharhar/GITHUB/reincatalyze/data/processed/docking_pred/2023-May-22-1531_sub9_nm5_bs15_s42_ex16_mel10_mts1000_k50_ec02_g099_lra9e-4_lrc1e-3/1a0a4210c7fbec369f44508687af2363e72d8760_ligand_9.pdbqt
 14 15 0 0 0
SMALL
GASTEIGER

@<TRIPOS>ATOM
      1  C          5.5070    2.8180    0.3310 C.3     1  UNL1        0.0800
      2  C          6.3890    3.7390    1.1000 C.2     1  UNL1        0.1300
      3  C          7.2150    4.7750    0.4240 C.3     1  UNL1        0.0870
      4  O          6.4610    3.6690    2.3170 O.2     1  UNL1       -0.3000
      5  C          5.3060    1.5070    1.0660 C.3     1  UNL1        0.0430
      6  C          6.1230    0.4260    0.4870 C.2     1  UNL1       -0.0440
      7  C          6.5270   -0.6760    1.2500 C.2     1  UNL1        0.0080
      8  C          6.5010    0.4890   -0.8350 C.2     1  UNL1        0.0540
      9  C          7.2920   -1.6610    0.6520 C.2     1  UNL1        0.0510
     10  C          7.2740   -0.5090   -1.4340 C.2     1  UNL1        0.1660
     11  C          7.6730   -1.5930   -0.6840 C.2     1  UNL1        0.1650
     12  O          7.7730   -0.6740   -2.7090 O.2     1  UNL1       -0.4540
     13  O          8.4150   -2.4100   -1.5230 O.2     1  UNL1       -0.4540
     14  C          8.4270   -1.9100   -2.8390 C.3     1  UNL1        0.4680
@<TRIPOS>BOND
     1    14    12    1
     2    14    13    1
     3    12    10    1
     4    13    11    1
     5    10     8    1
     6    10    11    2
     7     8     6    2
     8    11     9    1
     9     1     5    1
    10     1     2    1
    11     3     2    1
    12     6     5    1
    13     6     7    1
    14     9     7    2
    15     2     4    2
