@<TRIPOS>MOLECULE
/home/cewinharhar/GITHUB/reincatalyze/data/processed/docking_pred/2023-May-22-1531_sub9_nm5_bs15_s42_ex16_mel10_mts1000_k50_ec02_g099_lra9e-4_lrc1e-3/1a0a4210c7fbec369f44508687af2363e72d8760_ligand_9.pdbqt
 14 15 0 0 0
SMALL
GASTEIGER

@<TRIPOS>ATOM
      1  C          5.3610    2.9800    0.1890 C.3     1  UNL1        0.0800
      2  C          6.2130    3.9040    0.9880 C.2     1  UNL1        0.1300
      3  C          7.2390    4.7700    0.3490 C.3     1  UNL1        0.0870
      4  O          6.0920    3.9770    2.2000 O.2     1  UNL1       -0.3000
      5  C          5.1520    1.6630    0.9090 C.3     1  UNL1        0.0430
      6  C          5.9730    0.5860    0.3270 C.2     1  UNL1       -0.0440
      7  C          6.3190    0.5790   -1.0290 C.2     1  UNL1        0.0080
      8  C          6.4180   -0.4410    1.1280 C.2     1  UNL1        0.0540
      9  C          7.0930   -0.4570   -1.5190 C.2     1  UNL1        0.0510
     10  C          7.2010   -1.4860    0.6280 C.2     1  UNL1        0.1660
     11  C          7.5410   -1.4940   -0.7060 C.2     1  UNL1        0.1650
     12  O          7.7580   -2.6040    1.2110 O.2     1  UNL1       -0.4540
     13  O          8.3080   -2.6290   -0.9170 O.2     1  UNL1       -0.4540
     14  C          8.5460   -3.3130    0.2900 C.3     1  UNL1        0.4680
@<TRIPOS>BOND
     1     9     7    1
     2     9    11    2
     3     7     6    2
     4    13    11    1
     5    13    14    1
     6    11    10    1
     7     1     5    1
     8     1     2    1
     9    14    12    1
    10     6     5    1
    11     6     8    1
    12     3     2    1
    13    10     8    2
    14    10    12    1
    15     2     4    2
