MODEL 1
REMARK VINA RESULT:      -8.1      0.000      0.000
REMARK SMILES CC(=O)CCc1ccc2c(c1)OCO2
REMARK SMILES IDX 4 1 2 2 1 3 3 4 5 5 6 6 7 7 11 8 8 9 10 10 9 11 12 12 14 13
REMARK SMILES IDX 13 14
REMARK H PARENT
REMARK Flexibility Score: inf
ROOT
ATOM      1  C   UNL     1       6.017   1.636   1.159  1.00  0.00     0.080 C 
ENDROOT
BRANCH   1   2
ATOM      2  C   UNL     1       5.441   0.534   1.980  1.00  0.00     0.130 C 
ATOM      3  C   UNL     1       6.223  -0.688   2.306  1.00  0.00     0.087 C 
ATOM      4  O   UNL     1       4.301   0.604   2.411  1.00  0.00    -0.300 OA
ENDBRANCH   1   2
BRANCH   1   5
ATOM      5  C   UNL     1       5.739   1.426  -0.316  1.00  0.00     0.043 C 
BRANCH   5   6
ATOM      6  C   UNL     1       6.807   0.647  -0.968  1.00  0.00    -0.044 A 
ATOM      7  C   UNL     1       8.152   1.019  -0.865  1.00  0.00     0.008 A 
ATOM      8  C   UNL     1       6.485  -0.476  -1.696  1.00  0.00     0.054 A 
ATOM      9  C   UNL     1       9.112   0.249  -1.498  1.00  0.00     0.051 A 
ATOM     10  C   UNL     1       7.459  -1.251  -2.333  1.00  0.00     0.166 A 
ATOM     11  C   UNL     1       8.783  -0.885  -2.233  1.00  0.00     0.165 A 
ATOM     12  O   UNL     1       7.395  -2.393  -3.103  1.00  0.00    -0.454 OA
ATOM     13  O   UNL     1       9.512  -1.820  -2.951  1.00  0.00    -0.454 OA
ATOM     14  C   UNL     1       8.681  -2.844  -3.443  1.00  0.00     0.468 C 
ENDBRANCH   5   6
ENDBRANCH   1   5
TORSDOF 3
ENDMDL
MODEL 2
REMARK VINA RESULT:      -7.7      1.924      2.708
REMARK SMILES CC(=O)CCc1ccc2c(c1)OCO2
REMARK SMILES IDX 4 1 2 2 1 3 3 4 5 5 6 6 7 7 11 8 8 9 10 10 9 11 12 12 14 13
REMARK SMILES IDX 13 14
REMARK H PARENT
REMARK Flexibility Score: inf
ROOT
ATOM      1  C   UNL     1       5.436   2.867   0.167  1.00  0.00     0.080 C 
ENDROOT
BRANCH   1   2
ATOM      2  C   UNL     1       6.279   3.772   0.997  1.00  0.00     0.130 C 
ATOM      3  C   UNL     1       7.193   4.771   0.381  1.00  0.00     0.087 C 
ATOM      4  O   UNL     1       6.243   3.719   2.216  1.00  0.00    -0.300 OA
ENDBRANCH   1   2
BRANCH   1   5
ATOM      5  C   UNL     1       5.174   1.554   0.878  1.00  0.00     0.043 C 
BRANCH   5   6
ATOM      6  C   UNL     1       6.018   0.468   0.348  1.00  0.00    -0.044 A 
ATOM      7  C   UNL     1       6.437  -0.595   1.156  1.00  0.00     0.008 A 
ATOM      8  C   UNL     1       6.407   0.488  -0.972  1.00  0.00     0.054 A 
ATOM      9  C   UNL     1       7.228  -1.587   0.603  1.00  0.00     0.051 A 
ATOM     10  C   UNL     1       7.205  -0.517  -1.526  1.00  0.00     0.166 A 
ATOM     11  C   UNL     1       7.619  -1.563  -0.732  1.00  0.00     0.165 A 
ATOM     12  O   UNL     1       7.718  -0.720  -2.790  1.00  0.00    -0.454 OA
ATOM     13  O   UNL     1       8.385  -2.396  -1.533  1.00  0.00    -0.454 OA
ATOM     14  C   UNL     1       8.398  -1.947  -2.867  1.00  0.00     0.468 C 
ENDBRANCH   5   6
ENDBRANCH   1   5
TORSDOF 3
ENDMDL
MODEL 3
REMARK VINA RESULT:      -7.6      2.424      3.098
REMARK SMILES CC(=O)CCc1ccc2c(c1)OCO2
REMARK SMILES IDX 4 1 2 2 1 3 3 4 5 5 6 6 7 7 11 8 8 9 10 10 9 11 12 12 14 13
REMARK SMILES IDX 13 14
REMARK H PARENT
REMARK Flexibility Score: inf
ROOT
ATOM      1  C   UNL     1       5.454   2.976   0.148  1.00  0.00     0.080 C 
ENDROOT
BRANCH   1   2
ATOM      2  C   UNL     1       6.281   3.905   0.968  1.00  0.00     0.130 C 
ATOM      3  C   UNL     1       7.320   4.775   0.354  1.00  0.00     0.087 C 
ATOM      4  O   UNL     1       6.129   3.978   2.177  1.00  0.00    -0.300 OA
ENDBRANCH   1   2
BRANCH   1   5
ATOM      5  C   UNL     1       5.240   1.655   0.860  1.00  0.00     0.043 C 
BRANCH   5   6
ATOM      6  C   UNL     1       6.060   0.579   0.275  1.00  0.00    -0.044 A 
ATOM      7  C   UNL     1       6.450   0.603  -1.069  1.00  0.00     0.008 A 
ATOM      8  C   UNL     1       6.459  -0.478   1.061  1.00  0.00     0.054 A 
ATOM      9  C   UNL     1       7.220  -0.434  -1.562  1.00  0.00     0.051 A 
ATOM     10  C   UNL     1       7.239  -1.523   0.557  1.00  0.00     0.166 A 
ATOM     11  C   UNL     1       7.622  -1.501  -0.766  1.00  0.00     0.165 A 
ATOM     12  O   UNL     1       7.755  -2.669   1.125  1.00  0.00    -0.454 OA
ATOM     13  O   UNL     1       8.375  -2.644  -0.984  1.00  0.00    -0.454 OA
ATOM     14  C   UNL     1       8.560  -3.367   0.210  1.00  0.00     0.468 C 
ENDBRANCH   5   6
ENDBRANCH   1   5
TORSDOF 3
ENDMDL
