@<TRIPOS>MOLECULE
/home/cewinharhar/GITHUB/reincatalyze/data/processed/docking_pred/2023-May-22-1531_sub9_nm5_bs15_s42_ex16_mel10_mts1000_k50_ec02_g099_lra9e-4_lrc1e-3/1e16add1d5649bf0b13dd0d86c7d3fc630d89625_ligand_9.pdbqt
 14 15 0 0 0
SMALL
GASTEIGER

@<TRIPOS>ATOM
      1  C          6.0170    1.6360    1.1590 C.3     1  UNL1        0.0800
      2  C          5.4410    0.5340    1.9800 C.2     1  UNL1        0.1300
      3  C          6.2230   -0.6880    2.3060 C.3     1  UNL1        0.0870
      4  O          4.3010    0.6040    2.4110 O.2     1  UNL1       -0.3000
      5  C          5.7390    1.4260   -0.3160 C.3     1  UNL1        0.0430
      6  C          6.8070    0.6470   -0.9680 C.2     1  UNL1       -0.0440
      7  C          8.1520    1.0190   -0.8650 C.2     1  UNL1        0.0080
      8  C          6.4850   -0.4760   -1.6960 C.2     1  UNL1        0.0540
      9  C          9.1120    0.2490   -1.4980 C.2     1  UNL1        0.0510
     10  C          7.4590   -1.2510   -2.3330 C.2     1  UNL1        0.1660
     11  C          8.7830   -0.8850   -2.2330 C.2     1  UNL1        0.1650
     12  O          7.3950   -2.3930   -3.1030 O.2     1  UNL1       -0.4540
     13  O          9.5120   -1.8200   -2.9510 O.2     1  UNL1       -0.4540
     14  C          8.6810   -2.8440   -3.4430 C.3     1  UNL1        0.4680
@<TRIPOS>BOND
     1    14    12    1
     2    14    13    1
     3    12    10    1
     4    13    11    1
     5    10    11    2
     6    10     8    1
     7    11     9    1
     8     8     6    2
     9     9     7    2
    10     6     7    1
    11     6     5    1
    12     5     1    1
    13     1     2    1
    14     2     3    1
    15     2     4    2
