@<TRIPOS>MOLECULE
/home/cewinharhar/GITHUB/reincatalyze/data/processed/docking_pred/2023-May-22-1531_sub9_nm5_bs15_s42_ex16_mel10_mts1000_k50_ec02_g099_lra9e-4_lrc1e-3/1e16add1d5649bf0b13dd0d86c7d3fc630d89625_ligand_9.pdbqt
 14 15 0 0 0
SMALL
GASTEIGER

@<TRIPOS>ATOM
      1  C          5.4360    2.8670    0.1670 C.3     1  UNL1        0.0800
      2  C          6.2790    3.7720    0.9970 C.2     1  UNL1        0.1300
      3  C          7.1930    4.7710    0.3810 C.3     1  UNL1        0.0870
      4  O          6.2430    3.7190    2.2160 O.2     1  UNL1       -0.3000
      5  C          5.1740    1.5540    0.8780 C.3     1  UNL1        0.0430
      6  C          6.0180    0.4680    0.3480 C.2     1  UNL1       -0.0440
      7  C          6.4370   -0.5950    1.1560 C.2     1  UNL1        0.0080
      8  C          6.4070    0.4880   -0.9720 C.2     1  UNL1        0.0540
      9  C          7.2280   -1.5870    0.6030 C.2     1  UNL1        0.0510
     10  C          7.2050   -0.5170   -1.5260 C.2     1  UNL1        0.1660
     11  C          7.6190   -1.5630   -0.7320 C.2     1  UNL1        0.1650
     12  O          7.7180   -0.7200   -2.7900 O.2     1  UNL1       -0.4540
     13  O          8.3850   -2.3960   -1.5330 O.2     1  UNL1       -0.4540
     14  C          8.3980   -1.9470   -2.8670 C.3     1  UNL1        0.4680
@<TRIPOS>BOND
     1    14    12    1
     2    14    13    1
     3    12    10    1
     4    13    11    1
     5    10     8    1
     6    10    11    2
     7     8     6    2
     8    11     9    1
     9     1     5    1
    10     1     2    1
    11     6     5    1
    12     6     7    1
    13     3     2    1
    14     9     7    2
    15     2     4    2
