@<TRIPOS>MOLECULE
/home/cewinharhar/GITHUB/reincatalyze/data/processed/docking_pred/2023-May-22-1531_sub9_nm5_bs15_s42_ex16_mel10_mts1000_k50_ec02_g099_lra9e-4_lrc1e-3/1e16add1d5649bf0b13dd0d86c7d3fc630d89625_ligand_9.pdbqt
 14 15 0 0 0
SMALL
GASTEIGER

@<TRIPOS>ATOM
      1  C          5.4540    2.9760    0.1480 C.3     1  UNL1        0.0800
      2  C          6.2810    3.9050    0.9680 C.2     1  UNL1        0.1300
      3  C          7.3200    4.7750    0.3540 C.3     1  UNL1        0.0870
      4  O          6.1290    3.9780    2.1770 O.2     1  UNL1       -0.3000
      5  C          5.2400    1.6550    0.8600 C.3     1  UNL1        0.0430
      6  C          6.0600    0.5790    0.2750 C.2     1  UNL1       -0.0440
      7  C          6.4500    0.6030   -1.0690 C.2     1  UNL1        0.0080
      8  C          6.4590   -0.4780    1.0610 C.2     1  UNL1        0.0540
      9  C          7.2200   -0.4340   -1.5620 C.2     1  UNL1        0.0510
     10  C          7.2390   -1.5230    0.5570 C.2     1  UNL1        0.1660
     11  C          7.6220   -1.5010   -0.7660 C.2     1  UNL1        0.1650
     12  O          7.7550   -2.6690    1.1250 O.2     1  UNL1       -0.4540
     13  O          8.3750   -2.6440   -0.9840 O.2     1  UNL1       -0.4540
     14  C          8.5600   -3.3670    0.2100 C.3     1  UNL1        0.4680
@<TRIPOS>BOND
     1     9     7    1
     2     9    11    2
     3     7     6    2
     4    13    11    1
     5    13    14    1
     6    11    10    1
     7     1     5    1
     8     1     2    1
     9    14    12    1
    10     6     5    1
    11     6     8    1
    12     3     2    1
    13    10     8    2
    14    10    12    1
    15     2     4    2
