MODEL 1
REMARK VINA RESULT:      -4.2      0.000      0.000
REMARK SMILES CC(=O)CCc1ccc2c(c1)OCO2
REMARK SMILES IDX 4 1 2 2 1 3 3 4 5 5 6 6 7 7 11 8 8 9 10 10 9 11 12 12 14 13
REMARK SMILES IDX 13 14
REMARK H PARENT
REMARK Flexibility Score: inf
ROOT
ATOM      1  C   UNL     1       7.905  -5.608  11.781  1.00  0.00     0.080 C 
ENDROOT
BRANCH   1   2
ATOM      2  C   UNL     1       7.557  -4.206  11.417  1.00  0.00     0.130 C 
ATOM      3  C   UNL     1       7.187  -3.201  12.449  1.00  0.00     0.087 C 
ATOM      4  O   UNL     1       7.566  -3.840  10.253  1.00  0.00    -0.300 OA
ENDBRANCH   1   2
BRANCH   1   5
ATOM      5  C   UNL     1       8.454  -6.366  10.588  1.00  0.00     0.043 C 
BRANCH   5   6
ATOM      6  C   UNL     1       9.759  -6.983  10.887  1.00  0.00    -0.044 A 
ATOM      7  C   UNL     1       9.883  -8.357  11.120  1.00  0.00     0.008 A 
ATOM      8  C   UNL     1      10.889  -6.199  10.936  1.00  0.00     0.054 A 
ATOM      9  C   UNL     1      11.134  -8.881  11.394  1.00  0.00     0.051 A 
ATOM     10  C   UNL     1      12.151  -6.733  11.213  1.00  0.00     0.166 A 
ATOM     11  C   UNL     1      12.274  -8.085  11.444  1.00  0.00     0.165 A 
ATOM     12  O   UNL     1      13.406  -6.172  11.318  1.00  0.00    -0.454 OA
ATOM     13  O   UNL     1      13.617  -8.329  11.688  1.00  0.00    -0.454 OA
ATOM     14  C   UNL     1      14.383  -7.159  11.528  1.00  0.00     0.468 C 
ENDBRANCH   5   6
ENDBRANCH   1   5
TORSDOF 3
ENDMDL
MODEL 2
REMARK VINA RESULT:      -4.1      1.129      1.957
REMARK SMILES CC(=O)CCc1ccc2c(c1)OCO2
REMARK SMILES IDX 4 1 2 2 1 3 3 4 5 5 6 6 7 7 11 8 8 9 10 10 9 11 12 12 14 13
REMARK SMILES IDX 13 14
REMARK H PARENT
REMARK Flexibility Score: inf
ROOT
ATOM      1  C   UNL     1       8.467  -5.391  11.892  1.00  0.00     0.080 C 
ENDROOT
BRANCH   1   2
ATOM      2  C   UNL     1       7.672  -4.225  11.416  1.00  0.00     0.130 C 
ATOM      3  C   UNL     1       6.952  -3.331  12.362  1.00  0.00     0.087 C 
ATOM      4  O   UNL     1       7.588  -3.968  10.225  1.00  0.00    -0.300 OA
ENDBRANCH   1   2
BRANCH   1   5
ATOM      5  C   UNL     1       8.718  -6.381  10.772  1.00  0.00     0.043 C 
BRANCH   5   6
ATOM      6  C   UNL     1      10.100  -6.892  10.794  1.00  0.00    -0.044 A 
ATOM      7  C   UNL     1      11.183  -6.065  11.114  1.00  0.00     0.008 A 
ATOM      8  C   UNL     1      10.343  -8.214  10.498  1.00  0.00     0.054 A 
ATOM      9  C   UNL     1      12.458  -6.601  11.120  1.00  0.00     0.051 A 
ATOM     10  C   UNL     1      11.634  -8.751  10.506  1.00  0.00     0.166 A 
ATOM     11  C   UNL     1      12.700  -7.938  10.820  1.00  0.00     0.165 A 
ATOM     12  O   UNL     1      12.129 -10.013  10.251  1.00  0.00    -0.454 OA
ATOM     13  O   UNL     1      13.839  -8.725  10.751  1.00  0.00    -0.454 OA
ATOM     14  C   UNL     1      13.513 -10.068  10.482  1.00  0.00     0.468 C 
ENDBRANCH   5   6
ENDBRANCH   1   5
TORSDOF 3
ENDMDL
MODEL 3
REMARK VINA RESULT:      -3.9      2.716      4.033
REMARK SMILES CC(=O)CCc1ccc2c(c1)OCO2
REMARK SMILES IDX 4 1 2 2 1 3 3 4 5 5 6 6 7 7 11 8 8 9 10 10 9 11 12 12 14 13
REMARK SMILES IDX 13 14
REMARK H PARENT
REMARK Flexibility Score: inf
ROOT
ATOM      1  C   UNL     1       9.707  -6.908  10.135  1.00  0.00     0.080 C 
ENDROOT
BRANCH   1   2
ATOM      2  C   UNL     1       8.431  -6.323  10.633  1.00  0.00     0.130 C 
ATOM      3  C   UNL     1       7.628  -6.989  11.692  1.00  0.00     0.087 C 
ATOM      4  O   UNL     1       8.005  -5.272  10.181  1.00  0.00    -0.300 OA
ENDBRANCH   1   2
BRANCH   1   5
ATOM      5  C   UNL     1      10.551  -7.439  11.276  1.00  0.00     0.043 C 
BRANCH   5   6
ATOM      6  C   UNL     1      11.071  -8.788  10.990  1.00  0.00    -0.044 A 
ATOM      7  C   UNL     1      12.365  -8.985  10.493  1.00  0.00     0.008 A 
ATOM      8  C   UNL     1      10.275  -9.888  11.215  1.00  0.00     0.054 A 
ATOM      9  C   UNL     1      12.799 -10.274  10.243  1.00  0.00     0.051 A 
ATOM     10  C   UNL     1      10.719 -11.190  10.962  1.00  0.00     0.166 A 
ATOM     11  C   UNL     1      11.991 -11.384  10.471  1.00  0.00     0.165 A 
ATOM     12  O   UNL     1      10.128 -12.427  11.100  1.00  0.00    -0.454 OA
ATOM     13  O   UNL     1      12.157 -12.752  10.318  1.00  0.00    -0.454 OA
ATOM     14  C   UNL     1      11.033 -13.456  10.790  1.00  0.00     0.468 C 
ENDBRANCH   5   6
ENDBRANCH   1   5
TORSDOF 3
ENDMDL
