@<TRIPOS>MOLECULE
/home/cewinharhar/GITHUB/reincatalyze/data/processed/docking_pred/2023-May-22-1531_sub9_nm5_bs15_s42_ex16_mel10_mts1000_k50_ec02_g099_lra9e-4_lrc1e-3/1e8ffecbec14ce573bf52adb8829230239be76a8_ligand_9.pdbqt
 14 15 0 0 0
SMALL
GASTEIGER

@<TRIPOS>ATOM
      1  C          9.7070   -6.9080   10.1350 C.3     1  UNL1        0.0800
      2  C          8.4310   -6.3230   10.6330 C.2     1  UNL1        0.1300
      3  C          7.6280   -6.9890   11.6920 C.3     1  UNL1        0.0870
      4  O          8.0050   -5.2720   10.1810 O.2     1  UNL1       -0.3000
      5  C         10.5510   -7.4390   11.2760 C.3     1  UNL1        0.0430
      6  C         11.0710   -8.7880   10.9900 C.2     1  UNL1       -0.0440
      7  C         12.3650   -8.9850   10.4930 C.2     1  UNL1        0.0080
      8  C         10.2750   -9.8880   11.2150 C.2     1  UNL1        0.0540
      9  C         12.7990  -10.2740   10.2430 C.2     1  UNL1        0.0510
     10  C         10.7190  -11.1900   10.9620 C.2     1  UNL1        0.1660
     11  C         11.9910  -11.3840   10.4710 C.2     1  UNL1        0.1650
     12  O         10.1280  -12.4270   11.1000 O.2     1  UNL1       -0.4540
     13  O         12.1570  -12.7520   10.3180 O.2     1  UNL1       -0.4540
     14  C         11.0330  -13.4560   10.7900 C.3     1  UNL1        0.4680
@<TRIPOS>BOND
     1     1     2    1
     2     1     5    1
     3     4     2    2
     4     9    11    2
     5     9     7    1
     6    13    11    1
     7    13    14    1
     8    11    10    1
     9     7     6    2
    10     2     3    1
    11    14    12    1
    12    10    12    1
    13    10     8    2
    14     6     8    1
    15     6     5    1
