@<TRIPOS>MOLECULE
/home/cewinharhar/GITHUB/reincatalyze/data/processed/docking_pred/2023-May-22-1531_sub9_nm5_bs15_s42_ex16_mel10_mts1000_k50_ec02_g099_lra9e-4_lrc1e-3/1e8ffecbec14ce573bf52adb8829230239be76a8_ligand_9.pdbqt
 14 15 0 0 0
SMALL
GASTEIGER

@<TRIPOS>ATOM
      1  C          7.9050   -5.6080   11.7810 C.3     1  UNL1        0.0800
      2  C          7.5570   -4.2060   11.4170 C.2     1  UNL1        0.1300
      3  C          7.1870   -3.2010   12.4490 C.3     1  UNL1        0.0870
      4  O          7.5660   -3.8400   10.2530 O.2     1  UNL1       -0.3000
      5  C          8.4540   -6.3660   10.5880 C.3     1  UNL1        0.0430
      6  C          9.7590   -6.9830   10.8870 C.2     1  UNL1       -0.0440
      7  C          9.8830   -8.3570   11.1200 C.2     1  UNL1        0.0080
      8  C         10.8890   -6.1990   10.9360 C.2     1  UNL1        0.0540
      9  C         11.1340   -8.8810   11.3940 C.2     1  UNL1        0.0510
     10  C         12.1510   -6.7330   11.2130 C.2     1  UNL1        0.1660
     11  C         12.2740   -8.0850   11.4440 C.2     1  UNL1        0.1650
     12  O         13.4060   -6.1720   11.3180 O.2     1  UNL1       -0.4540
     13  O         13.6170   -8.3290   11.6880 O.2     1  UNL1       -0.4540
     14  C         14.3830   -7.1590   11.5280 C.3     1  UNL1        0.4680
@<TRIPOS>BOND
     1     4     2    2
     2     5     6    1
     3     5     1    1
     4     6     8    2
     5     6     7    1
     6     8    10    1
     7     7     9    2
     8    10    12    1
     9    10    11    2
    10    12    14    1
    11     9    11    1
    12     2     1    1
    13     2     3    1
    14    11    13    1
    15    14    13    1
