@<TRIPOS>MOLECULE
/home/cewinharhar/GITHUB/reincatalyze/data/processed/docking_pred/2023-May-22-1531_sub9_nm5_bs15_s42_ex16_mel10_mts1000_k50_ec02_g099_lra9e-4_lrc1e-3/1e8ffecbec14ce573bf52adb8829230239be76a8_ligand_9.pdbqt
 14 15 0 0 0
SMALL
GASTEIGER

@<TRIPOS>ATOM
      1  C          8.4670   -5.3910   11.8920 C.3     1  UNL1        0.0800
      2  C          7.6720   -4.2250   11.4160 C.2     1  UNL1        0.1300
      3  C          6.9520   -3.3310   12.3620 C.3     1  UNL1        0.0870
      4  O          7.5880   -3.9680   10.2250 O.2     1  UNL1       -0.3000
      5  C          8.7180   -6.3810   10.7720 C.3     1  UNL1        0.0430
      6  C         10.1000   -6.8920   10.7940 C.2     1  UNL1       -0.0440
      7  C         11.1830   -6.0650   11.1140 C.2     1  UNL1        0.0080
      8  C         10.3430   -8.2140   10.4980 C.2     1  UNL1        0.0540
      9  C         12.4580   -6.6010   11.1200 C.2     1  UNL1        0.0510
     10  C         11.6340   -8.7510   10.5060 C.2     1  UNL1        0.1660
     11  C         12.7000   -7.9380   10.8200 C.2     1  UNL1        0.1650
     12  O         12.1290  -10.0130   10.2510 O.2     1  UNL1       -0.4540
     13  O         13.8390   -8.7250   10.7510 O.2     1  UNL1       -0.4540
     14  C         13.5130  -10.0680   10.4820 C.3     1  UNL1        0.4680
@<TRIPOS>BOND
     1     4     2    2
     2    12    14    1
     3    12    10    1
     4    14    13    1
     5     8    10    1
     6     8     6    2
     7    10    11    2
     8    13    11    1
     9     5     6    1
    10     5     1    1
    11     6     7    1
    12    11     9    1
    13     7     9    2
    14     2     1    1
    15     2     3    1
