@<TRIPOS>MOLECULE
/home/cewinharhar/GITHUB/reincatalyze/data/processed/docking_pred/2023-May-22-1531_sub9_nm5_bs15_s42_ex16_mel10_mts1000_k50_ec02_g099_lra9e-4_lrc1e-3/1ec3d4ded79b7f38a98788c4b0a5da992fc20b58_ligand_9.pdbqt
 14 15 0 0 0
SMALL
GASTEIGER

@<TRIPOS>ATOM
      1  C          5.3720    3.0050    0.1560 C.3     1  UNL1        0.0800
      2  C          6.3110    3.8260    0.9710 C.2     1  UNL1        0.1300
      3  C          7.2710    4.7710    0.3400 C.3     1  UNL1        0.0870
      4  O          6.3190    3.7450    2.1880 O.2     1  UNL1       -0.3000
      5  C          5.0940    1.6690    0.8150 C.3     1  UNL1        0.0430
      6  C          5.9490    0.6010    0.2670 C.2     1  UNL1       -0.0440
      7  C          6.3680    0.6100   -1.0690 C.2     1  UNL1        0.0080
      8  C          6.3540   -0.4340    1.0790 C.2     1  UNL1        0.0540
      9  C          7.1710   -0.4180   -1.5280 C.2     1  UNL1        0.0510
     10  C          7.1660   -1.4710    0.6110 C.2     1  UNL1        0.1660
     11  C          7.5780   -1.4630   -0.7040 C.2     1  UNL1        0.1650
     12  O          7.6940   -2.5950    1.2100 O.2     1  UNL1       -0.4540
     13  O          8.3590   -2.5940   -0.8860 O.2     1  UNL1       -0.4540
     14  C          8.5330   -3.2910    0.3250 C.3     1  UNL1        0.4680
@<TRIPOS>BOND
     1     9     7    1
     2     9    11    2
     3     7     6    2
     4    13    11    1
     5    13    14    1
     6    11    10    1
     7     1     5    1
     8     1     2    1
     9     6     5    1
    10     6     8    1
    11    14    12    1
    12     3     2    1
    13    10     8    2
    14    10    12    1
    15     2     4    2
