@<TRIPOS>MOLECULE
/home/cewinharhar/GITHUB/reincatalyze/data/processed/docking_pred/2023-May-22-1531_sub9_nm5_bs15_s42_ex16_mel10_mts1000_k50_ec02_g099_lra9e-4_lrc1e-3/1ec3d4ded79b7f38a98788c4b0a5da992fc20b58_ligand_9.pdbqt
 14 15 0 0 0
SMALL
GASTEIGER

@<TRIPOS>ATOM
      1  C          5.5430    1.9190    1.2670 C.3     1  UNL1        0.0800
      2  C          5.1060    0.7000    2.0030 C.2     1  UNL1        0.1300
      3  C          6.0080   -0.4690    2.1840 C.3     1  UNL1        0.0870
      4  O          3.9860    0.6250    2.4820 O.2     1  UNL1       -0.3000
      5  C          5.4140    1.7320   -0.2320 C.3     1  UNL1        0.0430
      6  C          6.5790    1.0300   -0.7980 C.2     1  UNL1       -0.0440
      7  C          7.8870    1.4620   -0.5490 C.2     1  UNL1        0.0080
      8  C          6.3890   -0.0800   -1.5890 C.2     1  UNL1        0.0540
      9  C          8.9420    0.7620   -1.1060 C.2     1  UNL1        0.0510
     10  C          7.4590   -0.7840   -2.1500 C.2     1  UNL1        0.1660
     11  C          8.7460   -0.3590   -1.9070 C.2     1  UNL1        0.1650
     12  O          7.5300   -1.8990   -2.9580 O.2     1  UNL1       -0.4540
     13  O          9.5900   -1.2310   -2.5770 O.2     1  UNL1       -0.4540
     14  C          8.8640   -2.2750   -3.1820 C.3     1  UNL1        0.4680
@<TRIPOS>BOND
     1    14    12    1
     2    14    13    1
     3    12    10    1
     4    13    11    1
     5    10    11    2
     6    10     8    1
     7    11     9    1
     8     8     6    2
     9     9     7    2
    10     6     7    1
    11     6     5    1
    12     5     1    1
    13     1     2    1
    14     2     3    1
    15     2     4    2
