MODEL 1
REMARK VINA RESULT:      -7.9      0.000      0.000
REMARK SMILES CC(=O)CCc1ccc2c(c1)OCO2
REMARK SMILES IDX 4 1 2 2 1 3 3 4 5 5 6 6 7 7 11 8 8 9 10 10 9 11 12 12 14 13
REMARK SMILES IDX 13 14
REMARK H PARENT
REMARK Flexibility Score: inf
ROOT
ATOM      1  C   UNL     1       5.495   2.898   0.066  1.00  0.00     0.080 C 
ENDROOT
BRANCH   1   2
ATOM      2  C   UNL     1       6.303   3.815   0.919  1.00  0.00     0.130 C 
ATOM      3  C   UNL     1       7.275   4.775   0.331  1.00  0.00     0.087 C 
ATOM      4  O   UNL     1       6.189   3.803   2.134  1.00  0.00    -0.300 OA
ENDBRANCH   1   2
BRANCH   1   5
ATOM      5  C   UNL     1       5.179   1.606   0.793  1.00  0.00     0.043 C 
BRANCH   5   6
ATOM      6  C   UNL     1       6.018   0.492   0.316  1.00  0.00    -0.044 A 
ATOM      7  C   UNL     1       6.416  -0.543   1.170  1.00  0.00     0.008 A 
ATOM      8  C   UNL     1       6.424   0.458  -0.998  1.00  0.00     0.054 A 
ATOM      9  C   UNL     1       7.202  -1.563   0.666  1.00  0.00     0.051 A 
ATOM     10  C   UNL     1       7.218  -0.576  -1.503  1.00  0.00     0.166 A 
ATOM     11  C   UNL     1       7.611  -1.595  -0.663  1.00  0.00     0.165 A 
ATOM     12  O   UNL     1       7.745  -0.833  -2.751  1.00  0.00    -0.454 OA
ATOM     13  O   UNL     1       8.378  -2.466  -1.421  1.00  0.00    -0.454 OA
ATOM     14  C   UNL     1       8.413  -2.069  -2.771  1.00  0.00     0.468 C 
ENDBRANCH   5   6
ENDBRANCH   1   5
TORSDOF 3
ENDMDL
MODEL 2
REMARK VINA RESULT:      -7.9      0.956      1.949
REMARK SMILES CC(=O)CCc1ccc2c(c1)OCO2
REMARK SMILES IDX 4 1 2 2 1 3 3 4 5 5 6 6 7 7 11 8 8 9 10 10 9 11 12 12 14 13
REMARK SMILES IDX 13 14
REMARK H PARENT
REMARK Flexibility Score: inf
ROOT
ATOM      1  C   UNL     1       5.372   3.005   0.156  1.00  0.00     0.080 C 
ENDROOT
BRANCH   1   2
ATOM      2  C   UNL     1       6.311   3.826   0.971  1.00  0.00     0.130 C 
ATOM      3  C   UNL     1       7.271   4.771   0.340  1.00  0.00     0.087 C 
ATOM      4  O   UNL     1       6.319   3.745   2.188  1.00  0.00    -0.300 OA
ENDBRANCH   1   2
BRANCH   1   5
ATOM      5  C   UNL     1       5.094   1.669   0.815  1.00  0.00     0.043 C 
BRANCH   5   6
ATOM      6  C   UNL     1       5.949   0.601   0.267  1.00  0.00    -0.044 A 
ATOM      7  C   UNL     1       6.368   0.610  -1.069  1.00  0.00     0.008 A 
ATOM      8  C   UNL     1       6.354  -0.434   1.079  1.00  0.00     0.054 A 
ATOM      9  C   UNL     1       7.171  -0.418  -1.528  1.00  0.00     0.051 A 
ATOM     10  C   UNL     1       7.166  -1.471   0.611  1.00  0.00     0.166 A 
ATOM     11  C   UNL     1       7.578  -1.463  -0.704  1.00  0.00     0.165 A 
ATOM     12  O   UNL     1       7.694  -2.595   1.210  1.00  0.00    -0.454 OA
ATOM     13  O   UNL     1       8.359  -2.594  -0.886  1.00  0.00    -0.454 OA
ATOM     14  C   UNL     1       8.533  -3.291   0.325  1.00  0.00     0.468 C 
ENDBRANCH   5   6
ENDBRANCH   1   5
TORSDOF 3
ENDMDL
MODEL 3
REMARK VINA RESULT:      -7.6      1.892      2.639
REMARK SMILES CC(=O)CCc1ccc2c(c1)OCO2
REMARK SMILES IDX 4 1 2 2 1 3 3 4 5 5 6 6 7 7 11 8 8 9 10 10 9 11 12 12 14 13
REMARK SMILES IDX 13 14
REMARK H PARENT
REMARK Flexibility Score: inf
ROOT
ATOM      1  C   UNL     1       5.543   1.919   1.267  1.00  0.00     0.080 C 
ENDROOT
BRANCH   1   2
ATOM      2  C   UNL     1       5.106   0.700   2.003  1.00  0.00     0.130 C 
ATOM      3  C   UNL     1       6.008  -0.469   2.184  1.00  0.00     0.087 C 
ATOM      4  O   UNL     1       3.986   0.625   2.482  1.00  0.00    -0.300 OA
ENDBRANCH   1   2
BRANCH   1   5
ATOM      5  C   UNL     1       5.414   1.732  -0.232  1.00  0.00     0.043 C 
BRANCH   5   6
ATOM      6  C   UNL     1       6.579   1.030  -0.798  1.00  0.00    -0.044 A 
ATOM      7  C   UNL     1       7.887   1.462  -0.549  1.00  0.00     0.008 A 
ATOM      8  C   UNL     1       6.389  -0.080  -1.589  1.00  0.00     0.054 A 
ATOM      9  C   UNL     1       8.942   0.762  -1.106  1.00  0.00     0.051 A 
ATOM     10  C   UNL     1       7.459  -0.784  -2.150  1.00  0.00     0.166 A 
ATOM     11  C   UNL     1       8.746  -0.359  -1.907  1.00  0.00     0.165 A 
ATOM     12  O   UNL     1       7.530  -1.899  -2.958  1.00  0.00    -0.454 OA
ATOM     13  O   UNL     1       9.590  -1.231  -2.577  1.00  0.00    -0.454 OA
ATOM     14  C   UNL     1       8.864  -2.275  -3.182  1.00  0.00     0.468 C 
ENDBRANCH   5   6
ENDBRANCH   1   5
TORSDOF 3
ENDMDL
