@<TRIPOS>MOLECULE
/home/cewinharhar/GITHUB/reincatalyze/data/processed/docking_pred/2023-May-22-1531_sub9_nm5_bs15_s42_ex16_mel10_mts1000_k50_ec02_g099_lra9e-4_lrc1e-3/1ec3d4ded79b7f38a98788c4b0a5da992fc20b58_ligand_9.pdbqt
 14 15 0 0 0
SMALL
GASTEIGER

@<TRIPOS>ATOM
      1  C          5.4950    2.8980    0.0660 C.3     1  UNL1        0.0800
      2  C          6.3030    3.8150    0.9190 C.2     1  UNL1        0.1300
      3  C          7.2750    4.7750    0.3310 C.3     1  UNL1        0.0870
      4  O          6.1890    3.8030    2.1340 O.2     1  UNL1       -0.3000
      5  C          5.1790    1.6060    0.7930 C.3     1  UNL1        0.0430
      6  C          6.0180    0.4920    0.3160 C.2     1  UNL1       -0.0440
      7  C          6.4160   -0.5430    1.1700 C.2     1  UNL1        0.0080
      8  C          6.4240    0.4580   -0.9980 C.2     1  UNL1        0.0540
      9  C          7.2020   -1.5630    0.6660 C.2     1  UNL1        0.0510
     10  C          7.2180   -0.5760   -1.5030 C.2     1  UNL1        0.1660
     11  C          7.6110   -1.5950   -0.6630 C.2     1  UNL1        0.1650
     12  O          7.7450   -0.8330   -2.7510 O.2     1  UNL1       -0.4540
     13  O          8.3780   -2.4660   -1.4210 O.2     1  UNL1       -0.4540
     14  C          8.4130   -2.0690   -2.7710 C.3     1  UNL1        0.4680
@<TRIPOS>BOND
     1    14    12    1
     2    14    13    1
     3    12    10    1
     4    10     8    1
     5    10    11    2
     6    13    11    1
     7     8     6    2
     8    11     9    1
     9     1     5    1
    10     1     2    1
    11     6     5    1
    12     6     7    1
    13     3     2    1
    14     9     7    2
    15     2     4    2
