@<TRIPOS>MOLECULE
/home/cewinharhar/GITHUB/reincatalyze/data/processed/docking_pred/2023-May-22-1531_sub9_nm5_bs15_s42_ex16_mel10_mts1000_k50_ec02_g099_lra9e-4_lrc1e-3/1f3204452a604bf2b5a1468570937d609aafa137_ligand_9.pdbqt
 14 15 0 0 0
SMALL
GASTEIGER

@<TRIPOS>ATOM
      1  C          5.5060    1.9220    1.2640 C.3     1  UNL1        0.0800
      2  C          5.0520    0.7070    1.9960 C.2     1  UNL1        0.1300
      3  C          5.9230   -0.4900    2.1390 C.3     1  UNL1        0.0870
      4  O          3.9430    0.6590    2.5040 O.2     1  UNL1       -0.3000
      5  C          5.3850    1.7380   -0.2360 C.3     1  UNL1        0.0430
      6  C          6.5540    1.0390   -0.7970 C.2     1  UNL1       -0.0440
      7  C          7.8600    1.4750   -0.5450 C.2     1  UNL1        0.0080
      8  C          6.3700   -0.0730   -1.5870 C.2     1  UNL1        0.0540
      9  C          8.9190    0.7780   -1.0980 C.2     1  UNL1        0.0510
     10  C          7.4440   -0.7750   -2.1430 C.2     1  UNL1        0.1660
     11  C          8.7290   -0.3450   -1.8970 C.2     1  UNL1        0.1650
     12  O          7.5210   -1.8910   -2.9490 O.2     1  UNL1       -0.4540
     13  O          9.5770   -1.2160   -2.5630 O.2     1  UNL1       -0.4540
     14  C          8.8570   -2.2630   -3.1680 C.3     1  UNL1        0.4680
@<TRIPOS>BOND
     1    14    12    1
     2    14    13    1
     3    12    10    1
     4    13    11    1
     5    10    11    2
     6    10     8    1
     7    11     9    1
     8     8     6    2
     9     9     7    2
    10     6     7    1
    11     6     5    1
    12     5     1    1
    13     1     2    1
    14     2     3    1
    15     2     4    2
