@<TRIPOS>MOLECULE
/home/cewinharhar/GITHUB/reincatalyze/data/processed/docking_pred/2023-May-22-1531_sub9_nm5_bs15_s42_ex16_mel10_mts1000_k50_ec02_g099_lra9e-4_lrc1e-3/1f3204452a604bf2b5a1468570937d609aafa137_ligand_9.pdbqt
 14 15 0 0 0
SMALL
GASTEIGER

@<TRIPOS>ATOM
      1  C          5.5280    2.8350    0.2340 C.3     1  UNL1        0.0800
      2  C          6.4180    3.6970    1.0600 C.2     1  UNL1        0.1300
      3  C          7.2440    4.7750    0.4540 C.3     1  UNL1        0.0870
      4  O          6.4960    3.5410    2.2680 O.2     1  UNL1       -0.3000
      5  C          5.2540    1.5100    0.9190 C.3     1  UNL1        0.0430
      6  C          6.0750    0.4230    0.3550 C.2     1  UNL1       -0.0440
      7  C          6.4430   -0.6890    1.1200 C.2     1  UNL1        0.0080
      8  C          6.4910    0.4920   -0.9550 C.2     1  UNL1        0.0540
      9  C          7.2140   -1.6790    0.5360 C.2     1  UNL1        0.0510
     10  C          7.2690   -0.5110   -1.5400 C.2     1  UNL1        0.1660
     11  C          7.6340   -1.6060   -0.7880 C.2     1  UNL1        0.1650
     12  O          7.8010   -0.6720   -2.8020 O.2     1  UNL1       -0.4540
     13  O          8.3890   -2.4250   -1.6120 O.2     1  UNL1       -0.4540
     14  C          8.4440   -1.9150   -2.9230 C.3     1  UNL1        0.4680
@<TRIPOS>BOND
     1    14    12    1
     2    14    13    1
     3    12    10    1
     4    13    11    1
     5    10     8    1
     6    10    11    2
     7     8     6    2
     8    11     9    1
     9     1     5    1
    10     1     2    1
    11     6     5    1
    12     6     7    1
    13     3     2    1
    14     9     7    2
    15     2     4    2
