MODEL 1
REMARK VINA RESULT:      -7.8      0.000      0.000
REMARK SMILES CC(=O)CCc1ccc2c(c1)OCO2
REMARK SMILES IDX 4 1 2 2 1 3 3 4 5 5 6 6 7 7 11 8 8 9 10 10 9 11 12 12 14 13
REMARK SMILES IDX 13 14
REMARK H PARENT
REMARK Flexibility Score: inf
ROOT
ATOM      1  C   UNL     1       5.528   2.835   0.234  1.00  0.00     0.080 C 
ENDROOT
BRANCH   1   2
ATOM      2  C   UNL     1       6.418   3.697   1.060  1.00  0.00     0.130 C 
ATOM      3  C   UNL     1       7.244   4.775   0.454  1.00  0.00     0.087 C 
ATOM      4  O   UNL     1       6.496   3.541   2.268  1.00  0.00    -0.300 OA
ENDBRANCH   1   2
BRANCH   1   5
ATOM      5  C   UNL     1       5.254   1.510   0.919  1.00  0.00     0.043 C 
BRANCH   5   6
ATOM      6  C   UNL     1       6.075   0.423   0.355  1.00  0.00    -0.044 A 
ATOM      7  C   UNL     1       6.443  -0.689   1.120  1.00  0.00     0.008 A 
ATOM      8  C   UNL     1       6.491   0.492  -0.955  1.00  0.00     0.054 A 
ATOM      9  C   UNL     1       7.214  -1.679   0.536  1.00  0.00     0.051 A 
ATOM     10  C   UNL     1       7.269  -0.511  -1.540  1.00  0.00     0.166 A 
ATOM     11  C   UNL     1       7.634  -1.606  -0.788  1.00  0.00     0.165 A 
ATOM     12  O   UNL     1       7.801  -0.672  -2.802  1.00  0.00    -0.454 OA
ATOM     13  O   UNL     1       8.389  -2.425  -1.612  1.00  0.00    -0.454 OA
ATOM     14  C   UNL     1       8.444  -1.915  -2.923  1.00  0.00     0.468 C 
ENDBRANCH   5   6
ENDBRANCH   1   5
TORSDOF 3
ENDMDL
MODEL 2
REMARK VINA RESULT:      -7.7      1.882      2.620
REMARK SMILES CC(=O)CCc1ccc2c(c1)OCO2
REMARK SMILES IDX 4 1 2 2 1 3 3 4 5 5 6 6 7 7 11 8 8 9 10 10 9 11 12 12 14 13
REMARK SMILES IDX 13 14
REMARK H PARENT
REMARK Flexibility Score: inf
ROOT
ATOM      1  C   UNL     1       5.506   1.922   1.264  1.00  0.00     0.080 C 
ENDROOT
BRANCH   1   2
ATOM      2  C   UNL     1       5.052   0.707   1.996  1.00  0.00     0.130 C 
ATOM      3  C   UNL     1       5.923  -0.490   2.139  1.00  0.00     0.087 C 
ATOM      4  O   UNL     1       3.943   0.659   2.504  1.00  0.00    -0.300 OA
ENDBRANCH   1   2
BRANCH   1   5
ATOM      5  C   UNL     1       5.385   1.738  -0.236  1.00  0.00     0.043 C 
BRANCH   5   6
ATOM      6  C   UNL     1       6.554   1.039  -0.797  1.00  0.00    -0.044 A 
ATOM      7  C   UNL     1       7.860   1.475  -0.545  1.00  0.00     0.008 A 
ATOM      8  C   UNL     1       6.370  -0.073  -1.587  1.00  0.00     0.054 A 
ATOM      9  C   UNL     1       8.919   0.778  -1.098  1.00  0.00     0.051 A 
ATOM     10  C   UNL     1       7.444  -0.775  -2.143  1.00  0.00     0.166 A 
ATOM     11  C   UNL     1       8.729  -0.345  -1.897  1.00  0.00     0.165 A 
ATOM     12  O   UNL     1       7.521  -1.891  -2.949  1.00  0.00    -0.454 OA
ATOM     13  O   UNL     1       9.577  -1.216  -2.563  1.00  0.00    -0.454 OA
ATOM     14  C   UNL     1       8.857  -2.263  -3.168  1.00  0.00     0.468 C 
ENDBRANCH   5   6
ENDBRANCH   1   5
TORSDOF 3
ENDMDL
MODEL 3
REMARK VINA RESULT:      -7.4      1.977      2.986
REMARK SMILES CC(=O)CCc1ccc2c(c1)OCO2
REMARK SMILES IDX 4 1 2 2 1 3 3 4 5 5 6 6 7 7 11 8 8 9 10 10 9 11 12 12 14 13
REMARK SMILES IDX 13 14
REMARK H PARENT
REMARK Flexibility Score: inf
ROOT
ATOM      1  C   UNL     1       5.818   1.407  -0.316  1.00  0.00     0.080 C 
ENDROOT
BRANCH   1   2
ATOM      2  C   UNL     1       5.134   1.323   1.005  1.00  0.00     0.130 C 
ATOM      3  C   UNL     1       5.396   0.205   1.950  1.00  0.00     0.087 C 
ATOM      4  O   UNL     1       4.332   2.175   1.351  1.00  0.00    -0.300 OA
ENDBRANCH   1   2
BRANCH   1   5
ATOM      5  C   UNL     1       7.292   1.077  -0.194  1.00  0.00     0.043 C 
BRANCH   5   6
ATOM      6  C   UNL     1       7.616  -0.218  -0.820  1.00  0.00    -0.044 A 
ATOM      7  C   UNL     1       7.592  -0.386  -2.209  1.00  0.00     0.008 A 
ATOM      8  C   UNL     1       7.954  -1.292  -0.030  1.00  0.00     0.054 A 
ATOM      9  C   UNL     1       7.906  -1.624  -2.741  1.00  0.00     0.051 A 
ATOM     10  C   UNL     1       8.271  -2.541  -0.572  1.00  0.00     0.166 A 
ATOM     11  C   UNL     1       8.247  -2.708  -1.938  1.00  0.00     0.165 A 
ATOM     12  O   UNL     1       8.633  -3.746  -0.007  1.00  0.00    -0.454 OA
ATOM     13  O   UNL     1       8.598  -4.026  -2.188  1.00  0.00    -0.454 OA
ATOM     14  C   UNL     1       8.939  -4.695  -0.997  1.00  0.00     0.468 C 
ENDBRANCH   5   6
ENDBRANCH   1   5
TORSDOF 3
ENDMDL
