@<TRIPOS>MOLECULE
/home/cewinharhar/GITHUB/reincatalyze/data/processed/docking_pred/2023-May-22-1531_sub9_nm5_bs15_s42_ex16_mel10_mts1000_k50_ec02_g099_lra9e-4_lrc1e-3/1f3204452a604bf2b5a1468570937d609aafa137_ligand_9.pdbqt
 14 15 0 0 0
SMALL
GASTEIGER

@<TRIPOS>ATOM
      1  C          5.8180    1.4070   -0.3160 C.3     1  UNL1        0.0800
      2  C          5.1340    1.3230    1.0050 C.2     1  UNL1        0.1300
      3  C          5.3960    0.2050    1.9500 C.3     1  UNL1        0.0870
      4  O          4.3320    2.1750    1.3510 O.2     1  UNL1       -0.3000
      5  C          7.2920    1.0770   -0.1940 C.3     1  UNL1        0.0430
      6  C          7.6160   -0.2180   -0.8200 C.2     1  UNL1       -0.0440
      7  C          7.5920   -0.3860   -2.2090 C.2     1  UNL1        0.0080
      8  C          7.9540   -1.2920   -0.0300 C.2     1  UNL1        0.0540
      9  C          7.9060   -1.6240   -2.7410 C.2     1  UNL1        0.0510
     10  C          8.2710   -2.5410   -0.5720 C.2     1  UNL1        0.1660
     11  C          8.2470   -2.7080   -1.9380 C.2     1  UNL1        0.1650
     12  O          8.6330   -3.7460   -0.0070 O.2     1  UNL1       -0.4540
     13  O          8.5980   -4.0260   -2.1880 O.2     1  UNL1       -0.4540
     14  C          8.9390   -4.6950   -0.9970 C.3     1  UNL1        0.4680
@<TRIPOS>BOND
     1     9     7    1
     2     9    11    2
     3     7     6    2
     4    13    11    1
     5    13    14    1
     6    11    10    1
     7    14    12    1
     8     6     5    1
     9     6     8    1
    10    10     8    2
    11    10    12    1
    12     1     5    1
    13     1     2    1
    14     2     4    2
    15     2     3    1
