MODEL 1
REMARK VINA RESULT:      -7.9      0.000      0.000
REMARK SMILES CC(=O)CCc1ccc2c(c1)OCO2
REMARK SMILES IDX 4 1 2 2 1 3 3 4 5 5 6 6 7 7 11 8 8 9 10 10 9 11 12 12 14 13
REMARK SMILES IDX 13 14
REMARK H PARENT
REMARK Flexibility Score: inf
ROOT
ATOM      1  C   UNL     1       5.516   2.856   0.086  1.00  0.00     0.080 C 
ENDROOT
BRANCH   1   2
ATOM      2  C   UNL     1       6.289   3.761   0.982  1.00  0.00     0.130 C 
ATOM      3  C   UNL     1       7.234   4.775   0.441  1.00  0.00     0.087 C 
ATOM      4  O   UNL     1       6.169   3.695   2.195  1.00  0.00    -0.300 OA
ENDBRANCH   1   2
BRANCH   1   5
ATOM      5  C   UNL     1       5.213   1.536   0.766  1.00  0.00     0.043 C 
BRANCH   5   6
ATOM      6  C   UNL     1       6.061   0.447   0.250  1.00  0.00    -0.044 A 
ATOM      7  C   UNL     1       6.462  -0.619   1.063  1.00  0.00     0.008 A 
ATOM      8  C   UNL     1       6.474   0.468  -1.063  1.00  0.00     0.054 A 
ATOM      9  C   UNL     1       7.258  -1.613   0.523  1.00  0.00     0.051 A 
ATOM     10  C   UNL     1       7.278  -0.539  -1.605  1.00  0.00     0.166 A 
ATOM     11  C   UNL     1       7.674  -1.588  -0.805  1.00  0.00     0.165 A 
ATOM     12  O   UNL     1       7.813  -0.742  -2.859  1.00  0.00    -0.454 OA
ATOM     13  O   UNL     1       8.450  -2.423  -1.593  1.00  0.00    -0.454 OA
ATOM     14  C   UNL     1       8.489  -1.971  -2.926  1.00  0.00     0.468 C 
ENDBRANCH   5   6
ENDBRANCH   1   5
TORSDOF 3
ENDMDL
MODEL 2
REMARK VINA RESULT:      -7.8      1.013      2.000
REMARK SMILES CC(=O)CCc1ccc2c(c1)OCO2
REMARK SMILES IDX 4 1 2 2 1 3 3 4 5 5 6 6 7 7 11 8 8 9 10 10 9 11 12 12 14 13
REMARK SMILES IDX 13 14
REMARK H PARENT
REMARK Flexibility Score: inf
ROOT
ATOM      1  C   UNL     1       5.454   2.947   0.162  1.00  0.00     0.080 C 
ENDROOT
BRANCH   1   2
ATOM      2  C   UNL     1       6.407   3.691   1.032  1.00  0.00     0.130 C 
ATOM      3  C   UNL     1       7.272   4.775   0.495  1.00  0.00     0.087 C 
ATOM      4  O   UNL     1       6.506   3.429   2.220  1.00  0.00    -0.300 OA
ENDBRANCH   1   2
BRANCH   1   5
ATOM      5  C   UNL     1       5.117   1.590   0.749  1.00  0.00     0.043 C 
BRANCH   5   6
ATOM      6  C   UNL     1       5.991   0.531   0.216  1.00  0.00    -0.044 A 
ATOM      7  C   UNL     1       6.464   0.564  -1.101  1.00  0.00     0.008 A 
ATOM      8  C   UNL     1       6.361  -0.520   1.024  1.00  0.00     0.054 A 
ATOM      9  C   UNL     1       7.283  -0.457  -1.546  1.00  0.00     0.051 A 
ATOM     10  C   UNL     1       7.190  -1.550   0.570  1.00  0.00     0.166 A 
ATOM     11  C   UNL     1       7.654  -1.518  -0.726  1.00  0.00     0.165 A 
ATOM     12  O   UNL     1       7.692  -2.686   1.169  1.00  0.00    -0.454 OA
ATOM     13  O   UNL     1       8.440  -2.647  -0.898  1.00  0.00    -0.454 OA
ATOM     14  C   UNL     1       8.565  -3.367   0.305  1.00  0.00     0.468 C 
ENDBRANCH   5   6
ENDBRANCH   1   5
TORSDOF 3
ENDMDL
MODEL 3
REMARK VINA RESULT:      -7.7      1.866      2.585
REMARK SMILES CC(=O)CCc1ccc2c(c1)OCO2
REMARK SMILES IDX 4 1 2 2 1 3 3 4 5 5 6 6 7 7 11 8 8 9 10 10 9 11 12 12 14 13
REMARK SMILES IDX 13 14
REMARK H PARENT
REMARK Flexibility Score: inf
ROOT
ATOM      1  C   UNL     1       5.525   1.916   1.265  1.00  0.00     0.080 C 
ENDROOT
BRANCH   1   2
ATOM      2  C   UNL     1       5.080   0.704   2.008  1.00  0.00     0.130 C 
ATOM      3  C   UNL     1       5.964  -0.480   2.172  1.00  0.00     0.087 C 
ATOM      4  O   UNL     1       3.968   0.649   2.507  1.00  0.00    -0.300 OA
ENDBRANCH   1   2
BRANCH   1   5
ATOM      5  C   UNL     1       5.394   1.721  -0.233  1.00  0.00     0.043 C 
BRANCH   5   6
ATOM      6  C   UNL     1       6.562   1.021  -0.798  1.00  0.00    -0.044 A 
ATOM      7  C   UNL     1       7.868   1.461  -0.554  1.00  0.00     0.008 A 
ATOM      8  C   UNL     1       6.376  -0.094  -1.582  1.00  0.00     0.054 A 
ATOM      9  C   UNL     1       8.926   0.764  -1.110  1.00  0.00     0.051 A 
ATOM     10  C   UNL     1       7.448  -0.796  -2.141  1.00  0.00     0.166 A 
ATOM     11  C   UNL     1       8.733  -0.363  -1.903  1.00  0.00     0.165 A 
ATOM     12  O   UNL     1       7.523  -1.915  -2.943  1.00  0.00    -0.454 OA
ATOM     13  O   UNL     1       9.580  -1.235  -2.570  1.00  0.00    -0.454 OA
ATOM     14  C   UNL     1       8.859  -2.286  -3.168  1.00  0.00     0.468 C 
ENDBRANCH   5   6
ENDBRANCH   1   5
TORSDOF 3
ENDMDL
