@<TRIPOS>MOLECULE
/home/cewinharhar/GITHUB/reincatalyze/data/processed/docking_pred/2023-May-22-1531_sub9_nm5_bs15_s42_ex16_mel10_mts1000_k50_ec02_g099_lra9e-4_lrc1e-3/1f53ccdef65850680f3a99c865464637782ca6a5_ligand_9.pdbqt
 14 15 0 0 0
SMALL
GASTEIGER

@<TRIPOS>ATOM
      1  C          5.5160    2.8560    0.0860 C.3     1  UNL1        0.0800
      2  C          6.2890    3.7610    0.9820 C.2     1  UNL1        0.1300
      3  C          7.2340    4.7750    0.4410 C.3     1  UNL1        0.0870
      4  O          6.1690    3.6950    2.1950 O.2     1  UNL1       -0.3000
      5  C          5.2130    1.5360    0.7660 C.3     1  UNL1        0.0430
      6  C          6.0610    0.4470    0.2500 C.2     1  UNL1       -0.0440
      7  C          6.4620   -0.6190    1.0630 C.2     1  UNL1        0.0080
      8  C          6.4740    0.4680   -1.0630 C.2     1  UNL1        0.0540
      9  C          7.2580   -1.6130    0.5230 C.2     1  UNL1        0.0510
     10  C          7.2780   -0.5390   -1.6050 C.2     1  UNL1        0.1660
     11  C          7.6740   -1.5880   -0.8050 C.2     1  UNL1        0.1650
     12  O          7.8130   -0.7420   -2.8590 O.2     1  UNL1       -0.4540
     13  O          8.4500   -2.4230   -1.5930 O.2     1  UNL1       -0.4540
     14  C          8.4890   -1.9710   -2.9260 C.3     1  UNL1        0.4680
@<TRIPOS>BOND
     1    14    12    1
     2    14    13    1
     3    12    10    1
     4    10     8    1
     5    10    11    2
     6    13    11    1
     7     8     6    2
     8    11     9    1
     9     1     5    1
    10     1     2    1
    11     6     5    1
    12     6     7    1
    13     3     2    1
    14     9     7    2
    15     2     4    2
