@<TRIPOS>MOLECULE
/home/cewinharhar/GITHUB/reincatalyze/data/processed/docking_pred/2023-May-22-1531_sub9_nm5_bs15_s42_ex16_mel10_mts1000_k50_ec02_g099_lra9e-4_lrc1e-3/1f53ccdef65850680f3a99c865464637782ca6a5_ligand_9.pdbqt
 14 15 0 0 0
SMALL
GASTEIGER

@<TRIPOS>ATOM
      1  C          5.4540    2.9470    0.1620 C.3     1  UNL1        0.0800
      2  C          6.4070    3.6910    1.0320 C.2     1  UNL1        0.1300
      3  C          7.2720    4.7750    0.4950 C.3     1  UNL1        0.0870
      4  O          6.5060    3.4290    2.2200 O.2     1  UNL1       -0.3000
      5  C          5.1170    1.5900    0.7490 C.3     1  UNL1        0.0430
      6  C          5.9910    0.5310    0.2160 C.2     1  UNL1       -0.0440
      7  C          6.4640    0.5640   -1.1010 C.2     1  UNL1        0.0080
      8  C          6.3610   -0.5200    1.0240 C.2     1  UNL1        0.0540
      9  C          7.2830   -0.4570   -1.5460 C.2     1  UNL1        0.0510
     10  C          7.1900   -1.5500    0.5700 C.2     1  UNL1        0.1660
     11  C          7.6540   -1.5180   -0.7260 C.2     1  UNL1        0.1650
     12  O          7.6920   -2.6860    1.1690 O.2     1  UNL1       -0.4540
     13  O          8.4400   -2.6470   -0.8980 O.2     1  UNL1       -0.4540
     14  C          8.5650   -3.3670    0.3050 C.3     1  UNL1        0.4680
@<TRIPOS>BOND
     1     9     7    1
     2     9    11    2
     3     7     6    2
     4    13    11    1
     5    13    14    1
     6    11    10    1
     7     1     5    1
     8     1     2    1
     9     6     5    1
    10     6     8    1
    11    14    12    1
    12     3     2    1
    13    10     8    2
    14    10    12    1
    15     2     4    2
