MODEL 1
REMARK VINA RESULT:      -7.9      0.000      0.000
REMARK SMILES CC(=O)CCc1ccc2c(c1)OCO2
REMARK SMILES IDX 4 1 2 2 1 3 3 4 5 5 6 6 7 7 11 8 8 9 10 10 9 11 12 12 14 13
REMARK SMILES IDX 13 14
REMARK H PARENT
REMARK Flexibility Score: inf
ROOT
ATOM      1  C   UNL     1       5.463   2.877   0.070  1.00  0.00     0.080 C 
ENDROOT
BRANCH   1   2
ATOM      2  C   UNL     1       6.274   3.797   0.915  1.00  0.00     0.130 C 
ATOM      3  C   UNL     1       7.227   4.770   0.318  1.00  0.00     0.087 C 
ATOM      4  O   UNL     1       6.179   3.778   2.132  1.00  0.00    -0.300 OA
ENDBRANCH   1   2
BRANCH   1   5
ATOM      5  C   UNL     1       5.186   1.571   0.787  1.00  0.00     0.043 C 
BRANCH   5   6
ATOM      6  C   UNL     1       6.021   0.474   0.266  1.00  0.00    -0.044 A 
ATOM      7  C   UNL     1       6.360  -0.629   1.058  1.00  0.00     0.008 A 
ATOM      8  C   UNL     1       6.480   0.523  -1.031  1.00  0.00     0.054 A 
ATOM      9  C   UNL     1       7.146  -1.629   0.514  1.00  0.00     0.051 A 
ATOM     10  C   UNL     1       7.274  -0.491  -1.576  1.00  0.00     0.166 A 
ATOM     11  C   UNL     1       7.610  -1.575  -0.797  1.00  0.00     0.165 A 
ATOM     12  O   UNL     1       7.847  -0.671  -2.817  1.00  0.00    -0.454 OA
ATOM     13  O   UNL     1       8.389  -2.408  -1.584  1.00  0.00    -0.454 OA
ATOM     14  C   UNL     1       8.489  -1.917  -2.899  1.00  0.00     0.468 C 
ENDBRANCH   5   6
ENDBRANCH   1   5
TORSDOF 3
ENDMDL
MODEL 2
REMARK VINA RESULT:      -7.7      1.881      2.625
REMARK SMILES CC(=O)CCc1ccc2c(c1)OCO2
REMARK SMILES IDX 4 1 2 2 1 3 3 4 5 5 6 6 7 7 11 8 8 9 10 10 9 11 12 12 14 13
REMARK SMILES IDX 13 14
REMARK H PARENT
REMARK Flexibility Score: inf
ROOT
ATOM      1  C   UNL     1       5.514   1.918   1.263  1.00  0.00     0.080 C 
ENDROOT
BRANCH   1   2
ATOM      2  C   UNL     1       5.065   0.705   2.002  1.00  0.00     0.130 C 
ATOM      3  C   UNL     1       5.945  -0.484   2.159  1.00  0.00     0.087 C 
ATOM      4  O   UNL     1       3.953   0.651   2.501  1.00  0.00    -0.300 OA
ENDBRANCH   1   2
BRANCH   1   5
ATOM      5  C   UNL     1       5.390   1.728  -0.236  1.00  0.00     0.043 C 
BRANCH   5   6
ATOM      6  C   UNL     1       6.559   1.028  -0.797  1.00  0.00    -0.044 A 
ATOM      7  C   UNL     1       7.865   1.466  -0.548  1.00  0.00     0.008 A 
ATOM      8  C   UNL     1       6.374  -0.087  -1.583  1.00  0.00     0.054 A 
ATOM      9  C   UNL     1       8.923   0.769  -1.101  1.00  0.00     0.051 A 
ATOM     10  C   UNL     1       7.448  -0.789  -2.139  1.00  0.00     0.166 A 
ATOM     11  C   UNL     1       8.733  -0.357  -1.896  1.00  0.00     0.165 A 
ATOM     12  O   UNL     1       7.525  -1.907  -2.942  1.00  0.00    -0.454 OA
ATOM     13  O   UNL     1       9.581  -1.229  -2.561  1.00  0.00    -0.454 OA
ATOM     14  C   UNL     1       8.861  -2.279  -3.162  1.00  0.00     0.468 C 
ENDBRANCH   5   6
ENDBRANCH   1   5
TORSDOF 3
ENDMDL
MODEL 3
REMARK VINA RESULT:      -7.5      1.950      2.987
REMARK SMILES CC(=O)CCc1ccc2c(c1)OCO2
REMARK SMILES IDX 4 1 2 2 1 3 3 4 5 5 6 6 7 7 11 8 8 9 10 10 9 11 12 12 14 13
REMARK SMILES IDX 13 14
REMARK H PARENT
REMARK Flexibility Score: inf
ROOT
ATOM      1  C   UNL     1       5.777   1.376  -0.357  1.00  0.00     0.080 C 
ENDROOT
BRANCH   1   2
ATOM      2  C   UNL     1       5.139   1.325   0.988  1.00  0.00     0.130 C 
ATOM      3  C   UNL     1       5.410   0.215   1.940  1.00  0.00     0.087 C 
ATOM      4  O   UNL     1       4.369   2.200   1.350  1.00  0.00    -0.300 OA
ENDBRANCH   1   2
BRANCH   1   5
ATOM      5  C   UNL     1       7.267   1.114  -0.269  1.00  0.00     0.043 C 
BRANCH   5   6
ATOM      6  C   UNL     1       7.630  -0.182  -0.870  1.00  0.00    -0.044 A 
ATOM      7  C   UNL     1       7.697  -0.354  -2.257  1.00  0.00     0.008 A 
ATOM      8  C   UNL     1       7.916  -1.255  -0.057  1.00  0.00     0.054 A 
ATOM      9  C   UNL     1       8.044  -1.593  -2.764  1.00  0.00     0.051 A 
ATOM     10  C   UNL     1       8.267  -2.505  -0.574  1.00  0.00     0.166 A 
ATOM     11  C   UNL     1       8.331  -2.676  -1.939  1.00  0.00     0.165 A 
ATOM     12  O   UNL     1       8.590  -3.709   0.016  1.00  0.00    -0.454 OA
ATOM     13  O   UNL     1       8.698  -3.994  -2.162  1.00  0.00    -0.454 OA
ATOM     14  C   UNL     1       8.960  -4.660  -0.950  1.00  0.00     0.468 C 
ENDBRANCH   5   6
ENDBRANCH   1   5
TORSDOF 3
ENDMDL
