@<TRIPOS>MOLECULE
/home/cewinharhar/GITHUB/reincatalyze/data/processed/docking_pred/2023-May-22-1531_sub9_nm5_bs15_s42_ex16_mel10_mts1000_k50_ec02_g099_lra9e-4_lrc1e-3/1fd5ec6d4a6889d2560636754963a08404c0587d_ligand_9.pdbqt
 14 15 0 0 0
SMALL
GASTEIGER

@<TRIPOS>ATOM
      1  C          5.7770    1.3760   -0.3570 C.3     1  UNL1        0.0800
      2  C          5.1390    1.3250    0.9880 C.2     1  UNL1        0.1300
      3  C          5.4100    0.2150    1.9400 C.3     1  UNL1        0.0870
      4  O          4.3690    2.2000    1.3500 O.2     1  UNL1       -0.3000
      5  C          7.2670    1.1140   -0.2690 C.3     1  UNL1        0.0430
      6  C          7.6300   -0.1820   -0.8700 C.2     1  UNL1       -0.0440
      7  C          7.6970   -0.3540   -2.2570 C.2     1  UNL1        0.0080
      8  C          7.9160   -1.2550   -0.0570 C.2     1  UNL1        0.0540
      9  C          8.0440   -1.5930   -2.7640 C.2     1  UNL1        0.0510
     10  C          8.2670   -2.5050   -0.5740 C.2     1  UNL1        0.1660
     11  C          8.3310   -2.6760   -1.9390 C.2     1  UNL1        0.1650
     12  O          8.5900   -3.7090    0.0160 O.2     1  UNL1       -0.4540
     13  O          8.6980   -3.9940   -2.1620 O.2     1  UNL1       -0.4540
     14  C          8.9600   -4.6600   -0.9500 C.3     1  UNL1        0.4680
@<TRIPOS>BOND
     1     9     7    1
     2     9    11    2
     3     7     6    2
     4    13    11    1
     5    13    14    1
     6    11    10    1
     7    14    12    1
     8     6     5    1
     9     6     8    1
    10    10     8    2
    11    10    12    1
    12     1     5    1
    13     1     2    1
    14     2     4    2
    15     2     3    1
