@<TRIPOS>MOLECULE
/home/cewinharhar/GITHUB/reincatalyze/data/processed/docking_pred/2023-May-22-1531_sub9_nm5_bs15_s42_ex16_mel10_mts1000_k50_ec02_g099_lra9e-4_lrc1e-3/1fd5ec6d4a6889d2560636754963a08404c0587d_ligand_9.pdbqt
 14 15 0 0 0
SMALL
GASTEIGER

@<TRIPOS>ATOM
      1  C          5.4630    2.8770    0.0700 C.3     1  UNL1        0.0800
      2  C          6.2740    3.7970    0.9150 C.2     1  UNL1        0.1300
      3  C          7.2270    4.7700    0.3180 C.3     1  UNL1        0.0870
      4  O          6.1790    3.7780    2.1320 O.2     1  UNL1       -0.3000
      5  C          5.1860    1.5710    0.7870 C.3     1  UNL1        0.0430
      6  C          6.0210    0.4740    0.2660 C.2     1  UNL1       -0.0440
      7  C          6.3600   -0.6290    1.0580 C.2     1  UNL1        0.0080
      8  C          6.4800    0.5230   -1.0310 C.2     1  UNL1        0.0540
      9  C          7.1460   -1.6290    0.5140 C.2     1  UNL1        0.0510
     10  C          7.2740   -0.4910   -1.5760 C.2     1  UNL1        0.1660
     11  C          7.6100   -1.5750   -0.7970 C.2     1  UNL1        0.1650
     12  O          7.8470   -0.6710   -2.8170 O.2     1  UNL1       -0.4540
     13  O          8.3890   -2.4080   -1.5840 O.2     1  UNL1       -0.4540
     14  C          8.4890   -1.9170   -2.8990 C.3     1  UNL1        0.4680
@<TRIPOS>BOND
     1    14    12    1
     2    14    13    1
     3    12    10    1
     4    13    11    1
     5    10     8    1
     6    10    11    2
     7     8     6    2
     8    11     9    1
     9     1     5    1
    10     1     2    1
    11     6     5    1
    12     6     7    1
    13     3     2    1
    14     9     7    2
    15     2     4    2
