@<TRIPOS>MOLECULE
/home/cewinharhar/GITHUB/reincatalyze/data/processed/docking_pred/2023-May-22-1531_sub9_nm5_bs15_s42_ex16_mel10_mts1000_k50_ec02_g099_lra9e-4_lrc1e-3/2037f81c995398ea407fbfc0a5ecaefc5001139a_ligand_9.pdbqt
 14 15 0 0 0
SMALL
GASTEIGER

@<TRIPOS>ATOM
      1  C          5.8490    1.6070    0.8880 C.3     1  UNL1        0.0800
      2  C          5.3890    0.5910    1.8750 C.2     1  UNL1        0.1300
      3  C          6.2190   -0.5940    2.2200 C.3     1  UNL1        0.0870
      4  O          4.3090    0.7030    2.4330 O.2     1  UNL1       -0.3000
      5  C          5.7630    1.0760   -0.5290 C.3     1  UNL1        0.0430
      6  C          7.0140    0.4150   -0.9410 C.2     1  UNL1       -0.0440
      7  C          8.2620    1.0160   -0.7390 C.2     1  UNL1        0.0080
      8  C          6.9670   -0.8240   -1.5380 C.2     1  UNL1        0.0540
      9  C          9.4030    0.3480   -1.1450 C.2     1  UNL1        0.0510
     10  C          8.1230   -1.4960   -1.9470 C.2     1  UNL1        0.1660
     11  C          9.3510   -0.9050   -1.7490 C.2     1  UNL1        0.1650
     12  O          8.3360   -2.7150   -2.5540 O.2     1  UNL1       -0.4540
     13  O         10.3030   -1.7830   -2.2430 O.2     1  UNL1       -0.4540
     14  C          9.7090   -2.9820   -2.6800 C.3     1  UNL1        0.4680
@<TRIPOS>BOND
     1    14    12    1
     2    14    13    1
     3    12    10    1
     4    13    11    1
     5    10    11    2
     6    10     8    1
     7    11     9    1
     8     8     6    2
     9     9     7    2
    10     6     7    1
    11     6     5    1
    12     5     1    1
    13     1     2    1
    14     2     3    1
    15     2     4    2
