@<TRIPOS>MOLECULE
/home/cewinharhar/GITHUB/reincatalyze/data/processed/docking_pred/2023-May-22-1531_sub9_nm5_bs15_s42_ex16_mel10_mts1000_k50_ec02_g099_lra9e-4_lrc1e-3/2037f81c995398ea407fbfc0a5ecaefc5001139a_ligand_9.pdbqt
 14 15 0 0 0
SMALL
GASTEIGER

@<TRIPOS>ATOM
      1  C          5.7130    1.1160   -0.3210 C.3     1  UNL1        0.0800
      2  C          5.3340    2.2830    0.5230 C.2     1  UNL1        0.1300
      3  C          6.1260    3.5420    0.5140 C.3     1  UNL1        0.0870
      4  O          4.3560    2.2390    1.2510 O.2     1  UNL1       -0.3000
      5  C          6.4190    0.0520    0.4960 C.3     1  UNL1        0.0430
      6  C          7.8360   -0.0790    0.1150 C.2     1  UNL1       -0.0440
      7  C          8.4400    0.8120   -0.7790 C.2     1  UNL1        0.0080
      8  C          8.5950   -1.0970    0.6480 C.2     1  UNL1        0.0540
      9  C          9.7750    0.6410   -1.0990 C.2     1  UNL1        0.0510
     10  C          9.9440   -1.2660    0.3210 C.2     1  UNL1        0.1660
     11  C         10.5380   -0.3900   -0.5600 C.2     1  UNL1        0.1650
     12  O         10.8970   -2.1830    0.7090 O.2     1  UNL1       -0.4540
     13  O         11.8580   -0.7920   -0.6950 O.2     1  UNL1       -0.4540
     14  C         12.1510   -1.8700    0.1610 C.3     1  UNL1        0.4680
@<TRIPOS>BOND
     1     9     7    1
     2     9    11    2
     3     7     6    2
     4    13    11    1
     5    13    14    1
     6    11    10    1
     7     1     5    1
     8     1     2    1
     9     6     5    1
    10     6     8    1
    11    14    12    1
    12    10     8    2
    13    10    12    1
    14     3     2    1
    15     2     4    2
