MODEL 1
REMARK VINA RESULT:      -8.1      0.000      0.000
REMARK SMILES CC(=O)CCc1ccc2c(c1)OCO2
REMARK SMILES IDX 4 1 2 2 1 3 3 4 5 5 6 6 7 7 11 8 8 9 10 10 9 11 12 12 14 13
REMARK SMILES IDX 13 14
REMARK H PARENT
REMARK Flexibility Score: inf
ROOT
ATOM      1  C   UNL     1       5.849   1.607   0.888  1.00  0.00     0.080 C 
ENDROOT
BRANCH   1   2
ATOM      2  C   UNL     1       5.389   0.591   1.875  1.00  0.00     0.130 C 
ATOM      3  C   UNL     1       6.219  -0.594   2.220  1.00  0.00     0.087 C 
ATOM      4  O   UNL     1       4.309   0.703   2.433  1.00  0.00    -0.300 OA
ENDBRANCH   1   2
BRANCH   1   5
ATOM      5  C   UNL     1       5.763   1.076  -0.529  1.00  0.00     0.043 C 
BRANCH   5   6
ATOM      6  C   UNL     1       7.014   0.415  -0.941  1.00  0.00    -0.044 A 
ATOM      7  C   UNL     1       8.262   1.016  -0.739  1.00  0.00     0.008 A 
ATOM      8  C   UNL     1       6.967  -0.824  -1.538  1.00  0.00     0.054 A 
ATOM      9  C   UNL     1       9.403   0.348  -1.145  1.00  0.00     0.051 A 
ATOM     10  C   UNL     1       8.123  -1.496  -1.947  1.00  0.00     0.166 A 
ATOM     11  C   UNL     1       9.351  -0.905  -1.749  1.00  0.00     0.165 A 
ATOM     12  O   UNL     1       8.336  -2.715  -2.554  1.00  0.00    -0.454 OA
ATOM     13  O   UNL     1      10.303  -1.783  -2.243  1.00  0.00    -0.454 OA
ATOM     14  C   UNL     1       9.709  -2.982  -2.680  1.00  0.00     0.468 C 
ENDBRANCH   5   6
ENDBRANCH   1   5
TORSDOF 3
ENDMDL
MODEL 2
REMARK VINA RESULT:      -7.7      2.109      2.574
REMARK SMILES CC(=O)CCc1ccc2c(c1)OCO2
REMARK SMILES IDX 4 1 2 2 1 3 3 4 5 5 6 6 7 7 11 8 8 9 10 10 9 11 12 12 14 13
REMARK SMILES IDX 13 14
REMARK H PARENT
REMARK Flexibility Score: inf
ROOT
ATOM      1  C   UNL     1       5.713   1.116  -0.321  1.00  0.00     0.080 C 
ENDROOT
BRANCH   1   2
ATOM      2  C   UNL     1       5.334   2.283   0.523  1.00  0.00     0.130 C 
ATOM      3  C   UNL     1       6.126   3.542   0.514  1.00  0.00     0.087 C 
ATOM      4  O   UNL     1       4.356   2.239   1.251  1.00  0.00    -0.300 OA
ENDBRANCH   1   2
BRANCH   1   5
ATOM      5  C   UNL     1       6.419   0.052   0.496  1.00  0.00     0.043 C 
BRANCH   5   6
ATOM      6  C   UNL     1       7.836  -0.079   0.115  1.00  0.00    -0.044 A 
ATOM      7  C   UNL     1       8.440   0.812  -0.779  1.00  0.00     0.008 A 
ATOM      8  C   UNL     1       8.595  -1.097   0.648  1.00  0.00     0.054 A 
ATOM      9  C   UNL     1       9.775   0.641  -1.099  1.00  0.00     0.051 A 
ATOM     10  C   UNL     1       9.944  -1.266   0.321  1.00  0.00     0.166 A 
ATOM     11  C   UNL     1      10.538  -0.390  -0.560  1.00  0.00     0.165 A 
ATOM     12  O   UNL     1      10.897  -2.183   0.709  1.00  0.00    -0.454 OA
ATOM     13  O   UNL     1      11.858  -0.792  -0.695  1.00  0.00    -0.454 OA
ATOM     14  C   UNL     1      12.151  -1.870   0.161  1.00  0.00     0.468 C 
ENDBRANCH   5   6
ENDBRANCH   1   5
TORSDOF 3
ENDMDL
MODEL 3
REMARK VINA RESULT:      -7.5      1.864      2.814
REMARK SMILES CC(=O)CCc1ccc2c(c1)OCO2
REMARK SMILES IDX 4 1 2 2 1 3 3 4 5 5 6 6 7 7 11 8 8 9 10 10 9 11 12 12 14 13
REMARK SMILES IDX 13 14
REMARK H PARENT
REMARK Flexibility Score: inf
ROOT
ATOM      1  C   UNL     1       5.451   2.946   0.084  1.00  0.00     0.080 C 
ENDROOT
BRANCH   1   2
ATOM      2  C   UNL     1       6.302   3.819   0.940  1.00  0.00     0.130 C 
ATOM      3  C   UNL     1       7.278   4.775   0.352  1.00  0.00     0.087 C 
ATOM      4  O   UNL     1       6.222   3.774   2.157  1.00  0.00    -0.300 OA
ENDBRANCH   1   2
BRANCH   1   5
ATOM      5  C   UNL     1       5.096   1.655   0.796  1.00  0.00     0.043 C 
BRANCH   5   6
ATOM      6  C   UNL     1       5.930   0.531   0.337  1.00  0.00    -0.044 A 
ATOM      7  C   UNL     1       6.273  -0.524   1.191  1.00  0.00     0.008 A 
ATOM      8  C   UNL     1       6.387   0.505  -0.961  1.00  0.00     0.054 A 
ATOM      9  C   UNL     1       7.059  -1.553   0.705  1.00  0.00     0.051 A 
ATOM     10  C   UNL     1       7.180  -0.538  -1.448  1.00  0.00     0.166 A 
ATOM     11  C   UNL     1       7.519  -1.575  -0.608  1.00  0.00     0.165 A 
ATOM     12  O   UNL     1       7.751  -0.789  -2.678  1.00  0.00    -0.454 OA
ATOM     13  O   UNL     1       8.298  -2.451  -1.348  1.00  0.00    -0.454 OA
ATOM     14  C   UNL     1       8.394  -2.037  -2.690  1.00  0.00     0.468 C 
ENDBRANCH   5   6
ENDBRANCH   1   5
TORSDOF 3
ENDMDL
