@<TRIPOS>MOLECULE
/home/cewinharhar/GITHUB/reincatalyze/data/processed/docking_pred/2023-May-22-1531_sub9_nm5_bs15_s42_ex16_mel10_mts1000_k50_ec02_g099_lra9e-4_lrc1e-3/2037f81c995398ea407fbfc0a5ecaefc5001139a_ligand_9.pdbqt
 14 15 0 0 0
SMALL
GASTEIGER

@<TRIPOS>ATOM
      1  C          5.4510    2.9460    0.0840 C.3     1  UNL1        0.0800
      2  C          6.3020    3.8190    0.9400 C.2     1  UNL1        0.1300
      3  C          7.2780    4.7750    0.3520 C.3     1  UNL1        0.0870
      4  O          6.2220    3.7740    2.1570 O.2     1  UNL1       -0.3000
      5  C          5.0960    1.6550    0.7960 C.3     1  UNL1        0.0430
      6  C          5.9300    0.5310    0.3370 C.2     1  UNL1       -0.0440
      7  C          6.2730   -0.5240    1.1910 C.2     1  UNL1        0.0080
      8  C          6.3870    0.5050   -0.9610 C.2     1  UNL1        0.0540
      9  C          7.0590   -1.5530    0.7050 C.2     1  UNL1        0.0510
     10  C          7.1800   -0.5380   -1.4480 C.2     1  UNL1        0.1660
     11  C          7.5190   -1.5750   -0.6080 C.2     1  UNL1        0.1650
     12  O          7.7510   -0.7890   -2.6780 O.2     1  UNL1       -0.4540
     13  O          8.2980   -2.4510   -1.3480 O.2     1  UNL1       -0.4540
     14  C          8.3940   -2.0370   -2.6900 C.3     1  UNL1        0.4680
@<TRIPOS>BOND
     1    14    12    1
     2    14    13    1
     3    12    10    1
     4    10     8    1
     5    10    11    2
     6    13    11    1
     7     8     6    2
     8    11     9    1
     9     1     5    1
    10     1     2    1
    11     6     5    1
    12     6     7    1
    13     3     2    1
    14     9     7    2
    15     2     4    2
