@<TRIPOS>MOLECULE
/home/cewinharhar/GITHUB/reincatalyze/data/processed/docking_pred/2023-May-22-1531_sub9_nm5_bs15_s42_ex16_mel10_mts1000_k50_ec02_g099_lra9e-4_lrc1e-3/21195065f8807259401ec3420f3b6dd683f2acc0_ligand_9.pdbqt
 14 15 0 0 0
SMALL
GASTEIGER

@<TRIPOS>ATOM
      1  C          5.4160    2.9390    0.1470 C.3     1  UNL1        0.0800
      2  C          6.2240    3.8950    0.9540 C.2     1  UNL1        0.1300
      3  C          7.2570    4.7650    0.3300 C.3     1  UNL1        0.0870
      4  O          6.0610    3.9920    2.1590 O.2     1  UNL1       -0.3000
      5  C          5.2140    1.6300    0.8840 C.3     1  UNL1        0.0430
      6  C          6.0260    0.5460    0.3030 C.2     1  UNL1       -0.0440
      7  C          6.3500    0.5210   -1.0590 C.2     1  UNL1        0.0080
      8  C          6.4840   -0.4710    1.1090 C.2     1  UNL1        0.0540
      9  C          7.1160   -0.5210   -1.5480 C.2     1  UNL1        0.0510
     10  C          7.2580   -1.5230    0.6100 C.2     1  UNL1        0.1660
     11  C          7.5770   -1.5480   -0.7290 C.2     1  UNL1        0.1650
     12  O          7.8240   -2.6340    1.1980 O.2     1  UNL1       -0.4540
     13  O          8.3400   -2.6860   -0.9380 O.2     1  UNL1       -0.4540
     14  C          8.5970   -3.3550    0.2730 C.3     1  UNL1        0.4680
@<TRIPOS>BOND
     1     9     7    1
     2     9    11    2
     3     7     6    2
     4    13    11    1
     5    13    14    1
     6    11    10    1
     7     1     5    1
     8     1     2    1
     9    14    12    1
    10     6     5    1
    11     6     8    1
    12     3     2    1
    13    10     8    2
    14    10    12    1
    15     2     4    2
