MODEL 1
REMARK VINA RESULT:      -7.9      0.000      0.000
REMARK SMILES CC(=O)CCc1ccc2c(c1)OCO2
REMARK SMILES IDX 4 1 2 2 1 3 3 4 5 5 6 6 7 7 11 8 8 9 10 10 9 11 12 12 14 13
REMARK SMILES IDX 13 14
REMARK H PARENT
REMARK Flexibility Score: inf
ROOT
ATOM      1  C   UNL     1       5.501   2.902   0.097  1.00  0.00     0.080 C 
ENDROOT
BRANCH   1   2
ATOM      2  C   UNL     1       6.280   3.814   0.981  1.00  0.00     0.130 C 
ATOM      3  C   UNL     1       7.273   4.775   0.431  1.00  0.00     0.087 C 
ATOM      4  O   UNL     1       6.123   3.797   2.192  1.00  0.00    -0.300 OA
ENDBRANCH   1   2
BRANCH   1   5
ATOM      5  C   UNL     1       5.208   1.584   0.787  1.00  0.00     0.043 C 
BRANCH   5   6
ATOM      6  C   UNL     1       6.048   0.493   0.260  1.00  0.00    -0.044 A 
ATOM      7  C   UNL     1       6.403  -0.606   1.050  1.00  0.00     0.008 A 
ATOM      8  C   UNL     1       6.496   0.545  -1.040  1.00  0.00     0.054 A 
ATOM      9  C   UNL     1       7.192  -1.600   0.502  1.00  0.00     0.051 A 
ATOM     10  C   UNL     1       7.293  -0.463  -1.591  1.00  0.00     0.166 A 
ATOM     11  C   UNL     1       7.645  -1.544  -0.813  1.00  0.00     0.165 A 
ATOM     12  O   UNL     1       7.858  -0.640  -2.836  1.00  0.00    -0.454 OA
ATOM     13  O   UNL     1       8.424  -2.372  -1.606  1.00  0.00    -0.454 OA
ATOM     14  C   UNL     1       8.509  -1.881  -2.923  1.00  0.00     0.468 C 
ENDBRANCH   5   6
ENDBRANCH   1   5
TORSDOF 3
ENDMDL
MODEL 2
REMARK VINA RESULT:      -7.8      1.016      2.000
REMARK SMILES CC(=O)CCc1ccc2c(c1)OCO2
REMARK SMILES IDX 4 1 2 2 1 3 3 4 5 5 6 6 7 7 11 8 8 9 10 10 9 11 12 12 14 13
REMARK SMILES IDX 13 14
REMARK H PARENT
REMARK Flexibility Score: inf
ROOT
ATOM      1  C   UNL     1       5.416   2.939   0.147  1.00  0.00     0.080 C 
ENDROOT
BRANCH   1   2
ATOM      2  C   UNL     1       6.224   3.895   0.954  1.00  0.00     0.130 C 
ATOM      3  C   UNL     1       7.257   4.765   0.330  1.00  0.00     0.087 C 
ATOM      4  O   UNL     1       6.061   3.992   2.159  1.00  0.00    -0.300 OA
ENDBRANCH   1   2
BRANCH   1   5
ATOM      5  C   UNL     1       5.214   1.630   0.884  1.00  0.00     0.043 C 
BRANCH   5   6
ATOM      6  C   UNL     1       6.026   0.546   0.303  1.00  0.00    -0.044 A 
ATOM      7  C   UNL     1       6.350   0.521  -1.059  1.00  0.00     0.008 A 
ATOM      8  C   UNL     1       6.484  -0.471   1.109  1.00  0.00     0.054 A 
ATOM      9  C   UNL     1       7.116  -0.521  -1.548  1.00  0.00     0.051 A 
ATOM     10  C   UNL     1       7.258  -1.523   0.610  1.00  0.00     0.166 A 
ATOM     11  C   UNL     1       7.577  -1.548  -0.729  1.00  0.00     0.165 A 
ATOM     12  O   UNL     1       7.824  -2.634   1.198  1.00  0.00    -0.454 OA
ATOM     13  O   UNL     1       8.340  -2.686  -0.938  1.00  0.00    -0.454 OA
ATOM     14  C   UNL     1       8.597  -3.355   0.273  1.00  0.00     0.468 C 
ENDBRANCH   5   6
ENDBRANCH   1   5
TORSDOF 3
ENDMDL
MODEL 3
REMARK VINA RESULT:      -7.7      1.883      2.609
REMARK SMILES CC(=O)CCc1ccc2c(c1)OCO2
REMARK SMILES IDX 4 1 2 2 1 3 3 4 5 5 6 6 7 7 11 8 8 9 10 10 9 11 12 12 14 13
REMARK SMILES IDX 13 14
REMARK H PARENT
REMARK Flexibility Score: inf
ROOT
ATOM      1  C   UNL     1       5.534   1.903   1.276  1.00  0.00     0.080 C 
ENDROOT
BRANCH   1   2
ATOM      2  C   UNL     1       5.099   0.681   2.008  1.00  0.00     0.130 C 
ATOM      3  C   UNL     1       5.999  -0.492   2.175  1.00  0.00     0.087 C 
ATOM      4  O   UNL     1       3.982   0.607   2.495  1.00  0.00    -0.300 OA
ENDBRANCH   1   2
BRANCH   1   5
ATOM      5  C   UNL     1       5.406   1.721  -0.224  1.00  0.00     0.043 C 
BRANCH   5   6
ATOM      6  C   UNL     1       6.572   1.019  -0.790  1.00  0.00    -0.044 A 
ATOM      7  C   UNL     1       7.880   1.454  -0.545  1.00  0.00     0.008 A 
ATOM      8  C   UNL     1       6.382  -0.092  -1.579  1.00  0.00     0.054 A 
ATOM      9  C   UNL     1       8.935   0.755  -1.103  1.00  0.00     0.051 A 
ATOM     10  C   UNL     1       7.452  -0.796  -2.140  1.00  0.00     0.166 A 
ATOM     11  C   UNL     1       8.739  -0.369  -1.900  1.00  0.00     0.165 A 
ATOM     12  O   UNL     1       7.523  -1.912  -2.947  1.00  0.00    -0.454 OA
ATOM     13  O   UNL     1       9.582  -1.241  -2.571  1.00  0.00    -0.454 OA
ATOM     14  C   UNL     1       8.857  -2.287  -3.172  1.00  0.00     0.468 C 
ENDBRANCH   5   6
ENDBRANCH   1   5
TORSDOF 3
ENDMDL
