@<TRIPOS>MOLECULE
/home/cewinharhar/GITHUB/reincatalyze/data/processed/docking_pred/2023-May-22-1531_sub9_nm5_bs15_s42_ex16_mel10_mts1000_k50_ec02_g099_lra9e-4_lrc1e-3/21195065f8807259401ec3420f3b6dd683f2acc0_ligand_9.pdbqt
 14 15 0 0 0
SMALL
GASTEIGER

@<TRIPOS>ATOM
      1  C          5.5010    2.9020    0.0970 C.3     1  UNL1        0.0800
      2  C          6.2800    3.8140    0.9810 C.2     1  UNL1        0.1300
      3  C          7.2730    4.7750    0.4310 C.3     1  UNL1        0.0870
      4  O          6.1230    3.7970    2.1920 O.2     1  UNL1       -0.3000
      5  C          5.2080    1.5840    0.7870 C.3     1  UNL1        0.0430
      6  C          6.0480    0.4930    0.2600 C.2     1  UNL1       -0.0440
      7  C          6.4030   -0.6060    1.0500 C.2     1  UNL1        0.0080
      8  C          6.4960    0.5450   -1.0400 C.2     1  UNL1        0.0540
      9  C          7.1920   -1.6000    0.5020 C.2     1  UNL1        0.0510
     10  C          7.2930   -0.4630   -1.5910 C.2     1  UNL1        0.1660
     11  C          7.6450   -1.5440   -0.8130 C.2     1  UNL1        0.1650
     12  O          7.8580   -0.6400   -2.8360 O.2     1  UNL1       -0.4540
     13  O          8.4240   -2.3720   -1.6060 O.2     1  UNL1       -0.4540
     14  C          8.5090   -1.8810   -2.9230 C.3     1  UNL1        0.4680
@<TRIPOS>BOND
     1    14    12    1
     2    14    13    1
     3    12    10    1
     4    13    11    1
     5    10     8    1
     6    10    11    2
     7     8     6    2
     8    11     9    1
     9     1     5    1
    10     1     2    1
    11     6     5    1
    12     6     7    1
    13     3     2    1
    14     9     7    2
    15     2     4    2
