MODEL 1
REMARK VINA RESULT:      -8.1      0.000      0.000
REMARK SMILES CC(=O)CCc1ccc2c(c1)OCO2
REMARK SMILES IDX 4 1 2 2 1 3 3 4 5 5 6 6 7 7 11 8 8 9 10 10 9 11 12 12 14 13
REMARK SMILES IDX 13 14
REMARK H PARENT
REMARK Flexibility Score: inf
ROOT
ATOM      1  C   UNL     1       6.006   1.639   1.149  1.00  0.00     0.080 C 
ENDROOT
BRANCH   1   2
ATOM      2  C   UNL     1       5.432   0.542   1.977  1.00  0.00     0.130 C 
ATOM      3  C   UNL     1       6.217  -0.677   2.311  1.00  0.00     0.087 C 
ATOM      4  O   UNL     1       4.292   0.612   2.406  1.00  0.00    -0.300 OA
ENDBRANCH   1   2
BRANCH   1   5
ATOM      5  C   UNL     1       5.727   1.421  -0.325  1.00  0.00     0.043 C 
BRANCH   5   6
ATOM      6  C   UNL     1       6.798   0.646  -0.975  1.00  0.00    -0.044 A 
ATOM      7  C   UNL     1       8.143   1.019  -0.868  1.00  0.00     0.008 A 
ATOM      8  C   UNL     1       6.480  -0.477  -1.706  1.00  0.00     0.054 A 
ATOM      9  C   UNL     1       9.105   0.252  -1.499  1.00  0.00     0.051 A 
ATOM     10  C   UNL     1       7.457  -1.249  -2.342  1.00  0.00     0.166 A 
ATOM     11  C   UNL     1       8.780  -0.881  -2.238  1.00  0.00     0.165 A 
ATOM     12  O   UNL     1       7.397  -2.389  -3.115  1.00  0.00    -0.454 OA
ATOM     13  O   UNL     1       9.512  -1.814  -2.955  1.00  0.00    -0.454 OA
ATOM     14  C   UNL     1       8.684  -2.838  -3.452  1.00  0.00     0.468 C 
ENDBRANCH   5   6
ENDBRANCH   1   5
TORSDOF 3
ENDMDL
MODEL 2
REMARK VINA RESULT:      -7.8      1.451      2.080
REMARK SMILES CC(=O)CCc1ccc2c(c1)OCO2
REMARK SMILES IDX 4 1 2 2 1 3 3 4 5 5 6 6 7 7 11 8 8 9 10 10 9 11 12 12 14 13
REMARK SMILES IDX 13 14
REMARK H PARENT
REMARK Flexibility Score: inf
ROOT
ATOM      1  C   UNL     1       5.608   2.785  -0.204  1.00  0.00     0.080 C 
ENDROOT
BRANCH   1   2
ATOM      2  C   UNL     1       6.265   3.614   0.845  1.00  0.00     0.130 C 
ATOM      3  C   UNL     1       7.128   4.774   0.495  1.00  0.00     0.087 C 
ATOM      4  O   UNL     1       6.114   3.362   2.029  1.00  0.00    -0.300 OA
ENDBRANCH   1   2
BRANCH   1   5
ATOM      5  C   UNL     1       5.694   1.308   0.128  1.00  0.00     0.043 C 
BRANCH   5   6
ATOM      6  C   UNL     1       6.769   0.641  -0.629  1.00  0.00    -0.044 A 
ATOM      7  C   UNL     1       8.073   1.149  -0.653  1.00  0.00     0.008 A 
ATOM      8  C   UNL     1       6.495  -0.512  -1.329  1.00  0.00     0.054 A 
ATOM      9  C   UNL     1       9.040   0.479  -1.379  1.00  0.00     0.051 A 
ATOM     10  C   UNL     1       7.477  -1.186  -2.061  1.00  0.00     0.166 A 
ATOM     11  C   UNL     1       8.760  -0.686  -2.087  1.00  0.00     0.165 A 
ATOM     12  O   UNL     1       7.457  -2.331  -2.829  1.00  0.00    -0.454 OA
ATOM     13  O   UNL     1       9.509  -1.544  -2.877  1.00  0.00    -0.454 OA
ATOM     14  C   UNL     1       8.744  -2.649  -3.294  1.00  0.00     0.468 C 
ENDBRANCH   5   6
ENDBRANCH   1   5
TORSDOF 3
ENDMDL
MODEL 3
REMARK VINA RESULT:      -7.6      2.426      3.107
REMARK SMILES CC(=O)CCc1ccc2c(c1)OCO2
REMARK SMILES IDX 4 1 2 2 1 3 3 4 5 5 6 6 7 7 11 8 8 9 10 10 9 11 12 12 14 13
REMARK SMILES IDX 13 14
REMARK H PARENT
REMARK Flexibility Score: inf
ROOT
ATOM      1  C   UNL     1       5.412   2.939   0.282  1.00  0.00     0.080 C 
ENDROOT
BRANCH   1   2
ATOM      2  C   UNL     1       6.258   3.867   1.084  1.00  0.00     0.130 C 
ATOM      3  C   UNL     1       7.246   4.775   0.442  1.00  0.00     0.087 C 
ATOM      4  O   UNL     1       6.163   3.908   2.300  1.00  0.00    -0.300 OA
ENDBRANCH   1   2
BRANCH   1   5
ATOM      5  C   UNL     1       5.228   1.611   0.990  1.00  0.00     0.043 C 
BRANCH   5   6
ATOM      6  C   UNL     1       6.051   0.550   0.383  1.00  0.00    -0.044 A 
ATOM      7  C   UNL     1       6.449   0.606  -0.957  1.00  0.00     0.008 A 
ATOM      8  C   UNL     1       6.446  -0.526   1.145  1.00  0.00     0.054 A 
ATOM      9  C   UNL     1       7.221  -0.419  -1.472  1.00  0.00     0.051 A 
ATOM     10  C   UNL     1       7.228  -1.560   0.621  1.00  0.00     0.166 A 
ATOM     11  C   UNL     1       7.618  -1.506  -0.699  1.00  0.00     0.165 A 
ATOM     12  O   UNL     1       7.741  -2.719   1.164  1.00  0.00    -0.454 OA
ATOM     13  O   UNL     1       8.372  -2.644  -0.941  1.00  0.00    -0.454 OA
ATOM     14  C   UNL     1       8.551  -3.395   0.236  1.00  0.00     0.468 C 
ENDBRANCH   5   6
ENDBRANCH   1   5
TORSDOF 3
ENDMDL
