@<TRIPOS>MOLECULE
/home/cewinharhar/GITHUB/reincatalyze/data/processed/docking_pred/2023-May-22-1531_sub9_nm5_bs15_s42_ex16_mel10_mts1000_k50_ec02_g099_lra9e-4_lrc1e-3/2368d29bb7bbfa5e31d33bb3936e2ea89938fe66_ligand_9.pdbqt
 14 15 0 0 0
SMALL
GASTEIGER

@<TRIPOS>ATOM
      1  C          5.6080    2.7850   -0.2040 C.3     1  UNL1        0.0800
      2  C          6.2650    3.6140    0.8450 C.2     1  UNL1        0.1300
      3  C          7.1280    4.7740    0.4950 C.3     1  UNL1        0.0870
      4  O          6.1140    3.3620    2.0290 O.2     1  UNL1       -0.3000
      5  C          5.6940    1.3080    0.1280 C.3     1  UNL1        0.0430
      6  C          6.7690    0.6410   -0.6290 C.2     1  UNL1       -0.0440
      7  C          8.0730    1.1490   -0.6530 C.2     1  UNL1        0.0080
      8  C          6.4950   -0.5120   -1.3290 C.2     1  UNL1        0.0540
      9  C          9.0400    0.4790   -1.3790 C.2     1  UNL1        0.0510
     10  C          7.4770   -1.1860   -2.0610 C.2     1  UNL1        0.1660
     11  C          8.7600   -0.6860   -2.0870 C.2     1  UNL1        0.1650
     12  O          7.4570   -2.3310   -2.8290 O.2     1  UNL1       -0.4540
     13  O          9.5090   -1.5440   -2.8770 O.2     1  UNL1       -0.4540
     14  C          8.7440   -2.6490   -3.2940 C.3     1  UNL1        0.4680
@<TRIPOS>BOND
     1    14    13    1
     2    14    12    1
     3    13    11    1
     4    12    10    1
     5    11    10    2
     6    11     9    1
     7    10     8    1
     8     9     7    2
     9     8     6    2
    10     7     6    1
    11     6     5    1
    12     1     5    1
    13     1     2    1
    14     3     2    1
    15     2     4    2
