@<TRIPOS>MOLECULE
/home/cewinharhar/GITHUB/reincatalyze/data/processed/docking_pred/2023-May-22-1531_sub9_nm5_bs15_s42_ex16_mel10_mts1000_k50_ec02_g099_lra9e-4_lrc1e-3/2368d29bb7bbfa5e31d33bb3936e2ea89938fe66_ligand_9.pdbqt
 14 15 0 0 0
SMALL
GASTEIGER

@<TRIPOS>ATOM
      1  C          6.0060    1.6390    1.1490 C.3     1  UNL1        0.0800
      2  C          5.4320    0.5420    1.9770 C.2     1  UNL1        0.1300
      3  C          6.2170   -0.6770    2.3110 C.3     1  UNL1        0.0870
      4  O          4.2920    0.6120    2.4060 O.2     1  UNL1       -0.3000
      5  C          5.7270    1.4210   -0.3250 C.3     1  UNL1        0.0430
      6  C          6.7980    0.6460   -0.9750 C.2     1  UNL1       -0.0440
      7  C          8.1430    1.0190   -0.8680 C.2     1  UNL1        0.0080
      8  C          6.4800   -0.4770   -1.7060 C.2     1  UNL1        0.0540
      9  C          9.1050    0.2520   -1.4990 C.2     1  UNL1        0.0510
     10  C          7.4570   -1.2490   -2.3420 C.2     1  UNL1        0.1660
     11  C          8.7800   -0.8810   -2.2380 C.2     1  UNL1        0.1650
     12  O          7.3970   -2.3890   -3.1150 O.2     1  UNL1       -0.4540
     13  O          9.5120   -1.8140   -2.9550 O.2     1  UNL1       -0.4540
     14  C          8.6840   -2.8380   -3.4520 C.3     1  UNL1        0.4680
@<TRIPOS>BOND
     1    14    12    1
     2    14    13    1
     3    12    10    1
     4    13    11    1
     5    10    11    2
     6    10     8    1
     7    11     9    1
     8     8     6    2
     9     9     7    2
    10     6     7    1
    11     6     5    1
    12     5     1    1
    13     1     2    1
    14     2     3    1
    15     2     4    2
