@<TRIPOS>MOLECULE
/home/cewinharhar/GITHUB/reincatalyze/data/processed/docking_pred/2023-May-22-1531_sub9_nm5_bs15_s42_ex16_mel10_mts1000_k50_ec02_g099_lra9e-4_lrc1e-3/2368d29bb7bbfa5e31d33bb3936e2ea89938fe66_ligand_9.pdbqt
 14 15 0 0 0
SMALL
GASTEIGER

@<TRIPOS>ATOM
      1  C          5.4120    2.9390    0.2820 C.3     1  UNL1        0.0800
      2  C          6.2580    3.8670    1.0840 C.2     1  UNL1        0.1300
      3  C          7.2460    4.7750    0.4420 C.3     1  UNL1        0.0870
      4  O          6.1630    3.9080    2.3000 O.2     1  UNL1       -0.3000
      5  C          5.2280    1.6110    0.9900 C.3     1  UNL1        0.0430
      6  C          6.0510    0.5500    0.3830 C.2     1  UNL1       -0.0440
      7  C          6.4490    0.6060   -0.9570 C.2     1  UNL1        0.0080
      8  C          6.4460   -0.5260    1.1450 C.2     1  UNL1        0.0540
      9  C          7.2210   -0.4190   -1.4720 C.2     1  UNL1        0.0510
     10  C          7.2280   -1.5600    0.6210 C.2     1  UNL1        0.1660
     11  C          7.6180   -1.5060   -0.6990 C.2     1  UNL1        0.1650
     12  O          7.7410   -2.7190    1.1640 O.2     1  UNL1       -0.4540
     13  O          8.3720   -2.6440   -0.9410 O.2     1  UNL1       -0.4540
     14  C          8.5510   -3.3950    0.2360 C.3     1  UNL1        0.4680
@<TRIPOS>BOND
     1     9     7    1
     2     9    11    2
     3     7     6    2
     4    13    11    1
     5    13    14    1
     6    11    10    1
     7    14    12    1
     8     1     5    1
     9     1     2    1
    10     6     5    1
    11     6     8    1
    12     3     2    1
    13    10     8    2
    14    10    12    1
    15     2     4    2
