@<TRIPOS>MOLECULE
/home/cewinharhar/GITHUB/reincatalyze/data/processed/docking_pred/2023-May-22-1531_sub9_nm5_bs15_s42_ex16_mel10_mts1000_k50_ec02_g099_lra9e-4_lrc1e-3/25ea22f039de2039e6eb222be1b9c38742a73e8b_ligand_9.pdbqt
 14 15 0 0 0
SMALL
GASTEIGER

@<TRIPOS>ATOM
      1  C          7.1300    2.0110    0.1790 C.3     1  UNL1        0.0800
      2  C          5.9650    2.8020    0.6660 C.2     1  UNL1        0.1300
      3  C          4.6210    2.6770    0.0420 C.3     1  UNL1        0.0870
      4  O          6.0820    3.5800    1.5990 O.2     1  UNL1       -0.3000
      5  C          6.7000    0.9580   -0.8230 C.3     1  UNL1        0.0430
      6  C          7.2580   -0.3660   -0.4980 C.2     1  UNL1       -0.0440
      7  C          7.4370   -0.7810    0.8270 C.2     1  UNL1        0.0080
      8  C          7.6140   -1.2250   -1.5130 C.2     1  UNL1        0.0540
      9  C          7.9650   -2.0350    1.0720 C.2     1  UNL1        0.0510
     10  C          8.1470   -2.4920   -1.2600 C.2     1  UNL1        0.1660
     11  C          8.3240   -2.9010    0.0430 C.2     1  UNL1        0.1650
     12  O          8.5730   -3.5140   -2.0820 O.2     1  UNL1       -0.4540
     13  O          8.8600   -4.1780   -0.0070 O.2     1  UNL1       -0.4540
     14  C          8.9490   -4.6410   -1.3330 C.3     1  UNL1        0.4680
@<TRIPOS>BOND
     1    12    14    1
     2    12    10    1
     3     8    10    1
     4     8     6    2
     5    14    13    1
     6    10    11    2
     7     5     6    1
     8     5     1    1
     9     6     7    1
    10    13    11    1
    11     3     2    1
    12    11     9    1
    13     1     2    1
    14     2     4    2
    15     7     9    2
