MODEL 1
REMARK VINA RESULT:      -7.6      0.000      0.000
REMARK SMILES CC(=O)CCc1ccc2c(c1)OCO2
REMARK SMILES IDX 4 1 2 2 1 3 3 4 5 5 6 6 7 7 11 8 8 9 10 10 9 11 12 12 14 13
REMARK SMILES IDX 13 14
REMARK H PARENT
REMARK Flexibility Score: inf
ROOT
ATOM      1  C   UNL     1       5.533   1.925   1.262  1.00  0.00     0.080 C 
ENDROOT
BRANCH   1   2
ATOM      2  C   UNL     1       5.105   0.706   2.003  1.00  0.00     0.130 C 
ATOM      3  C   UNL     1       6.013  -0.459   2.181  1.00  0.00     0.087 C 
ATOM      4  O   UNL     1       3.988   0.627   2.489  1.00  0.00    -0.300 OA
ENDBRANCH   1   2
BRANCH   1   5
ATOM      5  C   UNL     1       5.407   1.732  -0.236  1.00  0.00     0.043 C 
BRANCH   5   6
ATOM      6  C   UNL     1       6.573   1.025  -0.795  1.00  0.00    -0.044 A 
ATOM      7  C   UNL     1       7.881   1.450  -0.538  1.00  0.00     0.008 A 
ATOM      8  C   UNL     1       6.382  -0.083  -1.590  1.00  0.00     0.054 A 
ATOM      9  C   UNL     1       8.936   0.746  -1.090  1.00  0.00     0.051 A 
ATOM     10  C   UNL     1       7.452  -0.791  -2.145  1.00  0.00     0.166 A 
ATOM     11  C   UNL     1       8.739  -0.373  -1.893  1.00  0.00     0.165 A 
ATOM     12  O   UNL     1       7.522  -1.905  -2.955  1.00  0.00    -0.454 OA
ATOM     13  O   UNL     1       9.583  -1.248  -2.560  1.00  0.00    -0.454 OA
ATOM     14  C   UNL     1       8.856  -2.288  -3.171  1.00  0.00     0.468 C 
ENDBRANCH   5   6
ENDBRANCH   1   5
TORSDOF 3
ENDMDL
MODEL 2
REMARK VINA RESULT:      -7.5      1.938      2.418
REMARK SMILES CC(=O)CCc1ccc2c(c1)OCO2
REMARK SMILES IDX 4 1 2 2 1 3 3 4 5 5 6 6 7 7 11 8 8 9 10 10 9 11 12 12 14 13
REMARK SMILES IDX 13 14
REMARK H PARENT
REMARK Flexibility Score: inf
ROOT
ATOM      1  C   UNL     1       5.747   1.308  -0.335  1.00  0.00     0.080 C 
ENDROOT
BRANCH   1   2
ATOM      2  C   UNL     1       5.182   1.308   1.044  1.00  0.00     0.130 C 
ATOM      3  C   UNL     1       5.350   0.145   1.956  1.00  0.00     0.087 C 
ATOM      4  O   UNL     1       4.561   2.269   1.466  1.00  0.00    -0.300 OA
ENDBRANCH   1   2
BRANCH   1   5
ATOM      5  C   UNL     1       7.247   1.090  -0.315  1.00  0.00     0.043 C 
BRANCH   5   6
ATOM      6  C   UNL     1       7.619  -0.209  -0.903  1.00  0.00    -0.044 A 
ATOM      7  C   UNL     1       7.685  -0.394  -2.289  1.00  0.00     0.008 A 
ATOM      8  C   UNL     1       7.911  -1.272  -0.079  1.00  0.00     0.054 A 
ATOM      9  C   UNL     1       8.040  -1.636  -2.784  1.00  0.00     0.051 A 
ATOM     10  C   UNL     1       8.271  -2.525  -0.584  1.00  0.00     0.166 A 
ATOM     11  C   UNL     1       8.335  -2.708  -1.948  1.00  0.00     0.165 A 
ATOM     12  O   UNL     1       8.602  -3.721   0.017  1.00  0.00    -0.454 OA
ATOM     13  O   UNL     1       8.710  -4.026  -2.158  1.00  0.00    -0.454 OA
ATOM     14  C   UNL     1       8.978  -4.679  -0.939  1.00  0.00     0.468 C 
ENDBRANCH   5   6
ENDBRANCH   1   5
TORSDOF 3
ENDMDL
MODEL 3
REMARK VINA RESULT:      -7.1      2.322      2.837
REMARK SMILES CC(=O)CCc1ccc2c(c1)OCO2
REMARK SMILES IDX 4 1 2 2 1 3 3 4 5 5 6 6 7 7 11 8 8 9 10 10 9 11 12 12 14 13
REMARK SMILES IDX 13 14
REMARK H PARENT
REMARK Flexibility Score: inf
ROOT
ATOM      1  C   UNL     1       7.130   2.011   0.179  1.00  0.00     0.080 C 
ENDROOT
BRANCH   1   2
ATOM      2  C   UNL     1       5.965   2.802   0.666  1.00  0.00     0.130 C 
ATOM      3  C   UNL     1       4.621   2.677   0.042  1.00  0.00     0.087 C 
ATOM      4  O   UNL     1       6.082   3.580   1.599  1.00  0.00    -0.300 OA
ENDBRANCH   1   2
BRANCH   1   5
ATOM      5  C   UNL     1       6.700   0.958  -0.823  1.00  0.00     0.043 C 
BRANCH   5   6
ATOM      6  C   UNL     1       7.258  -0.366  -0.498  1.00  0.00    -0.044 A 
ATOM      7  C   UNL     1       7.437  -0.781   0.827  1.00  0.00     0.008 A 
ATOM      8  C   UNL     1       7.614  -1.225  -1.513  1.00  0.00     0.054 A 
ATOM      9  C   UNL     1       7.965  -2.035   1.072  1.00  0.00     0.051 A 
ATOM     10  C   UNL     1       8.147  -2.492  -1.260  1.00  0.00     0.166 A 
ATOM     11  C   UNL     1       8.324  -2.901   0.043  1.00  0.00     0.165 A 
ATOM     12  O   UNL     1       8.573  -3.514  -2.082  1.00  0.00    -0.454 OA
ATOM     13  O   UNL     1       8.860  -4.178  -0.007  1.00  0.00    -0.454 OA
ATOM     14  C   UNL     1       8.949  -4.641  -1.333  1.00  0.00     0.468 C 
ENDBRANCH   5   6
ENDBRANCH   1   5
TORSDOF 3
ENDMDL
