@<TRIPOS>MOLECULE
/home/cewinharhar/GITHUB/reincatalyze/data/processed/docking_pred/2023-May-22-1531_sub9_nm5_bs15_s42_ex16_mel10_mts1000_k50_ec02_g099_lra9e-4_lrc1e-3/25ea22f039de2039e6eb222be1b9c38742a73e8b_ligand_9.pdbqt
 14 15 0 0 0
SMALL
GASTEIGER

@<TRIPOS>ATOM
      1  C          5.5330    1.9250    1.2620 C.3     1  UNL1        0.0800
      2  C          5.1050    0.7060    2.0030 C.2     1  UNL1        0.1300
      3  C          6.0130   -0.4590    2.1810 C.3     1  UNL1        0.0870
      4  O          3.9880    0.6270    2.4890 O.2     1  UNL1       -0.3000
      5  C          5.4070    1.7320   -0.2360 C.3     1  UNL1        0.0430
      6  C          6.5730    1.0250   -0.7950 C.2     1  UNL1       -0.0440
      7  C          7.8810    1.4500   -0.5380 C.2     1  UNL1        0.0080
      8  C          6.3820   -0.0830   -1.5900 C.2     1  UNL1        0.0540
      9  C          8.9360    0.7460   -1.0900 C.2     1  UNL1        0.0510
     10  C          7.4520   -0.7910   -2.1450 C.2     1  UNL1        0.1660
     11  C          8.7390   -0.3730   -1.8930 C.2     1  UNL1        0.1650
     12  O          7.5220   -1.9050   -2.9550 O.2     1  UNL1       -0.4540
     13  O          9.5830   -1.2480   -2.5600 O.2     1  UNL1       -0.4540
     14  C          8.8560   -2.2880   -3.1710 C.3     1  UNL1        0.4680
@<TRIPOS>BOND
     1    14    12    1
     2    14    13    1
     3    12    10    1
     4    13    11    1
     5    10    11    2
     6    10     8    1
     7    11     9    1
     8     8     6    2
     9     9     7    2
    10     6     7    1
    11     6     5    1
    12     5     1    1
    13     1     2    1
    14     2     3    1
    15     2     4    2
