@<TRIPOS>MOLECULE
/home/cewinharhar/GITHUB/reincatalyze/data/processed/docking_pred/2023-May-22-1531_sub9_nm5_bs15_s42_ex16_mel10_mts1000_k50_ec02_g099_lra9e-4_lrc1e-3/25ea22f039de2039e6eb222be1b9c38742a73e8b_ligand_9.pdbqt
 14 15 0 0 0
SMALL
GASTEIGER

@<TRIPOS>ATOM
      1  C          5.7470    1.3080   -0.3350 C.3     1  UNL1        0.0800
      2  C          5.1820    1.3080    1.0440 C.2     1  UNL1        0.1300
      3  C          5.3500    0.1450    1.9560 C.3     1  UNL1        0.0870
      4  O          4.5610    2.2690    1.4660 O.2     1  UNL1       -0.3000
      5  C          7.2470    1.0900   -0.3150 C.3     1  UNL1        0.0430
      6  C          7.6190   -0.2090   -0.9030 C.2     1  UNL1       -0.0440
      7  C          7.6850   -0.3940   -2.2890 C.2     1  UNL1        0.0080
      8  C          7.9110   -1.2720   -0.0790 C.2     1  UNL1        0.0540
      9  C          8.0400   -1.6360   -2.7840 C.2     1  UNL1        0.0510
     10  C          8.2710   -2.5250   -0.5840 C.2     1  UNL1        0.1660
     11  C          8.3350   -2.7080   -1.9480 C.2     1  UNL1        0.1650
     12  O          8.6020   -3.7210    0.0170 O.2     1  UNL1       -0.4540
     13  O          8.7100   -4.0260   -2.1580 O.2     1  UNL1       -0.4540
     14  C          8.9780   -4.6790   -0.9390 C.3     1  UNL1        0.4680
@<TRIPOS>BOND
     1     9     7    1
     2     9    11    2
     3     7     6    2
     4    13    11    1
     5    13    14    1
     6    11    10    1
     7    14    12    1
     8     6     5    1
     9     6     8    1
    10    10     8    2
    11    10    12    1
    12     1     5    1
    13     1     2    1
    14     2     4    2
    15     2     3    1
