@<TRIPOS>MOLECULE
/home/cewinharhar/GITHUB/reincatalyze/data/processed/docking_pred/2023-May-22-1531_sub9_nm5_bs15_s42_ex16_mel10_mts1000_k50_ec02_g099_lra9e-4_lrc1e-3/25f547df8c587039729a955c6f4cb3c83005f49c_ligand_9.pdbqt
 14 15 0 0 0
SMALL
GASTEIGER

@<TRIPOS>ATOM
      1  C          5.3400    2.9120   -0.0110 C.3     1  UNL1        0.0800
      2  C          6.2590    3.8090    0.7440 C.2     1  UNL1        0.1300
      3  C          6.5620    3.5830    2.1830 C.3     1  UNL1        0.0870
      4  O          6.7920    4.7620    0.2000 O.2     1  UNL1       -0.3000
      5  C          5.1280    1.6000    0.7180 C.3     1  UNL1        0.0430
      6  C          5.9830    0.5290    0.1750 C.2     1  UNL1       -0.0440
      7  C          6.3940    0.5260   -1.1630 C.2     1  UNL1        0.0080
      8  C          6.3960   -0.4960    0.9960 C.2     1  UNL1        0.0540
      9  C          7.1970   -0.5050   -1.6160 C.2     1  UNL1        0.0510
     10  C          7.2080   -1.5360    0.5330 C.2     1  UNL1        0.1660
     11  C          7.6110   -1.5410   -0.7840 C.2     1  UNL1        0.1650
     12  O          7.7430   -2.6520    1.1410 O.2     1  UNL1       -0.4540
     13  O          8.3950   -2.6710   -0.9590 O.2     1  UNL1       -0.4540
     14  C          8.5790   -3.3550    0.2580 C.3     1  UNL1        0.4680
@<TRIPOS>BOND
     1     9     7    1
     2     9    11    2
     3     7     6    2
     4    13    11    1
     5    13    14    1
     6    11    10    1
     7     1     5    1
     8     1     2    1
     9     6     5    1
    10     6     8    1
    11     4     2    2
    12    14    12    1
    13    10     8    2
    14    10    12    1
    15     2     3    1
