MODEL 1
REMARK VINA RESULT:      -7.9      0.000      0.000
REMARK SMILES CC(=O)CCc1ccc2c(c1)OCO2
REMARK SMILES IDX 4 1 2 2 1 3 3 4 5 5 6 6 7 7 11 8 8 9 10 10 9 11 12 12 14 13
REMARK SMILES IDX 13 14
REMARK H PARENT
REMARK Flexibility Score: inf
ROOT
ATOM      1  C   UNL     1       5.458   2.241   1.224  1.00  0.00     0.080 C 
ENDROOT
BRANCH   1   2
ATOM      2  C   UNL     1       4.786   1.181   2.027  1.00  0.00     0.130 C 
ATOM      3  C   UNL     1       5.371  -0.179   2.170  1.00  0.00     0.087 C 
ATOM      4  O   UNL     1       3.728   1.401   2.594  1.00  0.00    -0.300 OA
ENDBRANCH   1   2
BRANCH   1   5
ATOM      5  C   UNL     1       5.332   1.968  -0.262  1.00  0.00     0.043 C 
BRANCH   5   6
ATOM      6  C   UNL     1       6.492   1.221  -0.780  1.00  0.00    -0.044 A 
ATOM      7  C   UNL     1       7.804   1.590  -0.461  1.00  0.00     0.008 A 
ATOM      8  C   UNL     1       6.291   0.131  -1.596  1.00  0.00     0.054 A 
ATOM      9  C   UNL     1       8.853   0.850  -0.976  1.00  0.00     0.051 A 
ATOM     10  C   UNL     1       7.355  -0.614  -2.114  1.00  0.00     0.166 A 
ATOM     11  C   UNL     1       8.647  -0.251  -1.801  1.00  0.00     0.165 A 
ATOM     12  O   UNL     1       7.416  -1.721  -2.934  1.00  0.00    -0.454 OA
ATOM     13  O   UNL     1       9.482  -1.152  -2.442  1.00  0.00    -0.454 OA
ATOM     14  C   UNL     1       8.742  -2.155  -3.097  1.00  0.00     0.468 C 
ENDBRANCH   5   6
ENDBRANCH   1   5
TORSDOF 3
ENDMDL
MODEL 2
REMARK VINA RESULT:      -7.7      1.801      2.467
REMARK SMILES CC(=O)CCc1ccc2c(c1)OCO2
REMARK SMILES IDX 4 1 2 2 1 3 3 4 5 5 6 6 7 7 11 8 8 9 10 10 9 11 12 12 14 13
REMARK SMILES IDX 13 14
REMARK H PARENT
REMARK Flexibility Score: inf
ROOT
ATOM      1  C   UNL     1       5.408   2.881   0.087  1.00  0.00     0.080 C 
ENDROOT
BRANCH   1   2
ATOM      2  C   UNL     1       6.197   3.752   1.001  1.00  0.00     0.130 C 
ATOM      3  C   UNL     1       7.144   4.774   0.481  1.00  0.00     0.087 C 
ATOM      4  O   UNL     1       6.089   3.650   2.213  1.00  0.00    -0.300 OA
ENDBRANCH   1   2
BRANCH   1   5
ATOM      5  C   UNL     1       5.095   1.545   0.733  1.00  0.00     0.043 C 
BRANCH   5   6
ATOM      6  C   UNL     1       5.968   0.473   0.220  1.00  0.00    -0.044 A 
ATOM      7  C   UNL     1       6.327  -0.622   1.014  1.00  0.00     0.008 A 
ATOM      8  C   UNL     1       6.444   0.540  -1.069  1.00  0.00     0.054 A 
ATOM      9  C   UNL     1       7.147  -1.598   0.479  1.00  0.00     0.051 A 
ATOM     10  C   UNL     1       7.273  -0.450  -1.606  1.00  0.00     0.166 A 
ATOM     11  C   UNL     1       7.628  -1.527  -0.825  1.00  0.00     0.165 A 
ATOM     12  O   UNL     1       7.869  -0.610  -2.839  1.00  0.00    -0.454 OA
ATOM     13  O   UNL     1       8.441  -2.336  -1.604  1.00  0.00    -0.454 OA
ATOM     14  C   UNL     1       8.546  -1.838  -2.916  1.00  0.00     0.468 C 
ENDBRANCH   5   6
ENDBRANCH   1   5
TORSDOF 3
ENDMDL
MODEL 3
REMARK VINA RESULT:      -7.5      2.490      2.938
REMARK SMILES CC(=O)CCc1ccc2c(c1)OCO2
REMARK SMILES IDX 4 1 2 2 1 3 3 4 5 5 6 6 7 7 11 8 8 9 10 10 9 11 12 12 14 13
REMARK SMILES IDX 13 14
REMARK H PARENT
REMARK Flexibility Score: inf
ROOT
ATOM      1  C   UNL     1       5.340   2.912  -0.011  1.00  0.00     0.080 C 
ENDROOT
BRANCH   1   2
ATOM      2  C   UNL     1       6.259   3.809   0.744  1.00  0.00     0.130 C 
ATOM      3  C   UNL     1       6.562   3.583   2.183  1.00  0.00     0.087 C 
ATOM      4  O   UNL     1       6.792   4.762   0.200  1.00  0.00    -0.300 OA
ENDBRANCH   1   2
BRANCH   1   5
ATOM      5  C   UNL     1       5.128   1.600   0.718  1.00  0.00     0.043 C 
BRANCH   5   6
ATOM      6  C   UNL     1       5.983   0.529   0.175  1.00  0.00    -0.044 A 
ATOM      7  C   UNL     1       6.394   0.526  -1.163  1.00  0.00     0.008 A 
ATOM      8  C   UNL     1       6.396  -0.496   0.996  1.00  0.00     0.054 A 
ATOM      9  C   UNL     1       7.197  -0.505  -1.616  1.00  0.00     0.051 A 
ATOM     10  C   UNL     1       7.208  -1.536   0.533  1.00  0.00     0.166 A 
ATOM     11  C   UNL     1       7.611  -1.541  -0.784  1.00  0.00     0.165 A 
ATOM     12  O   UNL     1       7.743  -2.652   1.141  1.00  0.00    -0.454 OA
ATOM     13  O   UNL     1       8.395  -2.671  -0.959  1.00  0.00    -0.454 OA
ATOM     14  C   UNL     1       8.579  -3.355   0.258  1.00  0.00     0.468 C 
ENDBRANCH   5   6
ENDBRANCH   1   5
TORSDOF 3
ENDMDL
