@<TRIPOS>MOLECULE
/home/cewinharhar/GITHUB/reincatalyze/data/processed/docking_pred/2023-May-22-1531_sub9_nm5_bs15_s42_ex16_mel10_mts1000_k50_ec02_g099_lra9e-4_lrc1e-3/25f547df8c587039729a955c6f4cb3c83005f49c_ligand_9.pdbqt
 14 15 0 0 0
SMALL
GASTEIGER

@<TRIPOS>ATOM
      1  C          5.4580    2.2410    1.2240 C.3     1  UNL1        0.0800
      2  C          4.7860    1.1810    2.0270 C.2     1  UNL1        0.1300
      3  C          5.3710   -0.1790    2.1700 C.3     1  UNL1        0.0870
      4  O          3.7280    1.4010    2.5940 O.2     1  UNL1       -0.3000
      5  C          5.3320    1.9680   -0.2620 C.3     1  UNL1        0.0430
      6  C          6.4920    1.2210   -0.7800 C.2     1  UNL1       -0.0440
      7  C          7.8040    1.5900   -0.4610 C.2     1  UNL1        0.0080
      8  C          6.2910    0.1310   -1.5960 C.2     1  UNL1        0.0540
      9  C          8.8530    0.8500   -0.9760 C.2     1  UNL1        0.0510
     10  C          7.3550   -0.6140   -2.1140 C.2     1  UNL1        0.1660
     11  C          8.6470   -0.2510   -1.8010 C.2     1  UNL1        0.1650
     12  O          7.4160   -1.7210   -2.9340 O.2     1  UNL1       -0.4540
     13  O          9.4820   -1.1520   -2.4420 O.2     1  UNL1       -0.4540
     14  C          8.7420   -2.1550   -3.0970 C.3     1  UNL1        0.4680
@<TRIPOS>BOND
     1    14    12    1
     2    14    13    1
     3    12    10    1
     4    13    11    1
     5    10    11    2
     6    10     8    1
     7    11     9    1
     8     8     6    2
     9     9     7    2
    10     6     7    1
    11     6     5    1
    12     5     1    1
    13     1     2    1
    14     2     3    1
    15     2     4    2
