@<TRIPOS>MOLECULE
/home/cewinharhar/GITHUB/reincatalyze/data/processed/docking_pred/2023-May-22-1531_sub9_nm5_bs15_s42_ex16_mel10_mts1000_k50_ec02_g099_lra9e-4_lrc1e-3/2734134eb9e7fe1a9a1e6734a306fe03ba38cdbb_ligand_9.pdbqt
 14 15 0 0 0
SMALL
GASTEIGER

@<TRIPOS>ATOM
      1  C          5.5270    1.9170    1.2630 C.3     1  UNL1        0.0800
      2  C          5.0900    0.6980    1.9990 C.2     1  UNL1        0.1300
      3  C          5.9910   -0.4730    2.1740 C.3     1  UNL1        0.0870
      4  O          3.9720    0.6250    2.4820 O.2     1  UNL1       -0.3000
      5  C          5.4020    1.7290   -0.2360 C.3     1  UNL1        0.0430
      6  C          6.5700    1.0270   -0.7980 C.2     1  UNL1       -0.0440
      7  C          7.8770    1.4620   -0.5480 C.2     1  UNL1        0.0080
      8  C          6.3830   -0.0860   -1.5860 C.2     1  UNL1        0.0540
      9  C          8.9340    0.7630   -1.1010 C.2     1  UNL1        0.0510
     10  C          7.4550   -0.7900   -2.1420 C.2     1  UNL1        0.1660
     11  C          8.7410   -0.3620   -1.8980 C.2     1  UNL1        0.1650
     12  O          7.5300   -1.9070   -2.9470 O.2     1  UNL1       -0.4540
     13  O          9.5870   -1.2340   -2.5640 O.2     1  UNL1       -0.4540
     14  C          8.8650   -2.2820   -3.1670 C.3     1  UNL1        0.4680
@<TRIPOS>BOND
     1    14    12    1
     2    14    13    1
     3    12    10    1
     4    13    11    1
     5    10    11    2
     6    10     8    1
     7    11     9    1
     8     8     6    2
     9     9     7    2
    10     6     7    1
    11     6     5    1
    12     5     1    1
    13     1     2    1
    14     2     3    1
    15     2     4    2
