MODEL 1
REMARK VINA RESULT:      -7.8      0.000      0.000
REMARK SMILES CC(=O)CCc1ccc2c(c1)OCO2
REMARK SMILES IDX 4 1 2 2 1 3 3 4 5 5 6 6 7 7 11 8 8 9 10 10 9 11 12 12 14 13
REMARK SMILES IDX 13 14
REMARK H PARENT
REMARK Flexibility Score: inf
ROOT
ATOM      1  C   UNL     1       5.474   2.856   0.097  1.00  0.00     0.080 C 
ENDROOT
BRANCH   1   2
ATOM      2  C   UNL     1       6.367   3.631   1.003  1.00  0.00     0.130 C 
ATOM      3  C   UNL     1       7.179   4.774   0.507  1.00  0.00     0.087 C 
ATOM      4  O   UNL     1       6.459   3.347   2.186  1.00  0.00    -0.300 OA
ENDBRANCH   1   2
BRANCH   1   5
ATOM      5  C   UNL     1       5.131   1.503   0.688  1.00  0.00     0.043 C 
BRANCH   5   6
ATOM      6  C   UNL     1       5.999   0.438   0.154  1.00  0.00    -0.044 A 
ATOM      7  C   UNL     1       6.401   0.422  -1.186  1.00  0.00     0.008 A 
ATOM      8  C   UNL     1       6.432  -0.570   0.986  1.00  0.00     0.054 A 
ATOM      9  C   UNL     1       7.217  -0.602  -1.630  1.00  0.00     0.051 A 
ATOM     10  C   UNL     1       7.258  -1.603   0.532  1.00  0.00     0.166 A 
ATOM     11  C   UNL     1       7.652  -1.620  -0.787  1.00  0.00     0.165 A 
ATOM     12  O   UNL     1       7.814  -2.703   1.151  1.00  0.00    -0.454 OA
ATOM     13  O   UNL     1       8.452  -2.740  -0.952  1.00  0.00    -0.454 OA
ATOM     14  C   UNL     1       8.654  -3.405   0.272  1.00  0.00     0.468 C 
ENDBRANCH   5   6
ENDBRANCH   1   5
TORSDOF 3
ENDMDL
MODEL 2
REMARK VINA RESULT:      -7.6      2.378      2.996
REMARK SMILES CC(=O)CCc1ccc2c(c1)OCO2
REMARK SMILES IDX 4 1 2 2 1 3 3 4 5 5 6 6 7 7 11 8 8 9 10 10 9 11 12 12 14 13
REMARK SMILES IDX 13 14
REMARK H PARENT
REMARK Flexibility Score: inf
ROOT
ATOM      1  C   UNL     1       5.527   1.917   1.263  1.00  0.00     0.080 C 
ENDROOT
BRANCH   1   2
ATOM      2  C   UNL     1       5.090   0.698   1.999  1.00  0.00     0.130 C 
ATOM      3  C   UNL     1       5.991  -0.473   2.174  1.00  0.00     0.087 C 
ATOM      4  O   UNL     1       3.972   0.625   2.482  1.00  0.00    -0.300 OA
ENDBRANCH   1   2
BRANCH   1   5
ATOM      5  C   UNL     1       5.402   1.729  -0.236  1.00  0.00     0.043 C 
BRANCH   5   6
ATOM      6  C   UNL     1       6.570   1.027  -0.798  1.00  0.00    -0.044 A 
ATOM      7  C   UNL     1       7.877   1.462  -0.548  1.00  0.00     0.008 A 
ATOM      8  C   UNL     1       6.383  -0.086  -1.586  1.00  0.00     0.054 A 
ATOM      9  C   UNL     1       8.934   0.763  -1.101  1.00  0.00     0.051 A 
ATOM     10  C   UNL     1       7.455  -0.790  -2.142  1.00  0.00     0.166 A 
ATOM     11  C   UNL     1       8.741  -0.362  -1.898  1.00  0.00     0.165 A 
ATOM     12  O   UNL     1       7.530  -1.907  -2.947  1.00  0.00    -0.454 OA
ATOM     13  O   UNL     1       9.587  -1.234  -2.564  1.00  0.00    -0.454 OA
ATOM     14  C   UNL     1       8.865  -2.282  -3.167  1.00  0.00     0.468 C 
ENDBRANCH   5   6
ENDBRANCH   1   5
TORSDOF 3
ENDMDL
MODEL 3
REMARK VINA RESULT:      -7.4      1.776      2.350
REMARK SMILES CC(=O)CCc1ccc2c(c1)OCO2
REMARK SMILES IDX 4 1 2 2 1 3 3 4 5 5 6 6 7 7 11 8 8 9 10 10 9 11 12 12 14 13
REMARK SMILES IDX 13 14
REMARK H PARENT
REMARK Flexibility Score: inf
ROOT
ATOM      1  C   UNL     1       5.839   1.415  -0.341  1.00  0.00     0.080 C 
ENDROOT
BRANCH   1   2
ATOM      2  C   UNL     1       5.150   1.335   0.977  1.00  0.00     0.130 C 
ATOM      3  C   UNL     1       5.380   0.200   1.910  1.00  0.00     0.087 C 
ATOM      4  O   UNL     1       4.370   2.204   1.331  1.00  0.00    -0.300 OA
ENDBRANCH   1   2
BRANCH   1   5
ATOM      5  C   UNL     1       7.311   1.077  -0.214  1.00  0.00     0.043 C 
BRANCH   5   6
ATOM      6  C   UNL     1       7.629  -0.221  -0.837  1.00  0.00    -0.044 A 
ATOM      7  C   UNL     1       7.604  -0.393  -2.226  1.00  0.00     0.008 A 
ATOM      8  C   UNL     1       7.963  -1.295  -0.044  1.00  0.00     0.054 A 
ATOM      9  C   UNL     1       7.913  -1.633  -2.754  1.00  0.00     0.051 A 
ATOM     10  C   UNL     1       8.275  -2.547  -0.583  1.00  0.00     0.166 A 
ATOM     11  C   UNL     1       8.249  -2.717  -1.949  1.00  0.00     0.165 A 
ATOM     12  O   UNL     1       8.631  -3.751  -0.015  1.00  0.00    -0.454 OA
ATOM     13  O   UNL     1       8.595  -4.037  -2.194  1.00  0.00    -0.454 OA
ATOM     14  C   UNL     1       8.934  -4.704  -1.002  1.00  0.00     0.468 C 
ENDBRANCH   5   6
ENDBRANCH   1   5
TORSDOF 3
ENDMDL
