@<TRIPOS>MOLECULE
/home/cewinharhar/GITHUB/reincatalyze/data/processed/docking_pred/2023-May-22-1531_sub9_nm5_bs15_s42_ex16_mel10_mts1000_k50_ec02_g099_lra9e-4_lrc1e-3/2734134eb9e7fe1a9a1e6734a306fe03ba38cdbb_ligand_9.pdbqt
 14 15 0 0 0
SMALL
GASTEIGER

@<TRIPOS>ATOM
      1  C          5.8390    1.4150   -0.3410 C.3     1  UNL1        0.0800
      2  C          5.1500    1.3350    0.9770 C.2     1  UNL1        0.1300
      3  C          5.3800    0.2000    1.9100 C.3     1  UNL1        0.0870
      4  O          4.3700    2.2040    1.3310 O.2     1  UNL1       -0.3000
      5  C          7.3110    1.0770   -0.2140 C.3     1  UNL1        0.0430
      6  C          7.6290   -0.2210   -0.8370 C.2     1  UNL1       -0.0440
      7  C          7.6040   -0.3930   -2.2260 C.2     1  UNL1        0.0080
      8  C          7.9630   -1.2950   -0.0440 C.2     1  UNL1        0.0540
      9  C          7.9130   -1.6330   -2.7540 C.2     1  UNL1        0.0510
     10  C          8.2750   -2.5470   -0.5830 C.2     1  UNL1        0.1660
     11  C          8.2490   -2.7170   -1.9490 C.2     1  UNL1        0.1650
     12  O          8.6310   -3.7510   -0.0150 O.2     1  UNL1       -0.4540
     13  O          8.5950   -4.0370   -2.1940 O.2     1  UNL1       -0.4540
     14  C          8.9340   -4.7040   -1.0020 C.3     1  UNL1        0.4680
@<TRIPOS>BOND
     1     9     7    1
     2     9    11    2
     3     7     6    2
     4    13    11    1
     5    13    14    1
     6    11    10    1
     7    14    12    1
     8     6     5    1
     9     6     8    1
    10    10     8    2
    11    10    12    1
    12     1     5    1
    13     1     2    1
    14     2     4    2
    15     2     3    1
