@<TRIPOS>MOLECULE
/home/cewinharhar/GITHUB/reincatalyze/data/processed/docking_pred/2023-May-22-1531_sub9_nm5_bs15_s42_ex16_mel10_mts1000_k50_ec02_g099_lra9e-4_lrc1e-3/2734134eb9e7fe1a9a1e6734a306fe03ba38cdbb_ligand_9.pdbqt
 14 15 0 0 0
SMALL
GASTEIGER

@<TRIPOS>ATOM
      1  C          5.4740    2.8560    0.0970 C.3     1  UNL1        0.0800
      2  C          6.3670    3.6310    1.0030 C.2     1  UNL1        0.1300
      3  C          7.1790    4.7740    0.5070 C.3     1  UNL1        0.0870
      4  O          6.4590    3.3470    2.1860 O.2     1  UNL1       -0.3000
      5  C          5.1310    1.5030    0.6880 C.3     1  UNL1        0.0430
      6  C          5.9990    0.4380    0.1540 C.2     1  UNL1       -0.0440
      7  C          6.4010    0.4220   -1.1860 C.2     1  UNL1        0.0080
      8  C          6.4320   -0.5700    0.9860 C.2     1  UNL1        0.0540
      9  C          7.2170   -0.6020   -1.6300 C.2     1  UNL1        0.0510
     10  C          7.2580   -1.6030    0.5320 C.2     1  UNL1        0.1660
     11  C          7.6520   -1.6200   -0.7870 C.2     1  UNL1        0.1650
     12  O          7.8140   -2.7030    1.1510 O.2     1  UNL1       -0.4540
     13  O          8.4520   -2.7400   -0.9520 O.2     1  UNL1       -0.4540
     14  C          8.6540   -3.4050    0.2720 C.3     1  UNL1        0.4680
@<TRIPOS>BOND
     1     9     7    1
     2     9    11    2
     3     7     6    2
     4    13    11    1
     5    13    14    1
     6    11    10    1
     7     1     5    1
     8     1     2    1
     9     6     5    1
    10     6     8    1
    11    14    12    1
    12     3     2    1
    13    10     8    2
    14    10    12    1
    15     2     4    2
