@<TRIPOS>MOLECULE
/home/cewinharhar/GITHUB/reincatalyze/data/processed/docking_pred/2023-May-22-1531_sub9_nm5_bs15_s42_ex16_mel10_mts1000_k50_ec02_g099_lra9e-4_lrc1e-3/287d700aa29cdd08db1558ad291e1b5912b75232_ligand_9.pdbqt
 14 15 0 0 0
SMALL
GASTEIGER

@<TRIPOS>ATOM
      1  C          5.3820    2.9670    0.3410 C.3     1  UNL1        0.0800
      2  C          6.3700    3.7770    1.1050 C.2     1  UNL1        0.1300
      3  C          7.2470    4.7750    0.4350 C.3     1  UNL1        0.0870
      4  O          6.4900    3.6450    2.3120 O.2     1  UNL1       -0.3000
      5  C          5.1530    1.6180    0.9940 C.3     1  UNL1        0.0430
      6  C          5.9960    0.5700    0.3920 C.2     1  UNL1       -0.0440
      7  C          6.3990    0.6320   -0.9470 C.2     1  UNL1        0.0080
      8  C          6.4040   -0.5000    1.1560 C.2     1  UNL1        0.0540
      9  C          7.1900   -0.3810   -1.4570 C.2     1  UNL1        0.0510
     10  C          7.2050   -1.5210    0.6360 C.2     1  UNL1        0.1660
     11  C          7.6010   -1.4610   -0.6820 C.2     1  UNL1        0.1650
     12  O          7.7330   -2.6710    1.1820 O.2     1  UNL1       -0.4540
     13  O          8.3730   -2.5870   -0.9200 O.2     1  UNL1       -0.4540
     14  C          8.5580   -3.3350    0.2580 C.3     1  UNL1        0.4680
@<TRIPOS>BOND
     1     9     7    1
     2     9    11    2
     3     7     6    2
     4    13    11    1
     5    13    14    1
     6    11    10    1
     7    14    12    1
     8     1     5    1
     9     1     2    1
    10     6     5    1
    11     6     8    1
    12     3     2    1
    13    10     8    2
    14    10    12    1
    15     2     4    2
