@<TRIPOS>MOLECULE
/home/cewinharhar/GITHUB/reincatalyze/data/processed/docking_pred/2023-May-22-1531_sub9_nm5_bs15_s42_ex16_mel10_mts1000_k50_ec02_g099_lra9e-4_lrc1e-3/287d700aa29cdd08db1558ad291e1b5912b75232_ligand_9.pdbqt
 14 15 0 0 0
SMALL
GASTEIGER

@<TRIPOS>ATOM
      1  C          5.5370    2.9130    0.1190 C.3     1  UNL1        0.0800
      2  C          6.3060    3.8450    0.9900 C.2     1  UNL1        0.1300
      3  C          7.3240    4.7750    0.4320 C.3     1  UNL1        0.0870
      4  O          6.1220    3.8720    2.1960 O.2     1  UNL1       -0.3000
      5  C          5.2450    1.6080    0.8320 C.3     1  UNL1        0.0430
      6  C          6.0700    0.5040    0.3100 C.2     1  UNL1       -0.0440
      7  C          6.4310   -0.5840    1.1130 C.2     1  UNL1        0.0080
      8  C          6.4980    0.5310   -0.9980 C.2     1  UNL1        0.0540
      9  C          7.2060   -1.5920    0.5690 C.2     1  UNL1        0.0510
     10  C          7.2810   -0.4910   -1.5440 C.2     1  UNL1        0.1660
     11  C          7.6380   -1.5610   -0.7540 C.2     1  UNL1        0.1650
     12  O          7.8240   -0.6920   -2.7950 O.2     1  UNL1       -0.4540
     13  O          8.4010   -2.4060   -1.5450 O.2     1  UNL1       -0.4540
     14  C          8.4680   -1.9380   -2.8710 C.3     1  UNL1        0.4680
@<TRIPOS>BOND
     1    14    12    1
     2    14    13    1
     3    12    10    1
     4    13    11    1
     5    10     8    1
     6    10    11    2
     7     8     6    2
     8    11     9    1
     9     1     5    1
    10     1     2    1
    11     6     5    1
    12     6     7    1
    13     3     2    1
    14     9     7    2
    15     2     4    2
