@<TRIPOS>MOLECULE
/home/cewinharhar/GITHUB/reincatalyze/data/processed/docking_pred/2023-May-22-1531_sub9_nm5_bs15_s42_ex16_mel10_mts1000_k50_ec02_g099_lra9e-4_lrc1e-3/287d700aa29cdd08db1558ad291e1b5912b75232_ligand_9.pdbqt
 14 15 0 0 0
SMALL
GASTEIGER

@<TRIPOS>ATOM
      1  C          5.5130    1.9030    1.2720 C.3     1  UNL1        0.0800
      2  C          5.0680    0.6830    2.0010 C.2     1  UNL1        0.1300
      3  C          5.9550   -0.5020    2.1540 C.3     1  UNL1        0.0870
      4  O          3.9550    0.6200    2.4980 O.2     1  UNL1       -0.3000
      5  C          5.3900    1.7230   -0.2290 C.3     1  UNL1        0.0430
      6  C          6.5600    1.0260   -0.7930 C.2     1  UNL1       -0.0440
      7  C          7.8650    1.4680   -0.5470 C.2     1  UNL1        0.0080
      8  C          6.3760   -0.0880   -1.5790 C.2     1  UNL1        0.0540
      9  C          8.9240    0.7740   -1.1030 C.2     1  UNL1        0.0510
     10  C          7.4500   -0.7870   -2.1380 C.2     1  UNL1        0.1660
     11  C          8.7350   -0.3520   -1.8980 C.2     1  UNL1        0.1650
     12  O          7.5280   -1.9050   -2.9420 O.2     1  UNL1       -0.4540
     13  O          9.5840   -1.2210   -2.5660 O.2     1  UNL1       -0.4540
     14  C          8.8650   -2.2730   -3.1650 C.3     1  UNL1        0.4680
@<TRIPOS>BOND
     1    14    12    1
     2    14    13    1
     3    12    10    1
     4    13    11    1
     5    10    11    2
     6    10     8    1
     7    11     9    1
     8     8     6    2
     9     9     7    2
    10     6     7    1
    11     6     5    1
    12     5     1    1
    13     1     2    1
    14     2     3    1
    15     2     4    2
