MODEL 1
REMARK VINA RESULT:      -7.9      0.000      0.000
REMARK SMILES CC(=O)CCc1ccc2c(c1)OCO2
REMARK SMILES IDX 4 1 2 2 1 3 3 4 5 5 6 6 7 7 11 8 8 9 10 10 9 11 12 12 14 13
REMARK SMILES IDX 13 14
REMARK H PARENT
REMARK Flexibility Score: inf
ROOT
ATOM      1  C   UNL     1       5.537   2.913   0.119  1.00  0.00     0.080 C 
ENDROOT
BRANCH   1   2
ATOM      2  C   UNL     1       6.306   3.845   0.990  1.00  0.00     0.130 C 
ATOM      3  C   UNL     1       7.324   4.775   0.432  1.00  0.00     0.087 C 
ATOM      4  O   UNL     1       6.122   3.872   2.196  1.00  0.00    -0.300 OA
ENDBRANCH   1   2
BRANCH   1   5
ATOM      5  C   UNL     1       5.245   1.608   0.832  1.00  0.00     0.043 C 
BRANCH   5   6
ATOM      6  C   UNL     1       6.070   0.504   0.310  1.00  0.00    -0.044 A 
ATOM      7  C   UNL     1       6.431  -0.584   1.113  1.00  0.00     0.008 A 
ATOM      8  C   UNL     1       6.498   0.531  -0.998  1.00  0.00     0.054 A 
ATOM      9  C   UNL     1       7.206  -1.592   0.569  1.00  0.00     0.051 A 
ATOM     10  C   UNL     1       7.281  -0.491  -1.544  1.00  0.00     0.166 A 
ATOM     11  C   UNL     1       7.638  -1.561  -0.754  1.00  0.00     0.165 A 
ATOM     12  O   UNL     1       7.824  -0.692  -2.795  1.00  0.00    -0.454 OA
ATOM     13  O   UNL     1       8.401  -2.406  -1.545  1.00  0.00    -0.454 OA
ATOM     14  C   UNL     1       8.468  -1.938  -2.871  1.00  0.00     0.468 C 
ENDBRANCH   5   6
ENDBRANCH   1   5
TORSDOF 3
ENDMDL
MODEL 2
REMARK VINA RESULT:      -7.7      1.002      1.984
REMARK SMILES CC(=O)CCc1ccc2c(c1)OCO2
REMARK SMILES IDX 4 1 2 2 1 3 3 4 5 5 6 6 7 7 11 8 8 9 10 10 9 11 12 12 14 13
REMARK SMILES IDX 13 14
REMARK H PARENT
REMARK Flexibility Score: inf
ROOT
ATOM      1  C   UNL     1       5.382   2.967   0.341  1.00  0.00     0.080 C 
ENDROOT
BRANCH   1   2
ATOM      2  C   UNL     1       6.370   3.777   1.105  1.00  0.00     0.130 C 
ATOM      3  C   UNL     1       7.247   4.775   0.435  1.00  0.00     0.087 C 
ATOM      4  O   UNL     1       6.490   3.645   2.312  1.00  0.00    -0.300 OA
ENDBRANCH   1   2
BRANCH   1   5
ATOM      5  C   UNL     1       5.153   1.618   0.994  1.00  0.00     0.043 C 
BRANCH   5   6
ATOM      6  C   UNL     1       5.996   0.570   0.392  1.00  0.00    -0.044 A 
ATOM      7  C   UNL     1       6.399   0.632  -0.947  1.00  0.00     0.008 A 
ATOM      8  C   UNL     1       6.404  -0.500   1.156  1.00  0.00     0.054 A 
ATOM      9  C   UNL     1       7.190  -0.381  -1.457  1.00  0.00     0.051 A 
ATOM     10  C   UNL     1       7.205  -1.521   0.636  1.00  0.00     0.166 A 
ATOM     11  C   UNL     1       7.601  -1.461  -0.682  1.00  0.00     0.165 A 
ATOM     12  O   UNL     1       7.733  -2.671   1.182  1.00  0.00    -0.454 OA
ATOM     13  O   UNL     1       8.373  -2.587  -0.920  1.00  0.00    -0.454 OA
ATOM     14  C   UNL     1       8.558  -3.335   0.258  1.00  0.00     0.468 C 
ENDBRANCH   5   6
ENDBRANCH   1   5
TORSDOF 3
ENDMDL
MODEL 3
REMARK VINA RESULT:      -7.7      1.899      2.634
REMARK SMILES CC(=O)CCc1ccc2c(c1)OCO2
REMARK SMILES IDX 4 1 2 2 1 3 3 4 5 5 6 6 7 7 11 8 8 9 10 10 9 11 12 12 14 13
REMARK SMILES IDX 13 14
REMARK H PARENT
REMARK Flexibility Score: inf
ROOT
ATOM      1  C   UNL     1       5.513   1.903   1.272  1.00  0.00     0.080 C 
ENDROOT
BRANCH   1   2
ATOM      2  C   UNL     1       5.068   0.683   2.001  1.00  0.00     0.130 C 
ATOM      3  C   UNL     1       5.955  -0.502   2.154  1.00  0.00     0.087 C 
ATOM      4  O   UNL     1       3.955   0.620   2.498  1.00  0.00    -0.300 OA
ENDBRANCH   1   2
BRANCH   1   5
ATOM      5  C   UNL     1       5.390   1.723  -0.229  1.00  0.00     0.043 C 
BRANCH   5   6
ATOM      6  C   UNL     1       6.560   1.026  -0.793  1.00  0.00    -0.044 A 
ATOM      7  C   UNL     1       7.865   1.468  -0.547  1.00  0.00     0.008 A 
ATOM      8  C   UNL     1       6.376  -0.088  -1.579  1.00  0.00     0.054 A 
ATOM      9  C   UNL     1       8.924   0.774  -1.103  1.00  0.00     0.051 A 
ATOM     10  C   UNL     1       7.450  -0.787  -2.138  1.00  0.00     0.166 A 
ATOM     11  C   UNL     1       8.735  -0.352  -1.898  1.00  0.00     0.165 A 
ATOM     12  O   UNL     1       7.528  -1.905  -2.942  1.00  0.00    -0.454 OA
ATOM     13  O   UNL     1       9.584  -1.221  -2.566  1.00  0.00    -0.454 OA
ATOM     14  C   UNL     1       8.865  -2.273  -3.165  1.00  0.00     0.468 C 
ENDBRANCH   5   6
ENDBRANCH   1   5
TORSDOF 3
ENDMDL
