@<TRIPOS>MOLECULE
/home/cewinharhar/GITHUB/reincatalyze/data/processed/docking_pred/2023-May-22-1531_sub9_nm5_bs15_s42_ex16_mel10_mts1000_k50_ec02_g099_lra9e-4_lrc1e-3/2b606219d5526e18d91eeb9dfd7a568ae4147191_ligand_9.pdbqt
 14 15 0 0 0
SMALL
GASTEIGER

@<TRIPOS>ATOM
      1  C          5.4530    2.8770    0.0770 C.3     1  UNL1        0.0800
      2  C          6.2620    3.8120    0.9070 C.2     1  UNL1        0.1300
      3  C          7.2170    4.7740    0.2930 C.3     1  UNL1        0.0870
      4  O          6.1650    3.8150    2.1230 O.2     1  UNL1       -0.3000
      5  C          5.2280    1.5600    0.7930 C.3     1  UNL1        0.0430
      6  C          6.0820    0.4890    0.2500 C.2     1  UNL1       -0.0440
      7  C          6.4310   -0.6300    1.0140 C.2     1  UNL1        0.0080
      8  C          6.5530    0.5810   -1.0410 C.2     1  UNL1        0.0540
      9  C          7.2360   -1.6030    0.4510 C.2     1  UNL1        0.0510
     10  C          7.3650   -0.4060   -1.6060 C.2     1  UNL1        0.1660
     11  C          7.7100   -1.5070   -0.8540 C.2     1  UNL1        0.1650
     12  O          7.9510   -0.5440   -2.8460 O.2     1  UNL1       -0.4540
     13  O          8.5080   -2.3070   -1.6570 O.2     1  UNL1       -0.4540
     14  C          8.6120   -1.7790   -2.9570 C.3     1  UNL1        0.4680
@<TRIPOS>BOND
     1    14    12    1
     2    14    13    1
     3    12    10    1
     4    13    11    1
     5    10     8    1
     6    10    11    2
     7     8     6    2
     8    11     9    1
     9     1     5    1
    10     1     2    1
    11     6     5    1
    12     6     7    1
    13     3     2    1
    14     9     7    2
    15     2     4    2
