@<TRIPOS>MOLECULE
/home/cewinharhar/GITHUB/reincatalyze/data/processed/docking_pred/2023-May-22-1531_sub9_nm5_bs15_s42_ex16_mel10_mts1000_k50_ec02_g099_lra9e-4_lrc1e-3/2b606219d5526e18d91eeb9dfd7a568ae4147191_ligand_9.pdbqt
 14 15 0 0 0
SMALL
GASTEIGER

@<TRIPOS>ATOM
      1  C          5.4350    3.0490    0.0470 C.3     1  UNL1        0.0800
      2  C          6.3090    3.8460    0.9530 C.2     1  UNL1        0.1300
      3  C          7.3500    4.7660    0.4230 C.3     1  UNL1        0.0870
      4  O          6.1940    3.7640    2.1650 O.2     1  UNL1       -0.3000
      5  C          5.0420    1.7300    0.6800 C.3     1  UNL1        0.0430
      6  C          5.9010    0.6240    0.2180 C.2     1  UNL1       -0.0440
      7  C          6.3180    0.5290   -1.1140 C.2     1  UNL1        0.0080
      8  C          6.3090   -0.3410    1.1100 C.2     1  UNL1        0.0540
      9  C          7.1250   -0.5300   -1.4900 C.2     1  UNL1        0.0510
     10  C          7.1250   -1.4090    0.7250 C.2     1  UNL1        0.1660
     11  C          7.5360   -1.5050   -0.5860 C.2     1  UNL1        0.1650
     12  O          7.6570   -2.4800    1.4120 O.2     1  UNL1       -0.4540
     13  O          8.3210   -2.6430   -0.6780 O.2     1  UNL1       -0.4540
     14  C          8.4990   -3.2410    0.5840 C.3     1  UNL1        0.4680
@<TRIPOS>BOND
     1     9     7    1
     2     9    11    2
     3     7     6    2
     4    13    11    1
     5    13    14    1
     6    11    10    1
     7     1     5    1
     8     1     2    1
     9     6     5    1
    10     6     8    1
    11     3     2    1
    12    14    12    1
    13    10     8    2
    14    10    12    1
    15     2     4    2
