@<TRIPOS>MOLECULE
/home/cewinharhar/GITHUB/reincatalyze/data/processed/docking_pred/2023-May-22-1531_sub9_nm5_bs15_s42_ex16_mel10_mts1000_k50_ec02_g099_lra9e-4_lrc1e-3/2b606219d5526e18d91eeb9dfd7a568ae4147191_ligand_9.pdbqt
 14 15 0 0 0
SMALL
GASTEIGER

@<TRIPOS>ATOM
      1  C          5.5460    1.9090    1.2790 C.3     1  UNL1        0.0800
      2  C          5.1200    0.6860    2.0140 C.2     1  UNL1        0.1300
      3  C          6.0270   -0.4810    2.1810 C.3     1  UNL1        0.0870
      4  O          4.0050    0.6060    2.5040 O.2     1  UNL1       -0.3000
      5  C          5.4160    1.7240   -0.2200 C.3     1  UNL1        0.0430
      6  C          6.5800    1.0200   -0.7870 C.2     1  UNL1       -0.0440
      7  C          7.8890    1.4460   -0.5330 C.2     1  UNL1        0.0080
      8  C          6.3880   -0.0850   -1.5850 C.2     1  UNL1        0.0540
      9  C          8.9430    0.7460   -1.0910 C.2     1  UNL1        0.0510
     10  C          7.4570   -0.7890   -2.1470 C.2     1  UNL1        0.1660
     11  C          8.7450   -0.3700   -1.8980 C.2     1  UNL1        0.1650
     12  O          7.5260   -1.9000   -2.9610 O.2     1  UNL1       -0.4540
     13  O          9.5870   -1.2420   -2.5710 O.2     1  UNL1       -0.4540
     14  C          8.8590   -2.2800   -3.1840 C.3     1  UNL1        0.4680
@<TRIPOS>BOND
     1    14    12    1
     2    14    13    1
     3    12    10    1
     4    13    11    1
     5    10    11    2
     6    10     8    1
     7    11     9    1
     8     8     6    2
     9     9     7    2
    10     6     7    1
    11     6     5    1
    12     5     1    1
    13     1     2    1
    14     2     3    1
    15     2     4    2
