MODEL 1
REMARK VINA RESULT:      -7.8      0.000      0.000
REMARK SMILES CC(=O)CCc1ccc2c(c1)OCO2
REMARK SMILES IDX 4 1 2 2 1 3 3 4 5 5 6 6 7 7 11 8 8 9 10 10 9 11 12 12 14 13
REMARK SMILES IDX 13 14
REMARK H PARENT
REMARK Flexibility Score: inf
ROOT
ATOM      1  C   UNL     1       5.453   2.877   0.077  1.00  0.00     0.080 C 
ENDROOT
BRANCH   1   2
ATOM      2  C   UNL     1       6.262   3.812   0.907  1.00  0.00     0.130 C 
ATOM      3  C   UNL     1       7.217   4.774   0.293  1.00  0.00     0.087 C 
ATOM      4  O   UNL     1       6.165   3.815   2.123  1.00  0.00    -0.300 OA
ENDBRANCH   1   2
BRANCH   1   5
ATOM      5  C   UNL     1       5.228   1.560   0.793  1.00  0.00     0.043 C 
BRANCH   5   6
ATOM      6  C   UNL     1       6.082   0.489   0.250  1.00  0.00    -0.044 A 
ATOM      7  C   UNL     1       6.431  -0.630   1.014  1.00  0.00     0.008 A 
ATOM      8  C   UNL     1       6.553   0.581  -1.041  1.00  0.00     0.054 A 
ATOM      9  C   UNL     1       7.236  -1.603   0.451  1.00  0.00     0.051 A 
ATOM     10  C   UNL     1       7.365  -0.406  -1.606  1.00  0.00     0.166 A 
ATOM     11  C   UNL     1       7.710  -1.507  -0.854  1.00  0.00     0.165 A 
ATOM     12  O   UNL     1       7.951  -0.544  -2.846  1.00  0.00    -0.454 OA
ATOM     13  O   UNL     1       8.508  -2.307  -1.657  1.00  0.00    -0.454 OA
ATOM     14  C   UNL     1       8.612  -1.779  -2.957  1.00  0.00     0.468 C 
ENDBRANCH   5   6
ENDBRANCH   1   5
TORSDOF 3
ENDMDL
MODEL 2
REMARK VINA RESULT:      -7.5      1.101      2.086
REMARK SMILES CC(=O)CCc1ccc2c(c1)OCO2
REMARK SMILES IDX 4 1 2 2 1 3 3 4 5 5 6 6 7 7 11 8 8 9 10 10 9 11 12 12 14 13
REMARK SMILES IDX 13 14
REMARK H PARENT
REMARK Flexibility Score: inf
ROOT
ATOM      1  C   UNL     1       5.435   3.049   0.047  1.00  0.00     0.080 C 
ENDROOT
BRANCH   1   2
ATOM      2  C   UNL     1       6.309   3.846   0.953  1.00  0.00     0.130 C 
ATOM      3  C   UNL     1       7.350   4.766   0.423  1.00  0.00     0.087 C 
ATOM      4  O   UNL     1       6.194   3.764   2.165  1.00  0.00    -0.300 OA
ENDBRANCH   1   2
BRANCH   1   5
ATOM      5  C   UNL     1       5.042   1.730   0.680  1.00  0.00     0.043 C 
BRANCH   5   6
ATOM      6  C   UNL     1       5.901   0.624   0.218  1.00  0.00    -0.044 A 
ATOM      7  C   UNL     1       6.318   0.529  -1.114  1.00  0.00     0.008 A 
ATOM      8  C   UNL     1       6.309  -0.341   1.110  1.00  0.00     0.054 A 
ATOM      9  C   UNL     1       7.125  -0.530  -1.490  1.00  0.00     0.051 A 
ATOM     10  C   UNL     1       7.125  -1.409   0.725  1.00  0.00     0.166 A 
ATOM     11  C   UNL     1       7.536  -1.505  -0.586  1.00  0.00     0.165 A 
ATOM     12  O   UNL     1       7.657  -2.480   1.412  1.00  0.00    -0.454 OA
ATOM     13  O   UNL     1       8.321  -2.643  -0.678  1.00  0.00    -0.454 OA
ATOM     14  C   UNL     1       8.499  -3.241   0.584  1.00  0.00     0.468 C 
ENDBRANCH   5   6
ENDBRANCH   1   5
TORSDOF 3
ENDMDL
MODEL 3
REMARK VINA RESULT:      -7.5      1.895      2.604
REMARK SMILES CC(=O)CCc1ccc2c(c1)OCO2
REMARK SMILES IDX 4 1 2 2 1 3 3 4 5 5 6 6 7 7 11 8 8 9 10 10 9 11 12 12 14 13
REMARK SMILES IDX 13 14
REMARK H PARENT
REMARK Flexibility Score: inf
ROOT
ATOM      1  C   UNL     1       5.546   1.909   1.279  1.00  0.00     0.080 C 
ENDROOT
BRANCH   1   2
ATOM      2  C   UNL     1       5.120   0.686   2.014  1.00  0.00     0.130 C 
ATOM      3  C   UNL     1       6.027  -0.481   2.181  1.00  0.00     0.087 C 
ATOM      4  O   UNL     1       4.005   0.606   2.504  1.00  0.00    -0.300 OA
ENDBRANCH   1   2
BRANCH   1   5
ATOM      5  C   UNL     1       5.416   1.724  -0.220  1.00  0.00     0.043 C 
BRANCH   5   6
ATOM      6  C   UNL     1       6.580   1.020  -0.787  1.00  0.00    -0.044 A 
ATOM      7  C   UNL     1       7.889   1.446  -0.533  1.00  0.00     0.008 A 
ATOM      8  C   UNL     1       6.388  -0.085  -1.585  1.00  0.00     0.054 A 
ATOM      9  C   UNL     1       8.943   0.746  -1.091  1.00  0.00     0.051 A 
ATOM     10  C   UNL     1       7.457  -0.789  -2.147  1.00  0.00     0.166 A 
ATOM     11  C   UNL     1       8.745  -0.370  -1.898  1.00  0.00     0.165 A 
ATOM     12  O   UNL     1       7.526  -1.900  -2.961  1.00  0.00    -0.454 OA
ATOM     13  O   UNL     1       9.587  -1.242  -2.571  1.00  0.00    -0.454 OA
ATOM     14  C   UNL     1       8.859  -2.280  -3.184  1.00  0.00     0.468 C 
ENDBRANCH   5   6
ENDBRANCH   1   5
TORSDOF 3
ENDMDL
