@<TRIPOS>MOLECULE
/home/cewinharhar/GITHUB/reincatalyze/data/processed/docking_pred/2023-May-22-1531_sub9_nm5_bs15_s42_ex16_mel10_mts1000_k50_ec02_g099_lra9e-4_lrc1e-3/2b611616233e02901686b2fc0a6dd8ec9c570ff2_ligand_9.pdbqt
 14 15 0 0 0
SMALL
GASTEIGER

@<TRIPOS>ATOM
      1  C          5.5290    1.9140    1.2520 C.3     1  UNL1        0.0800
      2  C          5.0830    0.7080    2.0050 C.2     1  UNL1        0.1300
      3  C          5.9680   -0.4750    2.1790 C.3     1  UNL1        0.0870
      4  O          3.9700    0.6550    2.5020 O.2     1  UNL1       -0.3000
      5  C          5.3970    1.7090   -0.2440 C.3     1  UNL1        0.0430
      6  C          6.5690    1.0120   -0.8050 C.2     1  UNL1       -0.0440
      7  C          7.8730    1.4530   -0.5540 C.2     1  UNL1        0.0080
      8  C          6.3870   -0.1010   -1.5930 C.2     1  UNL1        0.0540
      9  C          8.9340    0.7590   -1.1070 C.2     1  UNL1        0.0510
     10  C          7.4630   -0.8000   -2.1480 C.2     1  UNL1        0.1660
     11  C          8.7470   -0.3660   -1.9040 C.2     1  UNL1        0.1650
     12  O          7.5430   -1.9170   -2.9530 O.2     1  UNL1       -0.4540
     13  O          9.5970   -1.2350   -2.5690 O.2     1  UNL1       -0.4540
     14  C          8.8800   -2.2860   -3.1720 C.3     1  UNL1        0.4680
@<TRIPOS>BOND
     1    14    12    1
     2    14    13    1
     3    12    10    1
     4    13    11    1
     5    10    11    2
     6    10     8    1
     7    11     9    1
     8     8     6    2
     9     9     7    2
    10     6     7    1
    11     6     5    1
    12     5     1    1
    13     1     2    1
    14     2     3    1
    15     2     4    2
