@<TRIPOS>MOLECULE
/home/cewinharhar/GITHUB/reincatalyze/data/processed/docking_pred/2023-May-22-1531_sub9_nm5_bs15_s42_ex16_mel10_mts1000_k50_ec02_g099_lra9e-4_lrc1e-3/2b611616233e02901686b2fc0a6dd8ec9c570ff2_ligand_9.pdbqt
 14 15 0 0 0
SMALL
GASTEIGER

@<TRIPOS>ATOM
      1  C          5.3930    2.9260    0.0870 C.3     1  UNL1        0.0800
      2  C          6.2460    3.7900    0.9510 C.2     1  UNL1        0.1300
      3  C          7.2000    4.7730    0.3720 C.3     1  UNL1        0.0870
      4  O          6.1850    3.7150    2.1670 O.2     1  UNL1       -0.3000
      5  C          5.1230    1.5870    0.7450 C.3     1  UNL1        0.0430
      6  C          5.9960    0.5280    0.2080 C.2     1  UNL1       -0.0440
      7  C          6.4240    0.5360   -1.1250 C.2     1  UNL1        0.0080
      8  C          6.4080   -0.4980    1.0280 C.2     1  UNL1        0.0540
      9  C          7.2430   -0.4840   -1.5730 C.2     1  UNL1        0.0510
     10  C          7.2370   -1.5260    0.5700 C.2     1  UNL1        0.1660
     11  C          7.6580   -1.5190   -0.7410 C.2     1  UNL1        0.1650
     12  O          7.7760   -2.6400    1.1780 O.2     1  UNL1       -0.4540
     13  O          8.4550   -2.6400   -0.9130 O.2     1  UNL1       -0.4540
     14  C          8.6300   -3.3300    0.3020 C.3     1  UNL1        0.4680
@<TRIPOS>BOND
     1     9     7    1
     2     9    11    2
     3     7     6    2
     4    13    11    1
     5    13    14    1
     6    11    10    1
     7     1     5    1
     8     1     2    1
     9     6     5    1
    10     6     8    1
    11    14    12    1
    12     3     2    1
    13    10     8    2
    14    10    12    1
    15     2     4    2
