@<TRIPOS>MOLECULE
/home/cewinharhar/GITHUB/reincatalyze/data/processed/docking_pred/2023-May-22-1531_sub9_nm5_bs15_s42_ex16_mel10_mts1000_k50_ec02_g099_lra9e-4_lrc1e-3/2b611616233e02901686b2fc0a6dd8ec9c570ff2_ligand_9.pdbqt
 14 15 0 0 0
SMALL
GASTEIGER

@<TRIPOS>ATOM
      1  C          5.4670    2.9100    0.0840 C.3     1  UNL1        0.0800
      2  C          6.1750    3.8970    0.9470 C.2     1  UNL1        0.1300
      3  C          7.2490    4.7750    0.4100 C.3     1  UNL1        0.0870
      4  O          5.8920    4.0120    2.1290 O.2     1  UNL1       -0.3000
      5  C          5.2260    1.6080    0.8200 C.3     1  UNL1        0.0430
      6  C          6.0520    0.5130    0.2800 C.2     1  UNL1       -0.0440
      7  C          6.3980   -0.5970    1.0580 C.2     1  UNL1        0.0080
      8  C          6.4970    0.5740   -1.0210 C.2     1  UNL1        0.0540
      9  C          7.1750   -1.5940    0.4960 C.2     1  UNL1        0.0510
     10  C          7.2820   -0.4370   -1.5850 C.2     1  UNL1        0.1660
     11  C          7.6240   -1.5300   -0.8190 C.2     1  UNL1        0.1650
     12  O          7.8400   -0.6070   -2.8340 O.2     1  UNL1       -0.4540
     13  O          8.3920   -2.3570   -1.6230 O.2     1  UNL1       -0.4540
     14  C          8.4790   -1.8540   -2.9350 C.3     1  UNL1        0.4680
@<TRIPOS>BOND
     1    14    12    1
     2    14    13    1
     3    12    10    1
     4    13    11    1
     5    10     8    1
     6    10    11    2
     7     8     6    2
     8    11     9    1
     9     1     5    1
    10     1     2    1
    11     6     5    1
    12     6     7    1
    13     3     2    1
    14     9     7    2
    15     2     4    2
