@<TRIPOS>MOLECULE
/home/cewinharhar/GITHUB/reincatalyze/data/processed/docking_pred/2023-May-22-1531_sub9_nm5_bs15_s42_ex16_mel10_mts1000_k50_ec02_g099_lra9e-4_lrc1e-3/2cf69de7cf34ef354308742c6722c88054a527ce_ligand_9.pdbqt
 14 15 0 0 0
SMALL
GASTEIGER

@<TRIPOS>ATOM
      1  C          5.3690    3.0470    0.2240 C.3     1  UNL1        0.0800
      2  C          6.3120    3.8470    1.0550 C.2     1  UNL1        0.1300
      3  C          7.2990    4.7750    0.4410 C.3     1  UNL1        0.0870
      4  O          6.3010    3.7630    2.2720 O.2     1  UNL1       -0.3000
      5  C          5.0810    1.7020    0.8610 C.3     1  UNL1        0.0430
      6  C          5.9380    0.6390    0.3040 C.2     1  UNL1       -0.0440
      7  C          6.3680    0.6670   -1.0270 C.2     1  UNL1        0.0080
      8  C          6.3320   -0.4080    1.1050 C.2     1  UNL1        0.0540
      9  C          7.1720   -0.3580   -1.4940 C.2     1  UNL1        0.0510
     10  C          7.1450   -1.4410    0.6290 C.2     1  UNL1        0.1660
     11  C          7.5680   -1.4160   -0.6810 C.2     1  UNL1        0.1650
     12  O          7.6640   -2.5750    1.2160 O.2     1  UNL1       -0.4540
     13  O          8.3470   -2.5460   -0.8730 O.2     1  UNL1       -0.4540
     14  C          8.5090   -3.2610    0.3290 C.3     1  UNL1        0.4680
@<TRIPOS>BOND
     1     9     7    1
     2     9    11    2
     3     7     6    2
     4    13    11    1
     5    13    14    1
     6    11    10    1
     7     1     5    1
     8     1     2    1
     9     6     5    1
    10     6     8    1
    11    14    12    1
    12     3     2    1
    13    10     8    2
    14    10    12    1
    15     2     4    2
