@<TRIPOS>MOLECULE
/home/cewinharhar/GITHUB/reincatalyze/data/processed/docking_pred/2023-May-22-1531_sub9_nm5_bs15_s42_ex16_mel10_mts1000_k50_ec02_g099_lra9e-4_lrc1e-3/2cf69de7cf34ef354308742c6722c88054a527ce_ligand_9.pdbqt
 14 15 0 0 0
SMALL
GASTEIGER

@<TRIPOS>ATOM
      1  C          5.5190    2.8550    0.1450 C.3     1  UNL1        0.0800
      2  C          6.2890    3.7910    1.0110 C.2     1  UNL1        0.1300
      3  C          7.2470    4.7750    0.4400 C.3     1  UNL1        0.0870
      4  O          6.1540    3.7770    2.2240 O.2     1  UNL1       -0.3000
      5  C          5.2640    1.5370    0.8500 C.3     1  UNL1        0.0430
      6  C          6.1100    0.4570    0.3110 C.2     1  UNL1       -0.0440
      7  C          6.5390   -0.6070    1.1120 C.2     1  UNL1        0.0080
      8  C          6.4910    0.4850   -1.0110 C.2     1  UNL1        0.0540
      9  C          7.3300   -1.5930    0.5510 C.2     1  UNL1        0.0510
     10  C          7.2920   -0.5140   -1.5740 C.2     1  UNL1        0.1660
     11  C          7.7150   -1.5620   -0.7860 C.2     1  UNL1        0.1650
     12  O          7.7980   -0.7100   -2.8410 O.2     1  UNL1       -0.4540
     13  O          8.4800   -2.3880   -1.5940 O.2     1  UNL1       -0.4540
     14  C          8.4840   -1.9330   -2.9260 C.3     1  UNL1        0.4680
@<TRIPOS>BOND
     1    14    12    1
     2    14    13    1
     3    12    10    1
     4    13    11    1
     5    10     8    1
     6    10    11    2
     7     8     6    2
     8    11     9    1
     9     1     5    1
    10     1     2    1
    11     6     5    1
    12     6     7    1
    13     3     2    1
    14     9     7    2
    15     2     4    2
