@<TRIPOS>MOLECULE
/home/cewinharhar/GITHUB/reincatalyze/data/processed/docking_pred/2023-May-22-1531_sub9_nm5_bs15_s42_ex16_mel10_mts1000_k50_ec02_g099_lra9e-4_lrc1e-3/2cf69de7cf34ef354308742c6722c88054a527ce_ligand_9.pdbqt
 14 15 0 0 0
SMALL
GASTEIGER

@<TRIPOS>ATOM
      1  C          5.5420    1.8990    1.2890 C.3     1  UNL1        0.0800
      2  C          5.1170    0.6770    2.0280 C.2     1  UNL1        0.1300
      3  C          6.0210   -0.4920    2.1890 C.3     1  UNL1        0.0870
      4  O          4.0050    0.6010    2.5260 O.2     1  UNL1       -0.3000
      5  C          5.4060    1.7120   -0.2090 C.3     1  UNL1        0.0430
      6  C          6.5710    1.0140   -0.7800 C.2     1  UNL1       -0.0440
      7  C          7.8780    1.4520   -0.5390 C.2     1  UNL1        0.0080
      8  C          6.3810   -0.0970   -1.5700 C.2     1  UNL1        0.0540
      9  C          8.9330    0.7570   -1.1020 C.2     1  UNL1        0.0510
     10  C          7.4510   -0.7970   -2.1360 C.2     1  UNL1        0.1660
     11  C          8.7380   -0.3660   -1.9000 C.2     1  UNL1        0.1650
     12  O          7.5230   -1.9110   -2.9440 O.2     1  UNL1       -0.4540
     13  O          9.5810   -1.2350   -2.5750 O.2     1  UNL1       -0.4540
     14  C          8.8580   -2.2820   -3.1750 C.3     1  UNL1        0.4680
@<TRIPOS>BOND
     1    14    12    1
     2    14    13    1
     3    12    10    1
     4    13    11    1
     5    10    11    2
     6    10     8    1
     7    11     9    1
     8     8     6    2
     9     9     7    2
    10     6     7    1
    11     6     5    1
    12     5     1    1
    13     1     2    1
    14     2     3    1
    15     2     4    2
