MODEL 1
REMARK VINA RESULT:      -7.9      0.000      0.000
REMARK SMILES CC(=O)CCc1ccc2c(c1)OCO2
REMARK SMILES IDX 4 1 2 2 1 3 3 4 5 5 6 6 7 7 11 8 8 9 10 10 9 11 12 12 14 13
REMARK SMILES IDX 13 14
REMARK H PARENT
REMARK Flexibility Score: inf
ROOT
ATOM      1  C   UNL     1       5.519   2.855   0.145  1.00  0.00     0.080 C 
ENDROOT
BRANCH   1   2
ATOM      2  C   UNL     1       6.289   3.791   1.011  1.00  0.00     0.130 C 
ATOM      3  C   UNL     1       7.247   4.775   0.440  1.00  0.00     0.087 C 
ATOM      4  O   UNL     1       6.154   3.777   2.224  1.00  0.00    -0.300 OA
ENDBRANCH   1   2
BRANCH   1   5
ATOM      5  C   UNL     1       5.264   1.537   0.850  1.00  0.00     0.043 C 
BRANCH   5   6
ATOM      6  C   UNL     1       6.110   0.457   0.311  1.00  0.00    -0.044 A 
ATOM      7  C   UNL     1       6.539  -0.607   1.112  1.00  0.00     0.008 A 
ATOM      8  C   UNL     1       6.491   0.485  -1.011  1.00  0.00     0.054 A 
ATOM      9  C   UNL     1       7.330  -1.593   0.551  1.00  0.00     0.051 A 
ATOM     10  C   UNL     1       7.292  -0.514  -1.574  1.00  0.00     0.166 A 
ATOM     11  C   UNL     1       7.715  -1.562  -0.786  1.00  0.00     0.165 A 
ATOM     12  O   UNL     1       7.798  -0.710  -2.841  1.00  0.00    -0.454 OA
ATOM     13  O   UNL     1       8.480  -2.388  -1.594  1.00  0.00    -0.454 OA
ATOM     14  C   UNL     1       8.484  -1.933  -2.926  1.00  0.00     0.468 C 
ENDBRANCH   5   6
ENDBRANCH   1   5
TORSDOF 3
ENDMDL
MODEL 2
REMARK VINA RESULT:      -7.8      1.027      2.003
REMARK SMILES CC(=O)CCc1ccc2c(c1)OCO2
REMARK SMILES IDX 4 1 2 2 1 3 3 4 5 5 6 6 7 7 11 8 8 9 10 10 9 11 12 12 14 13
REMARK SMILES IDX 13 14
REMARK H PARENT
REMARK Flexibility Score: inf
ROOT
ATOM      1  C   UNL     1       5.369   3.047   0.224  1.00  0.00     0.080 C 
ENDROOT
BRANCH   1   2
ATOM      2  C   UNL     1       6.312   3.847   1.055  1.00  0.00     0.130 C 
ATOM      3  C   UNL     1       7.299   4.775   0.441  1.00  0.00     0.087 C 
ATOM      4  O   UNL     1       6.301   3.763   2.272  1.00  0.00    -0.300 OA
ENDBRANCH   1   2
BRANCH   1   5
ATOM      5  C   UNL     1       5.081   1.702   0.861  1.00  0.00     0.043 C 
BRANCH   5   6
ATOM      6  C   UNL     1       5.938   0.639   0.304  1.00  0.00    -0.044 A 
ATOM      7  C   UNL     1       6.368   0.667  -1.027  1.00  0.00     0.008 A 
ATOM      8  C   UNL     1       6.332  -0.408   1.105  1.00  0.00     0.054 A 
ATOM      9  C   UNL     1       7.172  -0.358  -1.494  1.00  0.00     0.051 A 
ATOM     10  C   UNL     1       7.145  -1.441   0.629  1.00  0.00     0.166 A 
ATOM     11  C   UNL     1       7.568  -1.416  -0.681  1.00  0.00     0.165 A 
ATOM     12  O   UNL     1       7.664  -2.575   1.216  1.00  0.00    -0.454 OA
ATOM     13  O   UNL     1       8.347  -2.546  -0.873  1.00  0.00    -0.454 OA
ATOM     14  C   UNL     1       8.509  -3.261   0.329  1.00  0.00     0.468 C 
ENDBRANCH   5   6
ENDBRANCH   1   5
TORSDOF 3
ENDMDL
MODEL 3
REMARK VINA RESULT:      -7.7      1.882      2.592
REMARK SMILES CC(=O)CCc1ccc2c(c1)OCO2
REMARK SMILES IDX 4 1 2 2 1 3 3 4 5 5 6 6 7 7 11 8 8 9 10 10 9 11 12 12 14 13
REMARK SMILES IDX 13 14
REMARK H PARENT
REMARK Flexibility Score: inf
ROOT
ATOM      1  C   UNL     1       5.542   1.899   1.289  1.00  0.00     0.080 C 
ENDROOT
BRANCH   1   2
ATOM      2  C   UNL     1       5.117   0.677   2.028  1.00  0.00     0.130 C 
ATOM      3  C   UNL     1       6.021  -0.492   2.189  1.00  0.00     0.087 C 
ATOM      4  O   UNL     1       4.005   0.601   2.526  1.00  0.00    -0.300 OA
ENDBRANCH   1   2
BRANCH   1   5
ATOM      5  C   UNL     1       5.406   1.712  -0.209  1.00  0.00     0.043 C 
BRANCH   5   6
ATOM      6  C   UNL     1       6.571   1.014  -0.780  1.00  0.00    -0.044 A 
ATOM      7  C   UNL     1       7.878   1.452  -0.539  1.00  0.00     0.008 A 
ATOM      8  C   UNL     1       6.381  -0.097  -1.570  1.00  0.00     0.054 A 
ATOM      9  C   UNL     1       8.933   0.757  -1.102  1.00  0.00     0.051 A 
ATOM     10  C   UNL     1       7.451  -0.797  -2.136  1.00  0.00     0.166 A 
ATOM     11  C   UNL     1       8.738  -0.366  -1.900  1.00  0.00     0.165 A 
ATOM     12  O   UNL     1       7.523  -1.911  -2.944  1.00  0.00    -0.454 OA
ATOM     13  O   UNL     1       9.581  -1.235  -2.575  1.00  0.00    -0.454 OA
ATOM     14  C   UNL     1       8.858  -2.282  -3.175  1.00  0.00     0.468 C 
ENDBRANCH   5   6
ENDBRANCH   1   5
TORSDOF 3
ENDMDL
