MODEL 1
REMARK VINA RESULT:      -7.6      0.000      0.000
REMARK SMILES CC(=O)CCc1ccc2c(c1)OCO2
REMARK SMILES IDX 4 1 2 2 1 3 3 4 5 5 6 6 7 7 11 8 8 9 10 10 9 11 12 12 14 13
REMARK SMILES IDX 13 14
REMARK H PARENT
REMARK Flexibility Score: inf
ROOT
ATOM      1  C   UNL     1       5.555   1.901   1.286  1.00  0.00     0.080 C 
ENDROOT
BRANCH   1   2
ATOM      2  C   UNL     1       5.122   0.679   2.020  1.00  0.00     0.130 C 
ATOM      3  C   UNL     1       6.025  -0.490   2.193  1.00  0.00     0.087 C 
ATOM      4  O   UNL     1       4.004   0.602   2.503  1.00  0.00    -0.300 OA
ENDBRANCH   1   2
BRANCH   1   5
ATOM      5  C   UNL     1       5.421   1.718  -0.213  1.00  0.00     0.043 C 
BRANCH   5   6
ATOM      6  C   UNL     1       6.585   1.017  -0.785  1.00  0.00    -0.044 A 
ATOM      7  C   UNL     1       7.894   1.447  -0.538  1.00  0.00     0.008 A 
ATOM      8  C   UNL     1       6.392  -0.090  -1.580  1.00  0.00     0.054 A 
ATOM      9  C   UNL     1       8.947   0.749  -1.100  1.00  0.00     0.051 A 
ATOM     10  C   UNL     1       7.460  -0.792  -2.145  1.00  0.00     0.166 A 
ATOM     11  C   UNL     1       8.748  -0.369  -1.904  1.00  0.00     0.165 A 
ATOM     12  O   UNL     1       7.528  -1.904  -2.958  1.00  0.00    -0.454 OA
ATOM     13  O   UNL     1       9.589  -1.239  -2.579  1.00  0.00    -0.454 OA
ATOM     14  C   UNL     1       8.862  -2.281  -3.186  1.00  0.00     0.468 C 
ENDBRANCH   5   6
ENDBRANCH   1   5
TORSDOF 3
ENDMDL
MODEL 2
REMARK VINA RESULT:      -7.5      1.937      2.412
REMARK SMILES CC(=O)CCc1ccc2c(c1)OCO2
REMARK SMILES IDX 4 1 2 2 1 3 3 4 5 5 6 6 7 7 11 8 8 9 10 10 9 11 12 12 14 13
REMARK SMILES IDX 13 14
REMARK H PARENT
REMARK Flexibility Score: inf
ROOT
ATOM      1  C   UNL     1       5.731   1.293  -0.335  1.00  0.00     0.080 C 
ENDROOT
BRANCH   1   2
ATOM      2  C   UNL     1       5.163   1.291   1.041  1.00  0.00     0.130 C 
ATOM      3  C   UNL     1       5.343   0.133   1.958  1.00  0.00     0.087 C 
ATOM      4  O   UNL     1       4.528   2.245   1.459  1.00  0.00    -0.300 OA
ENDBRANCH   1   2
BRANCH   1   5
ATOM      5  C   UNL     1       7.233   1.087  -0.312  1.00  0.00     0.043 C 
BRANCH   5   6
ATOM      6  C   UNL     1       7.615  -0.208  -0.903  1.00  0.00    -0.044 A 
ATOM      7  C   UNL     1       7.712  -0.381  -2.288  1.00  0.00     0.008 A 
ATOM      8  C   UNL     1       7.889  -1.279  -0.082  1.00  0.00     0.054 A 
ATOM      9  C   UNL     1       8.077  -1.619  -2.786  1.00  0.00     0.051 A 
ATOM     10  C   UNL     1       8.257  -2.528  -0.590  1.00  0.00     0.166 A 
ATOM     11  C   UNL     1       8.352  -2.700  -1.953  1.00  0.00     0.165 A 
ATOM     12  O   UNL     1       8.574  -3.729   0.008  1.00  0.00    -0.454 OA
ATOM     13  O   UNL     1       8.730  -4.016  -2.166  1.00  0.00    -0.454 OA
ATOM     14  C   UNL     1       8.970  -4.679  -0.948  1.00  0.00     0.468 C 
ENDBRANCH   5   6
ENDBRANCH   1   5
TORSDOF 3
ENDMDL
MODEL 3
REMARK VINA RESULT:      -7.2      2.174      2.794
REMARK SMILES CC(=O)CCc1ccc2c(c1)OCO2
REMARK SMILES IDX 4 1 2 2 1 3 3 4 5 5 6 6 7 7 11 8 8 9 10 10 9 11 12 12 14 13
REMARK SMILES IDX 13 14
REMARK H PARENT
REMARK Flexibility Score: inf
ROOT
ATOM      1  C   UNL     1       6.884   2.149  -0.156  1.00  0.00     0.080 C 
ENDROOT
BRANCH   1   2
ATOM      2  C   UNL     1       6.078   2.954   0.803  1.00  0.00     0.130 C 
ATOM      3  C   UNL     1       6.534   4.287   1.281  1.00  0.00     0.087 C 
ATOM      4  O   UNL     1       5.011   2.540   1.227  1.00  0.00    -0.300 OA
ENDBRANCH   1   2
BRANCH   1   5
ATOM      5  C   UNL     1       6.101   0.957  -0.669  1.00  0.00     0.043 C 
BRANCH   5   6
ATOM      6  C   UNL     1       6.783  -0.315  -0.369  1.00  0.00    -0.044 A 
ATOM      7  C   UNL     1       6.946  -0.766   0.946  1.00  0.00     0.008 A 
ATOM      8  C   UNL     1       7.271  -1.087  -1.398  1.00  0.00     0.054 A 
ATOM      9  C   UNL     1       7.594  -1.968   1.167  1.00  0.00     0.051 A 
ATOM     10  C   UNL     1       7.924  -2.301  -1.169  1.00  0.00     0.166 A 
ATOM     11  C   UNL     1       8.087  -2.745   0.124  1.00  0.00     0.165 A 
ATOM     12  O   UNL     1       8.492  -3.236  -2.009  1.00  0.00    -0.454 OA
ATOM     13  O   UNL     1       8.757  -3.957   0.051  1.00  0.00    -0.454 OA
ATOM     14  C   UNL     1       8.952  -4.349  -1.287  1.00  0.00     0.468 C 
ENDBRANCH   5   6
ENDBRANCH   1   5
TORSDOF 3
ENDMDL
