@<TRIPOS>MOLECULE
/home/cewinharhar/GITHUB/reincatalyze/data/processed/docking_pred/2023-May-22-1531_sub9_nm5_bs15_s42_ex16_mel10_mts1000_k50_ec02_g099_lra9e-4_lrc1e-3/306d1dfeb5e1085b4f3e24b09348dc81ae645662_ligand_9.pdbqt
 14 15 0 0 0
SMALL
GASTEIGER

@<TRIPOS>ATOM
      1  C          6.8840    2.1490   -0.1560 C.3     1  UNL1        0.0800
      2  C          6.0780    2.9540    0.8030 C.2     1  UNL1        0.1300
      3  C          6.5340    4.2870    1.2810 C.3     1  UNL1        0.0870
      4  O          5.0110    2.5400    1.2270 O.2     1  UNL1       -0.3000
      5  C          6.1010    0.9570   -0.6690 C.3     1  UNL1        0.0430
      6  C          6.7830   -0.3150   -0.3690 C.2     1  UNL1       -0.0440
      7  C          6.9460   -0.7660    0.9460 C.2     1  UNL1        0.0080
      8  C          7.2710   -1.0870   -1.3980 C.2     1  UNL1        0.0540
      9  C          7.5940   -1.9680    1.1670 C.2     1  UNL1        0.0510
     10  C          7.9240   -2.3010   -1.1690 C.2     1  UNL1        0.1660
     11  C          8.0870   -2.7450    0.1240 C.2     1  UNL1        0.1650
     12  O          8.4920   -3.2360   -2.0090 O.2     1  UNL1       -0.4540
     13  O          8.7570   -3.9570    0.0510 O.2     1  UNL1       -0.4540
     14  C          8.9520   -4.3490   -1.2870 C.3     1  UNL1        0.4680
@<TRIPOS>BOND
     1    12    14    1
     2    12    10    1
     3     8    10    1
     4     8     6    2
     5    14    13    1
     6    10    11    2
     7     5     6    1
     8     5     1    1
     9     6     7    1
    10     1     2    1
    11    13    11    1
    12    11     9    1
    13     2     4    2
    14     2     3    1
    15     7     9    2
