@<TRIPOS>MOLECULE
/home/cewinharhar/GITHUB/reincatalyze/data/processed/docking_pred/2023-May-22-1531_sub9_nm5_bs15_s42_ex16_mel10_mts1000_k50_ec02_g099_lra9e-4_lrc1e-3/306d1dfeb5e1085b4f3e24b09348dc81ae645662_ligand_9.pdbqt
 14 15 0 0 0
SMALL
GASTEIGER

@<TRIPOS>ATOM
      1  C          5.5550    1.9010    1.2860 C.3     1  UNL1        0.0800
      2  C          5.1220    0.6790    2.0200 C.2     1  UNL1        0.1300
      3  C          6.0250   -0.4900    2.1930 C.3     1  UNL1        0.0870
      4  O          4.0040    0.6020    2.5030 O.2     1  UNL1       -0.3000
      5  C          5.4210    1.7180   -0.2130 C.3     1  UNL1        0.0430
      6  C          6.5850    1.0170   -0.7850 C.2     1  UNL1       -0.0440
      7  C          7.8940    1.4470   -0.5380 C.2     1  UNL1        0.0080
      8  C          6.3920   -0.0900   -1.5800 C.2     1  UNL1        0.0540
      9  C          8.9470    0.7490   -1.1000 C.2     1  UNL1        0.0510
     10  C          7.4600   -0.7920   -2.1450 C.2     1  UNL1        0.1660
     11  C          8.7480   -0.3690   -1.9040 C.2     1  UNL1        0.1650
     12  O          7.5280   -1.9040   -2.9580 O.2     1  UNL1       -0.4540
     13  O          9.5890   -1.2390   -2.5790 O.2     1  UNL1       -0.4540
     14  C          8.8620   -2.2810   -3.1860 C.3     1  UNL1        0.4680
@<TRIPOS>BOND
     1    14    12    1
     2    14    13    1
     3    12    10    1
     4    13    11    1
     5    10    11    2
     6    10     8    1
     7    11     9    1
     8     8     6    2
     9     9     7    2
    10     6     7    1
    11     6     5    1
    12     5     1    1
    13     1     2    1
    14     2     3    1
    15     2     4    2
