@<TRIPOS>MOLECULE
/home/cewinharhar/GITHUB/reincatalyze/data/processed/docking_pred/2023-May-22-1531_sub9_nm5_bs15_s42_ex16_mel10_mts1000_k50_ec02_g099_lra9e-4_lrc1e-3/306d1dfeb5e1085b4f3e24b09348dc81ae645662_ligand_9.pdbqt
 14 15 0 0 0
SMALL
GASTEIGER

@<TRIPOS>ATOM
      1  C          5.7310    1.2930   -0.3350 C.3     1  UNL1        0.0800
      2  C          5.1630    1.2910    1.0410 C.2     1  UNL1        0.1300
      3  C          5.3430    0.1330    1.9580 C.3     1  UNL1        0.0870
      4  O          4.5280    2.2450    1.4590 O.2     1  UNL1       -0.3000
      5  C          7.2330    1.0870   -0.3120 C.3     1  UNL1        0.0430
      6  C          7.6150   -0.2080   -0.9030 C.2     1  UNL1       -0.0440
      7  C          7.7120   -0.3810   -2.2880 C.2     1  UNL1        0.0080
      8  C          7.8890   -1.2790   -0.0820 C.2     1  UNL1        0.0540
      9  C          8.0770   -1.6190   -2.7860 C.2     1  UNL1        0.0510
     10  C          8.2570   -2.5280   -0.5900 C.2     1  UNL1        0.1660
     11  C          8.3520   -2.7000   -1.9530 C.2     1  UNL1        0.1650
     12  O          8.5740   -3.7290    0.0080 O.2     1  UNL1       -0.4540
     13  O          8.7300   -4.0160   -2.1660 O.2     1  UNL1       -0.4540
     14  C          8.9700   -4.6790   -0.9480 C.3     1  UNL1        0.4680
@<TRIPOS>BOND
     1     9     7    1
     2     9    11    2
     3     7     6    2
     4    13    11    1
     5    13    14    1
     6    11    10    1
     7    14    12    1
     8     6     5    1
     9     6     8    1
    10    10     8    2
    11    10    12    1
    12     1     5    1
    13     1     2    1
    14     2     4    2
    15     2     3    1
