@<TRIPOS>MOLECULE
/home/cewinharhar/GITHUB/reincatalyze/data/processed/docking_pred/2023-May-22-1531_sub9_nm5_bs15_s42_ex16_mel10_mts1000_k50_ec02_g099_lra9e-4_lrc1e-3/3162da3d825baae428df1736f889259fa2bb10a2_ligand_9.pdbqt
 14 15 0 0 0
SMALL
GASTEIGER

@<TRIPOS>ATOM
      1  C          5.5330    1.9150    1.2660 C.3     1  UNL1        0.0800
      2  C          5.0840    0.7020    2.0060 C.2     1  UNL1        0.1300
      3  C          5.9680   -0.4830    2.1720 C.3     1  UNL1        0.0870
      4  O          3.9700    0.6460    2.4990 O.2     1  UNL1       -0.3000
      5  C          5.4040    1.7250   -0.2320 C.3     1  UNL1        0.0430
      6  C          6.5710    1.0240   -0.7970 C.2     1  UNL1       -0.0440
      7  C          7.8780    1.4600   -0.5500 C.2     1  UNL1        0.0080
      8  C          6.3830   -0.0890   -1.5850 C.2     1  UNL1        0.0540
      9  C          8.9350    0.7620   -1.1060 C.2     1  UNL1        0.0510
     10  C          7.4550   -0.7910   -2.1440 C.2     1  UNL1        0.1660
     11  C          8.7410   -0.3620   -1.9030 C.2     1  UNL1        0.1650
     12  O          7.5280   -1.9080   -2.9490 O.2     1  UNL1       -0.4540
     13  O          9.5860   -1.2340   -2.5710 O.2     1  UNL1       -0.4540
     14  C          8.8640   -2.2820   -3.1730 C.3     1  UNL1        0.4680
@<TRIPOS>BOND
     1    14    12    1
     2    14    13    1
     3    12    10    1
     4    13    11    1
     5    10    11    2
     6    10     8    1
     7    11     9    1
     8     8     6    2
     9     9     7    2
    10     6     7    1
    11     6     5    1
    12     5     1    1
    13     1     2    1
    14     2     3    1
    15     2     4    2
