MODEL 1
REMARK VINA RESULT:      -8.0      0.000      0.000
REMARK SMILES CC(=O)CCc1ccc2c(c1)OCO2
REMARK SMILES IDX 4 1 2 2 1 3 3 4 5 5 6 6 7 7 11 8 8 9 10 10 9 11 12 12 14 13
REMARK SMILES IDX 13 14
REMARK H PARENT
REMARK Flexibility Score: inf
ROOT
ATOM      1  C   UNL     1       5.429   2.968   0.097  1.00  0.00     0.080 C 
ENDROOT
BRANCH   1   2
ATOM      2  C   UNL     1       6.307   3.819   0.947  1.00  0.00     0.130 C 
ATOM      3  C   UNL     1       7.281   4.773   0.353  1.00  0.00     0.087 C 
ATOM      4  O   UNL     1       6.252   3.756   2.165  1.00  0.00    -0.300 OA
ENDBRANCH   1   2
BRANCH   1   5
ATOM      5  C   UNL     1       5.096   1.659   0.787  1.00  0.00     0.043 C 
BRANCH   5   6
ATOM      6  C   UNL     1       5.943   0.555   0.301  1.00  0.00    -0.044 A 
ATOM      7  C   UNL     1       6.303  -0.513   1.131  1.00  0.00     0.008 A 
ATOM      8  C   UNL     1       6.395   0.563  -0.999  1.00  0.00     0.054 A 
ATOM      9  C   UNL     1       7.099  -1.522   0.620  1.00  0.00     0.051 A 
ATOM     10  C   UNL     1       7.200  -0.459  -1.511  1.00  0.00     0.166 A 
ATOM     11  C   UNL     1       7.555  -1.510  -0.695  1.00  0.00     0.165 A 
ATOM     12  O   UNL     1       7.769  -0.677  -2.748  1.00  0.00    -0.454 OA
ATOM     13  O   UNL     1       8.342  -2.360  -1.455  1.00  0.00    -0.454 OA
ATOM     14  C   UNL     1       8.428  -1.917  -2.789  1.00  0.00     0.468 C 
ENDBRANCH   5   6
ENDBRANCH   1   5
TORSDOF 3
ENDMDL
MODEL 2
REMARK VINA RESULT:      -7.8      0.972      1.965
REMARK SMILES CC(=O)CCc1ccc2c(c1)OCO2
REMARK SMILES IDX 4 1 2 2 1 3 3 4 5 5 6 6 7 7 11 8 8 9 10 10 9 11 12 12 14 13
REMARK SMILES IDX 13 14
REMARK H PARENT
REMARK Flexibility Score: inf
ROOT
ATOM      1  C   UNL     1       5.330   3.028   0.192  1.00  0.00     0.080 C 
ENDROOT
BRANCH   1   2
ATOM      2  C   UNL     1       6.309   3.804   1.003  1.00  0.00     0.130 C 
ATOM      3  C   UNL     1       7.246   4.775   0.377  1.00  0.00     0.087 C 
ATOM      4  O   UNL     1       6.371   3.663   2.214  1.00  0.00    -0.300 OA
ENDBRANCH   1   2
BRANCH   1   5
ATOM      5  C   UNL     1       5.040   1.680   0.822  1.00  0.00     0.043 C 
BRANCH   5   6
ATOM      6  C   UNL     1       5.910   0.623   0.275  1.00  0.00    -0.044 A 
ATOM      7  C   UNL     1       6.342   0.645  -1.056  1.00  0.00     0.008 A 
ATOM      8  C   UNL     1       6.315  -0.414   1.085  1.00  0.00     0.054 A 
ATOM      9  C   UNL     1       7.159  -0.374  -1.513  1.00  0.00     0.051 A 
ATOM     10  C   UNL     1       7.141  -1.441   0.618  1.00  0.00     0.166 A 
ATOM     11  C   UNL     1       7.566  -1.421  -0.692  1.00  0.00     0.165 A 
ATOM     12  O   UNL     1       7.672  -2.564   1.215  1.00  0.00    -0.454 OA
ATOM     13  O   UNL     1       8.359  -2.543  -0.873  1.00  0.00    -0.454 OA
ATOM     14  C   UNL     1       8.527  -3.247   0.334  1.00  0.00     0.468 C 
ENDBRANCH   5   6
ENDBRANCH   1   5
TORSDOF 3
ENDMDL
MODEL 3
REMARK VINA RESULT:      -7.7      1.889      2.644
REMARK SMILES CC(=O)CCc1ccc2c(c1)OCO2
REMARK SMILES IDX 4 1 2 2 1 3 3 4 5 5 6 6 7 7 11 8 8 9 10 10 9 11 12 12 14 13
REMARK SMILES IDX 13 14
REMARK H PARENT
REMARK Flexibility Score: inf
ROOT
ATOM      1  C   UNL     1       5.533   1.915   1.266  1.00  0.00     0.080 C 
ENDROOT
BRANCH   1   2
ATOM      2  C   UNL     1       5.084   0.702   2.006  1.00  0.00     0.130 C 
ATOM      3  C   UNL     1       5.968  -0.483   2.172  1.00  0.00     0.087 C 
ATOM      4  O   UNL     1       3.970   0.646   2.499  1.00  0.00    -0.300 OA
ENDBRANCH   1   2
BRANCH   1   5
ATOM      5  C   UNL     1       5.404   1.725  -0.232  1.00  0.00     0.043 C 
BRANCH   5   6
ATOM      6  C   UNL     1       6.571   1.024  -0.797  1.00  0.00    -0.044 A 
ATOM      7  C   UNL     1       7.878   1.460  -0.550  1.00  0.00     0.008 A 
ATOM      8  C   UNL     1       6.383  -0.089  -1.585  1.00  0.00     0.054 A 
ATOM      9  C   UNL     1       8.935   0.762  -1.106  1.00  0.00     0.051 A 
ATOM     10  C   UNL     1       7.455  -0.791  -2.144  1.00  0.00     0.166 A 
ATOM     11  C   UNL     1       8.741  -0.362  -1.903  1.00  0.00     0.165 A 
ATOM     12  O   UNL     1       7.528  -1.908  -2.949  1.00  0.00    -0.454 OA
ATOM     13  O   UNL     1       9.586  -1.234  -2.571  1.00  0.00    -0.454 OA
ATOM     14  C   UNL     1       8.864  -2.282  -3.173  1.00  0.00     0.468 C 
ENDBRANCH   5   6
ENDBRANCH   1   5
TORSDOF 3
ENDMDL
