@<TRIPOS>MOLECULE
/home/cewinharhar/GITHUB/reincatalyze/data/processed/docking_pred/2023-May-22-1531_sub9_nm5_bs15_s42_ex16_mel10_mts1000_k50_ec02_g099_lra9e-4_lrc1e-3/3162da3d825baae428df1736f889259fa2bb10a2_ligand_9.pdbqt
 14 15 0 0 0
SMALL
GASTEIGER

@<TRIPOS>ATOM
      1  C          5.4290    2.9680    0.0970 C.3     1  UNL1        0.0800
      2  C          6.3070    3.8190    0.9470 C.2     1  UNL1        0.1300
      3  C          7.2810    4.7730    0.3530 C.3     1  UNL1        0.0870
      4  O          6.2520    3.7560    2.1650 O.2     1  UNL1       -0.3000
      5  C          5.0960    1.6590    0.7870 C.3     1  UNL1        0.0430
      6  C          5.9430    0.5550    0.3010 C.2     1  UNL1       -0.0440
      7  C          6.3030   -0.5130    1.1310 C.2     1  UNL1        0.0080
      8  C          6.3950    0.5630   -0.9990 C.2     1  UNL1        0.0540
      9  C          7.0990   -1.5220    0.6200 C.2     1  UNL1        0.0510
     10  C          7.2000   -0.4590   -1.5110 C.2     1  UNL1        0.1660
     11  C          7.5550   -1.5100   -0.6950 C.2     1  UNL1        0.1650
     12  O          7.7690   -0.6770   -2.7480 O.2     1  UNL1       -0.4540
     13  O          8.3420   -2.3600   -1.4550 O.2     1  UNL1       -0.4540
     14  C          8.4280   -1.9170   -2.7890 C.3     1  UNL1        0.4680
@<TRIPOS>BOND
     1    14    12    1
     2    14    13    1
     3    12    10    1
     4    10     8    1
     5    10    11    2
     6    13    11    1
     7     8     6    2
     8    11     9    1
     9     1     5    1
    10     1     2    1
    11     6     5    1
    12     6     7    1
    13     3     2    1
    14     9     7    2
    15     2     4    2
