@<TRIPOS>MOLECULE
/home/cewinharhar/GITHUB/reincatalyze/data/processed/docking_pred/2023-May-22-1531_sub9_nm5_bs15_s42_ex16_mel10_mts1000_k50_ec02_g099_lra9e-4_lrc1e-3/3162da3d825baae428df1736f889259fa2bb10a2_ligand_9.pdbqt
 14 15 0 0 0
SMALL
GASTEIGER

@<TRIPOS>ATOM
      1  C          5.3300    3.0280    0.1920 C.3     1  UNL1        0.0800
      2  C          6.3090    3.8040    1.0030 C.2     1  UNL1        0.1300
      3  C          7.2460    4.7750    0.3770 C.3     1  UNL1        0.0870
      4  O          6.3710    3.6630    2.2140 O.2     1  UNL1       -0.3000
      5  C          5.0400    1.6800    0.8220 C.3     1  UNL1        0.0430
      6  C          5.9100    0.6230    0.2750 C.2     1  UNL1       -0.0440
      7  C          6.3420    0.6450   -1.0560 C.2     1  UNL1        0.0080
      8  C          6.3150   -0.4140    1.0850 C.2     1  UNL1        0.0540
      9  C          7.1590   -0.3740   -1.5130 C.2     1  UNL1        0.0510
     10  C          7.1410   -1.4410    0.6180 C.2     1  UNL1        0.1660
     11  C          7.5660   -1.4210   -0.6920 C.2     1  UNL1        0.1650
     12  O          7.6720   -2.5640    1.2150 O.2     1  UNL1       -0.4540
     13  O          8.3590   -2.5430   -0.8730 O.2     1  UNL1       -0.4540
     14  C          8.5270   -3.2470    0.3340 C.3     1  UNL1        0.4680
@<TRIPOS>BOND
     1     9     7    1
     2     9    11    2
     3     7     6    2
     4    13    11    1
     5    13    14    1
     6    11    10    1
     7     1     5    1
     8     1     2    1
     9     6     5    1
    10     6     8    1
    11    14    12    1
    12     3     2    1
    13    10     8    2
    14    10    12    1
    15     2     4    2
