@<TRIPOS>MOLECULE
/home/cewinharhar/GITHUB/reincatalyze/data/processed/docking_pred/2023-May-22-1531_sub9_nm5_bs15_s42_ex16_mel10_mts1000_k50_ec02_g099_lra9e-4_lrc1e-3/36543b95c0c748273319382419c31c9b55863a9a_ligand_9.pdbqt
 14 15 0 0 0
SMALL
GASTEIGER

@<TRIPOS>ATOM
      1  C          5.5790    1.8570    1.3050 C.3     1  UNL1        0.0800
      2  C          5.1330    0.6420    2.0420 C.2     1  UNL1        0.1300
      3  C          6.0170   -0.5430    2.2020 C.3     1  UNL1        0.0870
      4  O          4.0190    0.5840    2.5390 O.2     1  UNL1       -0.3000
      5  C          5.4290    1.6790   -0.1920 C.3     1  UNL1        0.0430
      6  C          6.5910    0.9890   -0.7800 C.2     1  UNL1       -0.0440
      7  C          7.8980    1.4420   -0.5640 C.2     1  UNL1        0.0080
      8  C          6.4000   -0.1290   -1.5580 C.2     1  UNL1        0.0540
      9  C          8.9500    0.7540   -1.1400 C.2     1  UNL1        0.0510
     10  C          7.4670   -0.8220   -2.1380 C.2     1  UNL1        0.1660
     11  C          8.7530   -0.3760   -1.9270 C.2     1  UNL1        0.1650
     12  O          7.5360   -1.9410   -2.9400 O.2     1  UNL1       -0.4540
     13  O          9.5930   -1.2410   -2.6110 O.2     1  UNL1       -0.4540
     14  C          8.8700   -2.3000   -3.1910 C.3     1  UNL1        0.4680
@<TRIPOS>BOND
     1    14    12    1
     2    14    13    1
     3    12    10    1
     4    13    11    1
     5    10    11    2
     6    10     8    1
     7    11     9    1
     8     8     6    2
     9     9     7    2
    10     6     7    1
    11     6     5    1
    12     5     1    1
    13     1     2    1
    14     2     3    1
    15     2     4    2
