@<TRIPOS>MOLECULE
/home/cewinharhar/GITHUB/reincatalyze/data/processed/docking_pred/2023-May-22-1531_sub9_nm5_bs15_s42_ex16_mel10_mts1000_k50_ec02_g099_lra9e-4_lrc1e-3/36543b95c0c748273319382419c31c9b55863a9a_ligand_9.pdbqt
 14 15 0 0 0
SMALL
GASTEIGER

@<TRIPOS>ATOM
      1  C          5.7300    1.2990   -0.3130 C.3     1  UNL1        0.0800
      2  C          5.1740    1.2870    1.0680 C.2     1  UNL1        0.1300
      3  C          5.3330    0.1110    1.9650 C.3     1  UNL1        0.0870
      4  O          4.5660    2.2500    1.5070 O.2     1  UNL1       -0.3000
      5  C          7.2320    1.0930   -0.3030 C.3     1  UNL1        0.0430
      6  C          7.6110   -0.2000   -0.9000 C.2     1  UNL1       -0.0440
      7  C          7.6910   -0.3720   -2.2870 C.2     1  UNL1        0.0080
      8  C          7.8970   -1.2700   -0.0830 C.2     1  UNL1        0.0540
      9  C          8.0520   -1.6090   -2.7900 C.2     1  UNL1        0.0510
     10  C          8.2620   -2.5190   -0.5970 C.2     1  UNL1        0.1660
     11  C          8.3400   -2.6890   -1.9610 C.2     1  UNL1        0.1650
     12  O          8.5900   -3.7190   -0.0040 O.2     1  UNL1       -0.4540
     13  O          8.7180   -4.0040   -2.1800 O.2     1  UNL1       -0.4540
     14  C          8.9750   -4.6680   -0.9650 C.3     1  UNL1        0.4680
@<TRIPOS>BOND
     1     9     7    1
     2     9    11    2
     3     7     6    2
     4    13    11    1
     5    13    14    1
     6    11    10    1
     7    14    12    1
     8     6     5    1
     9     6     8    1
    10    10     8    2
    11    10    12    1
    12     1     5    1
    13     1     2    1
    14     2     4    2
    15     2     3    1
