MODEL 1
REMARK VINA RESULT:      -7.9      0.000      0.000
REMARK SMILES CC(=O)CCc1ccc2c(c1)OCO2
REMARK SMILES IDX 4 1 2 2 1 3 3 4 5 5 6 6 7 7 11 8 8 9 10 10 9 11 12 12 14 13
REMARK SMILES IDX 13 14
REMARK H PARENT
REMARK Flexibility Score: inf
ROOT
ATOM      1  C   UNL     1       5.438   2.887   0.093  1.00  0.00     0.080 C 
ENDROOT
BRANCH   1   2
ATOM      2  C   UNL     1       6.253   3.818   0.922  1.00  0.00     0.130 C 
ATOM      3  C   UNL     1       7.211   4.775   0.308  1.00  0.00     0.087 C 
ATOM      4  O   UNL     1       6.157   3.821   2.139  1.00  0.00    -0.300 OA
ENDBRANCH   1   2
BRANCH   1   5
ATOM      5  C   UNL     1       5.186   1.580   0.819  1.00  0.00     0.043 C 
BRANCH   5   6
ATOM      6  C   UNL     1       6.014   0.487   0.278  1.00  0.00    -0.044 A 
ATOM      7  C   UNL     1       6.315  -0.650   1.038  1.00  0.00     0.008 A 
ATOM      8  C   UNL     1       6.505   0.574  -1.005  1.00  0.00     0.054 A 
ATOM      9  C   UNL     1       7.095  -1.644   0.477  1.00  0.00     0.051 A 
ATOM     10  C   UNL     1       7.294  -0.435  -1.567  1.00  0.00     0.166 A 
ATOM     11  C   UNL     1       7.591  -1.553  -0.820  1.00  0.00     0.165 A 
ATOM     12  O   UNL     1       7.893  -0.582  -2.800  1.00  0.00    -0.454 OA
ATOM     13  O   UNL     1       8.375  -2.372  -1.618  1.00  0.00    -0.454 OA
ATOM     14  C   UNL     1       8.515  -1.836  -2.913  1.00  0.00     0.468 C 
ENDBRANCH   5   6
ENDBRANCH   1   5
TORSDOF 3
ENDMDL
MODEL 2
REMARK VINA RESULT:      -7.6      1.898      2.661
REMARK SMILES CC(=O)CCc1ccc2c(c1)OCO2
REMARK SMILES IDX 4 1 2 2 1 3 3 4 5 5 6 6 7 7 11 8 8 9 10 10 9 11 12 12 14 13
REMARK SMILES IDX 13 14
REMARK H PARENT
REMARK Flexibility Score: inf
ROOT
ATOM      1  C   UNL     1       5.579   1.857   1.305  1.00  0.00     0.080 C 
ENDROOT
BRANCH   1   2
ATOM      2  C   UNL     1       5.133   0.642   2.042  1.00  0.00     0.130 C 
ATOM      3  C   UNL     1       6.017  -0.543   2.202  1.00  0.00     0.087 C 
ATOM      4  O   UNL     1       4.019   0.584   2.539  1.00  0.00    -0.300 OA
ENDBRANCH   1   2
BRANCH   1   5
ATOM      5  C   UNL     1       5.429   1.679  -0.192  1.00  0.00     0.043 C 
BRANCH   5   6
ATOM      6  C   UNL     1       6.591   0.989  -0.780  1.00  0.00    -0.044 A 
ATOM      7  C   UNL     1       7.898   1.442  -0.564  1.00  0.00     0.008 A 
ATOM      8  C   UNL     1       6.400  -0.129  -1.558  1.00  0.00     0.054 A 
ATOM      9  C   UNL     1       8.950   0.754  -1.140  1.00  0.00     0.051 A 
ATOM     10  C   UNL     1       7.467  -0.822  -2.138  1.00  0.00     0.166 A 
ATOM     11  C   UNL     1       8.753  -0.376  -1.927  1.00  0.00     0.165 A 
ATOM     12  O   UNL     1       7.536  -1.941  -2.940  1.00  0.00    -0.454 OA
ATOM     13  O   UNL     1       9.593  -1.241  -2.611  1.00  0.00    -0.454 OA
ATOM     14  C   UNL     1       8.870  -2.300  -3.191  1.00  0.00     0.468 C 
ENDBRANCH   5   6
ENDBRANCH   1   5
TORSDOF 3
ENDMDL
MODEL 3
REMARK VINA RESULT:      -7.5      1.949      3.016
REMARK SMILES CC(=O)CCc1ccc2c(c1)OCO2
REMARK SMILES IDX 4 1 2 2 1 3 3 4 5 5 6 6 7 7 11 8 8 9 10 10 9 11 12 12 14 13
REMARK SMILES IDX 13 14
REMARK H PARENT
REMARK Flexibility Score: inf
ROOT
ATOM      1  C   UNL     1       5.730   1.299  -0.313  1.00  0.00     0.080 C 
ENDROOT
BRANCH   1   2
ATOM      2  C   UNL     1       5.174   1.287   1.068  1.00  0.00     0.130 C 
ATOM      3  C   UNL     1       5.333   0.111   1.965  1.00  0.00     0.087 C 
ATOM      4  O   UNL     1       4.566   2.250   1.507  1.00  0.00    -0.300 OA
ENDBRANCH   1   2
BRANCH   1   5
ATOM      5  C   UNL     1       7.232   1.093  -0.303  1.00  0.00     0.043 C 
BRANCH   5   6
ATOM      6  C   UNL     1       7.611  -0.200  -0.900  1.00  0.00    -0.044 A 
ATOM      7  C   UNL     1       7.691  -0.372  -2.287  1.00  0.00     0.008 A 
ATOM      8  C   UNL     1       7.897  -1.270  -0.083  1.00  0.00     0.054 A 
ATOM      9  C   UNL     1       8.052  -1.609  -2.790  1.00  0.00     0.051 A 
ATOM     10  C   UNL     1       8.262  -2.519  -0.597  1.00  0.00     0.166 A 
ATOM     11  C   UNL     1       8.340  -2.689  -1.961  1.00  0.00     0.165 A 
ATOM     12  O   UNL     1       8.590  -3.719  -0.004  1.00  0.00    -0.454 OA
ATOM     13  O   UNL     1       8.718  -4.004  -2.180  1.00  0.00    -0.454 OA
ATOM     14  C   UNL     1       8.975  -4.668  -0.965  1.00  0.00     0.468 C 
ENDBRANCH   5   6
ENDBRANCH   1   5
TORSDOF 3
ENDMDL
