@<TRIPOS>MOLECULE
/home/cewinharhar/GITHUB/reincatalyze/data/processed/docking_pred/2023-May-22-1531_sub9_nm5_bs15_s42_ex16_mel10_mts1000_k50_ec02_g099_lra9e-4_lrc1e-3/36543b95c0c748273319382419c31c9b55863a9a_ligand_9.pdbqt
 14 15 0 0 0
SMALL
GASTEIGER

@<TRIPOS>ATOM
      1  C          5.4380    2.8870    0.0930 C.3     1  UNL1        0.0800
      2  C          6.2530    3.8180    0.9220 C.2     1  UNL1        0.1300
      3  C          7.2110    4.7750    0.3080 C.3     1  UNL1        0.0870
      4  O          6.1570    3.8210    2.1390 O.2     1  UNL1       -0.3000
      5  C          5.1860    1.5800    0.8190 C.3     1  UNL1        0.0430
      6  C          6.0140    0.4870    0.2780 C.2     1  UNL1       -0.0440
      7  C          6.3150   -0.6500    1.0380 C.2     1  UNL1        0.0080
      8  C          6.5050    0.5740   -1.0050 C.2     1  UNL1        0.0540
      9  C          7.0950   -1.6440    0.4770 C.2     1  UNL1        0.0510
     10  C          7.2940   -0.4350   -1.5670 C.2     1  UNL1        0.1660
     11  C          7.5910   -1.5530   -0.8200 C.2     1  UNL1        0.1650
     12  O          7.8930   -0.5820   -2.8000 O.2     1  UNL1       -0.4540
     13  O          8.3750   -2.3720   -1.6180 O.2     1  UNL1       -0.4540
     14  C          8.5150   -1.8360   -2.9130 C.3     1  UNL1        0.4680
@<TRIPOS>BOND
     1    14    12    1
     2    14    13    1
     3    12    10    1
     4    13    11    1
     5    10     8    1
     6    10    11    2
     7     8     6    2
     8    11     9    1
     9     1     5    1
    10     1     2    1
    11     6     5    1
    12     6     7    1
    13     3     2    1
    14     9     7    2
    15     2     4    2
