MODEL 1
REMARK VINA RESULT:      -7.9      0.000      0.000
REMARK SMILES CC(=O)CCc1ccc2c(c1)OCO2
REMARK SMILES IDX 4 1 2 2 1 3 3 4 5 5 6 6 7 7 11 8 8 9 10 10 9 11 12 12 14 13
REMARK SMILES IDX 13 14
REMARK H PARENT
REMARK Flexibility Score: inf
ROOT
ATOM      1  C   UNL     1       5.434   2.901   0.095  1.00  0.00     0.080 C 
ENDROOT
BRANCH   1   2
ATOM      2  C   UNL     1       6.269   3.820   0.918  1.00  0.00     0.130 C 
ATOM      3  C   UNL     1       7.226   4.773   0.296  1.00  0.00     0.087 C 
ATOM      4  O   UNL     1       6.189   3.818   2.136  1.00  0.00    -0.300 OA
ENDBRANCH   1   2
BRANCH   1   5
ATOM      5  C   UNL     1       5.190   1.589   0.813  1.00  0.00     0.043 C 
BRANCH   5   6
ATOM      6  C   UNL     1       6.032   0.506   0.276  1.00  0.00    -0.044 A 
ATOM      7  C   UNL     1       6.370  -0.612   1.047  1.00  0.00     0.008 A 
ATOM      8  C   UNL     1       6.502   0.584  -1.016  1.00  0.00     0.054 A 
ATOM      9  C   UNL     1       7.163  -1.598   0.489  1.00  0.00     0.051 A 
ATOM     10  C   UNL     1       7.304  -0.415  -1.576  1.00  0.00     0.166 A 
ATOM     11  C   UNL     1       7.637  -1.515  -0.817  1.00  0.00     0.165 A 
ATOM     12  O   UNL     1       7.887  -0.567  -2.815  1.00  0.00    -0.454 OA
ATOM     13  O   UNL     1       8.426  -2.329  -1.615  1.00  0.00    -0.454 OA
ATOM     14  C   UNL     1       8.535  -1.810  -2.919  1.00  0.00     0.468 C 
ENDBRANCH   5   6
ENDBRANCH   1   5
TORSDOF 3
ENDMDL
MODEL 2
REMARK VINA RESULT:      -7.8      1.012      2.010
REMARK SMILES CC(=O)CCc1ccc2c(c1)OCO2
REMARK SMILES IDX 4 1 2 2 1 3 3 4 5 5 6 6 7 7 11 8 8 9 10 10 9 11 12 12 14 13
REMARK SMILES IDX 13 14
REMARK H PARENT
REMARK Flexibility Score: inf
ROOT
ATOM      1  C   UNL     1       5.408   3.000   0.012  1.00  0.00     0.080 C 
ENDROOT
BRANCH   1   2
ATOM      2  C   UNL     1       6.280   3.822   0.897  1.00  0.00     0.130 C 
ATOM      3  C   UNL     1       7.286   4.767   0.342  1.00  0.00     0.087 C 
ATOM      4  O   UNL     1       6.194   3.741   2.112  1.00  0.00    -0.300 OA
ENDBRANCH   1   2
BRANCH   1   5
ATOM      5  C   UNL     1       5.088   1.660   0.644  1.00  0.00     0.043 C 
BRANCH   5   6
ATOM      6  C   UNL     1       5.977   0.595   0.146  1.00  0.00    -0.044 A 
ATOM      7  C   UNL     1       6.423   0.574  -1.180  1.00  0.00     0.008 A 
ATOM      8  C   UNL     1       6.386  -0.405   0.998  1.00  0.00     0.054 A 
ATOM      9  C   UNL     1       7.257  -0.450  -1.591  1.00  0.00     0.051 A 
ATOM     10  C   UNL     1       7.230  -1.438   0.578  1.00  0.00     0.166 A 
ATOM     11  C   UNL     1       7.669  -1.461  -0.727  1.00  0.00     0.165 A 
ATOM     12  O   UNL     1       7.769  -2.532   1.222  1.00  0.00    -0.454 OA
ATOM     13  O   UNL     1       8.477  -2.579  -0.859  1.00  0.00    -0.454 OA
ATOM     14  C   UNL     1       8.641  -3.236   0.375  1.00  0.00     0.468 C 
ENDBRANCH   5   6
ENDBRANCH   1   5
TORSDOF 3
ENDMDL
MODEL 3
REMARK VINA RESULT:      -7.7      1.889      2.620
REMARK SMILES CC(=O)CCc1ccc2c(c1)OCO2
REMARK SMILES IDX 4 1 2 2 1 3 3 4 5 5 6 6 7 7 11 8 8 9 10 10 9 11 12 12 14 13
REMARK SMILES IDX 13 14
REMARK H PARENT
REMARK Flexibility Score: inf
ROOT
ATOM      1  C   UNL     1       5.557   1.920   1.269  1.00  0.00     0.080 C 
ENDROOT
BRANCH   1   2
ATOM      2  C   UNL     1       5.128   0.705   2.015  1.00  0.00     0.130 C 
ATOM      3  C   UNL     1       6.035  -0.460   2.199  1.00  0.00     0.087 C 
ATOM      4  O   UNL     1       4.011   0.629   2.500  1.00  0.00    -0.300 OA
ENDBRANCH   1   2
BRANCH   1   5
ATOM      5  C   UNL     1       5.421   1.724  -0.228  1.00  0.00     0.043 C 
BRANCH   5   6
ATOM      6  C   UNL     1       6.586   1.021  -0.795  1.00  0.00    -0.044 A 
ATOM      7  C   UNL     1       7.895   1.451  -0.545  1.00  0.00     0.008 A 
ATOM      8  C   UNL     1       6.395  -0.088  -1.588  1.00  0.00     0.054 A 
ATOM      9  C   UNL     1       8.949   0.751  -1.104  1.00  0.00     0.051 A 
ATOM     10  C   UNL     1       7.464  -0.792  -2.150  1.00  0.00     0.166 A 
ATOM     11  C   UNL     1       8.752  -0.369  -1.905  1.00  0.00     0.165 A 
ATOM     12  O   UNL     1       7.534  -1.905  -2.960  1.00  0.00    -0.454 OA
ATOM     13  O   UNL     1       9.594  -1.241  -2.577  1.00  0.00    -0.454 OA
ATOM     14  C   UNL     1       8.868  -2.283  -3.184  1.00  0.00     0.468 C 
ENDBRANCH   5   6
ENDBRANCH   1   5
TORSDOF 3
ENDMDL
