@<TRIPOS>MOLECULE
/home/cewinharhar/GITHUB/reincatalyze/data/processed/docking_pred/2023-May-22-1531_sub9_nm5_bs15_s42_ex16_mel10_mts1000_k50_ec02_g099_lra9e-4_lrc1e-3/37a8b72800122466266a4bb22cdda1f56f02b914_ligand_9.pdbqt
 14 15 0 0 0
SMALL
GASTEIGER

@<TRIPOS>ATOM
      1  C          5.5570    1.9200    1.2690 C.3     1  UNL1        0.0800
      2  C          5.1280    0.7050    2.0150 C.2     1  UNL1        0.1300
      3  C          6.0350   -0.4600    2.1990 C.3     1  UNL1        0.0870
      4  O          4.0110    0.6290    2.5000 O.2     1  UNL1       -0.3000
      5  C          5.4210    1.7240   -0.2280 C.3     1  UNL1        0.0430
      6  C          6.5860    1.0210   -0.7950 C.2     1  UNL1       -0.0440
      7  C          7.8950    1.4510   -0.5450 C.2     1  UNL1        0.0080
      8  C          6.3950   -0.0880   -1.5880 C.2     1  UNL1        0.0540
      9  C          8.9490    0.7510   -1.1040 C.2     1  UNL1        0.0510
     10  C          7.4640   -0.7920   -2.1500 C.2     1  UNL1        0.1660
     11  C          8.7520   -0.3690   -1.9050 C.2     1  UNL1        0.1650
     12  O          7.5340   -1.9050   -2.9600 O.2     1  UNL1       -0.4540
     13  O          9.5940   -1.2410   -2.5770 O.2     1  UNL1       -0.4540
     14  C          8.8680   -2.2830   -3.1840 C.3     1  UNL1        0.4680
@<TRIPOS>BOND
     1    14    12    1
     2    14    13    1
     3    12    10    1
     4    13    11    1
     5    10    11    2
     6    10     8    1
     7    11     9    1
     8     8     6    2
     9     9     7    2
    10     6     7    1
    11     6     5    1
    12     5     1    1
    13     1     2    1
    14     2     3    1
    15     2     4    2
