@<TRIPOS>MOLECULE
/home/cewinharhar/GITHUB/reincatalyze/data/processed/docking_pred/2023-May-22-1531_sub9_nm5_bs15_s42_ex16_mel10_mts1000_k50_ec02_g099_lra9e-4_lrc1e-3/37a8b72800122466266a4bb22cdda1f56f02b914_ligand_9.pdbqt
 14 15 0 0 0
SMALL
GASTEIGER

@<TRIPOS>ATOM
      1  C          5.4080    3.0000    0.0120 C.3     1  UNL1        0.0800
      2  C          6.2800    3.8220    0.8970 C.2     1  UNL1        0.1300
      3  C          7.2860    4.7670    0.3420 C.3     1  UNL1        0.0870
      4  O          6.1940    3.7410    2.1120 O.2     1  UNL1       -0.3000
      5  C          5.0880    1.6600    0.6440 C.3     1  UNL1        0.0430
      6  C          5.9770    0.5950    0.1460 C.2     1  UNL1       -0.0440
      7  C          6.4230    0.5740   -1.1800 C.2     1  UNL1        0.0080
      8  C          6.3860   -0.4050    0.9980 C.2     1  UNL1        0.0540
      9  C          7.2570   -0.4500   -1.5910 C.2     1  UNL1        0.0510
     10  C          7.2300   -1.4380    0.5780 C.2     1  UNL1        0.1660
     11  C          7.6690   -1.4610   -0.7270 C.2     1  UNL1        0.1650
     12  O          7.7690   -2.5320    1.2220 O.2     1  UNL1       -0.4540
     13  O          8.4770   -2.5790   -0.8590 O.2     1  UNL1       -0.4540
     14  C          8.6410   -3.2360    0.3750 C.3     1  UNL1        0.4680
@<TRIPOS>BOND
     1     9     7    1
     2     9    11    2
     3     7     6    2
     4    13    11    1
     5    13    14    1
     6    11    10    1
     7     1     5    1
     8     1     2    1
     9     6     5    1
    10     6     8    1
    11     3     2    1
    12    14    12    1
    13    10     8    2
    14    10    12    1
    15     2     4    2
