@<TRIPOS>MOLECULE
/home/cewinharhar/GITHUB/reincatalyze/data/processed/docking_pred/2023-May-22-1531_sub9_nm5_bs15_s42_ex16_mel10_mts1000_k50_ec02_g099_lra9e-4_lrc1e-3/3b11ad51370e6150fddf32b3aa65dd5e24197163_ligand_9.pdbqt
 14 15 0 0 0
SMALL
GASTEIGER

@<TRIPOS>ATOM
      1  C          5.3150    0.6360    1.2120 C.3     1  UNL1        0.0800
      2  C          6.2090   -0.0080    2.2150 C.2     1  UNL1        0.1300
      3  C          6.5320   -1.4590    2.1540 C.3     1  UNL1        0.0870
      4  O          6.7050    0.6410    3.1210 O.2     1  UNL1       -0.3000
      5  C          6.0890    1.5750    0.3080 C.3     1  UNL1        0.0430
      6  C          7.0340    0.8460   -0.5570 C.2     1  UNL1       -0.0440
      7  C          8.3820    1.2110   -0.6410 C.2     1  UNL1        0.0080
      8  C          6.5900   -0.2220   -1.3030 C.2     1  UNL1        0.0540
      9  C          9.2220    0.4890   -1.4700 C.2     1  UNL1        0.0510
     10  C          7.4430   -0.9490   -2.1390 C.2     1  UNL1        0.1660
     11  C          8.7700   -0.5900   -2.2230 C.2     1  UNL1        0.1650
     12  O          7.2470   -2.0320   -2.9680 O.2     1  UNL1       -0.4540
     13  O          9.3680   -1.4700   -3.1110 O.2     1  UNL1       -0.4540
     14  C          8.4590   -2.4570   -3.5380 C.3     1  UNL1        0.4680
@<TRIPOS>BOND
     1    14    13    1
     2    14    12    1
     3    13    11    1
     4    12    10    1
     5    11    10    2
     6    11     9    1
     7    10     8    1
     8     9     7    2
     9     8     6    2
    10     7     6    1
    11     6     5    1
    12     5     1    1
    13     1     2    1
    14     3     2    1
    15     2     4    2
