@<TRIPOS>MOLECULE
/home/cewinharhar/GITHUB/reincatalyze/data/processed/docking_pred/2023-May-22-1531_sub9_nm5_bs15_s42_ex16_mel10_mts1000_k50_ec02_g099_lra9e-4_lrc1e-3/3b11ad51370e6150fddf32b3aa65dd5e24197163_ligand_9.pdbqt
 14 15 0 0 0
SMALL
GASTEIGER

@<TRIPOS>ATOM
      1  C          5.4040    2.2730    0.0150 C.3     1  UNL1        0.0800
      2  C          5.9720    3.2440    0.9910 C.2     1  UNL1        0.1300
      3  C          6.8200    4.3840    0.5550 C.3     1  UNL1        0.0870
      4  O          5.7550    3.1290    2.1870 O.2     1  UNL1       -0.3000
      5  C          5.8040    0.8510    0.3570 C.3     1  UNL1        0.0430
      6  C          6.8140    0.3270   -0.5800 C.2     1  UNL1       -0.0440
      7  C          6.6140   -0.8660   -1.2830 C.2     1  UNL1        0.0080
      8  C          7.9850    1.0220   -0.7780 C.2     1  UNL1        0.0540
      9  C          7.5970   -1.3080   -2.1490 C.2     1  UNL1        0.0510
     10  C          8.9760    0.5720   -1.6560 C.2     1  UNL1        0.1660
     11  C          8.7800   -0.6030   -2.3470 C.2     1  UNL1        0.1650
     12  O         10.2080    1.0730   -2.0200 O.2     1  UNL1       -0.4540
     13  O          9.9070   -0.8010   -3.1300 O.2     1  UNL1       -0.4540
     14  C         10.7970    0.2840   -3.0220 C.3     1  UNL1        0.4680
@<TRIPOS>BOND
     1    13    14    1
     2    13    11    1
     3    14    12    1
     4    11     9    2
     5    11    10    1
     6     9     7    1
     7    12    10    1
     8    10     8    2
     9     7     6    2
    10     8     6    1
    11     6     5    1
    12     1     5    1
    13     1     2    1
    14     3     2    1
    15     2     4    2
