MODEL 1
REMARK VINA RESULT:      -7.9      0.000      0.000
REMARK SMILES CC(=O)CCc1ccc2c(c1)OCO2
REMARK SMILES IDX 4 1 2 2 1 3 3 4 5 5 6 6 7 7 11 8 8 9 10 10 9 11 12 12 14 13
REMARK SMILES IDX 13 14
REMARK H PARENT
REMARK Flexibility Score: inf
ROOT
ATOM      1  C   UNL     1       5.442   2.308  -0.085  1.00  0.00     0.080 C 
ENDROOT
BRANCH   1   2
ATOM      2  C   UNL     1       5.978   3.251   0.935  1.00  0.00     0.130 C 
ATOM      3  C   UNL     1       6.848   4.397   0.558  1.00  0.00     0.087 C 
ATOM      4  O   UNL     1       5.716   3.108   2.119  1.00  0.00    -0.300 OA
ENDBRANCH   1   2
BRANCH   1   5
ATOM      5  C   UNL     1       5.811   0.874   0.242  1.00  0.00     0.043 C 
BRANCH   5   6
ATOM      6  C   UNL     1       6.872   0.367  -0.646  1.00  0.00    -0.044 A 
ATOM      7  C   UNL     1       8.092   1.038  -0.788  1.00  0.00     0.008 A 
ATOM      8  C   UNL     1       6.670  -0.795  -1.356  1.00  0.00     0.054 A 
ATOM      9  C   UNL     1       9.052   0.514  -1.636  1.00  0.00     0.051 A 
ATOM     10  C   UNL     1       7.643  -1.321  -2.211  1.00  0.00     0.166 A 
ATOM     11  C   UNL     1       8.844  -0.661  -2.352  1.00  0.00     0.165 A 
ATOM     12  O   UNL     1       7.682  -2.441  -3.014  1.00  0.00    -0.454 OA
ATOM     13  O   UNL     1       9.603  -1.398  -3.247  1.00  0.00    -0.454 OA
ATOM     14  C   UNL     1       8.941  -2.582  -3.622  1.00  0.00     0.468 C 
ENDBRANCH   5   6
ENDBRANCH   1   5
TORSDOF 3
ENDMDL
MODEL 2
REMARK VINA RESULT:      -7.5      0.992      1.983
REMARK SMILES CC(=O)CCc1ccc2c(c1)OCO2
REMARK SMILES IDX 4 1 2 2 1 3 3 4 5 5 6 6 7 7 11 8 8 9 10 10 9 11 12 12 14 13
REMARK SMILES IDX 13 14
REMARK H PARENT
REMARK Flexibility Score: inf
ROOT
ATOM      1  C   UNL     1       5.404   2.273   0.015  1.00  0.00     0.080 C 
ENDROOT
BRANCH   1   2
ATOM      2  C   UNL     1       5.972   3.244   0.991  1.00  0.00     0.130 C 
ATOM      3  C   UNL     1       6.820   4.384   0.555  1.00  0.00     0.087 C 
ATOM      4  O   UNL     1       5.755   3.129   2.187  1.00  0.00    -0.300 OA
ENDBRANCH   1   2
BRANCH   1   5
ATOM      5  C   UNL     1       5.804   0.851   0.357  1.00  0.00     0.043 C 
BRANCH   5   6
ATOM      6  C   UNL     1       6.814   0.327  -0.580  1.00  0.00    -0.044 A 
ATOM      7  C   UNL     1       6.614  -0.866  -1.283  1.00  0.00     0.008 A 
ATOM      8  C   UNL     1       7.985   1.022  -0.778  1.00  0.00     0.054 A 
ATOM      9  C   UNL     1       7.597  -1.308  -2.149  1.00  0.00     0.051 A 
ATOM     10  C   UNL     1       8.976   0.572  -1.656  1.00  0.00     0.166 A 
ATOM     11  C   UNL     1       8.780  -0.603  -2.347  1.00  0.00     0.165 A 
ATOM     12  O   UNL     1      10.208   1.073  -2.020  1.00  0.00    -0.454 OA
ATOM     13  O   UNL     1       9.907  -0.801  -3.130  1.00  0.00    -0.454 OA
ATOM     14  C   UNL     1      10.797   0.284  -3.022  1.00  0.00     0.468 C 
ENDBRANCH   5   6
ENDBRANCH   1   5
TORSDOF 3
ENDMDL
MODEL 3
REMARK VINA RESULT:      -7.4      1.364      2.140
REMARK SMILES CC(=O)CCc1ccc2c(c1)OCO2
REMARK SMILES IDX 4 1 2 2 1 3 3 4 5 5 6 6 7 7 11 8 8 9 10 10 9 11 12 12 14 13
REMARK SMILES IDX 13 14
REMARK H PARENT
REMARK Flexibility Score: inf
ROOT
ATOM      1  C   UNL     1       5.315   0.636   1.212  1.00  0.00     0.080 C 
ENDROOT
BRANCH   1   2
ATOM      2  C   UNL     1       6.209  -0.008   2.215  1.00  0.00     0.130 C 
ATOM      3  C   UNL     1       6.532  -1.459   2.154  1.00  0.00     0.087 C 
ATOM      4  O   UNL     1       6.705   0.641   3.121  1.00  0.00    -0.300 OA
ENDBRANCH   1   2
BRANCH   1   5
ATOM      5  C   UNL     1       6.089   1.575   0.308  1.00  0.00     0.043 C 
BRANCH   5   6
ATOM      6  C   UNL     1       7.034   0.846  -0.557  1.00  0.00    -0.044 A 
ATOM      7  C   UNL     1       8.382   1.211  -0.641  1.00  0.00     0.008 A 
ATOM      8  C   UNL     1       6.590  -0.222  -1.303  1.00  0.00     0.054 A 
ATOM      9  C   UNL     1       9.222   0.489  -1.470  1.00  0.00     0.051 A 
ATOM     10  C   UNL     1       7.443  -0.949  -2.139  1.00  0.00     0.166 A 
ATOM     11  C   UNL     1       8.770  -0.590  -2.223  1.00  0.00     0.165 A 
ATOM     12  O   UNL     1       7.247  -2.032  -2.968  1.00  0.00    -0.454 OA
ATOM     13  O   UNL     1       9.368  -1.470  -3.111  1.00  0.00    -0.454 OA
ATOM     14  C   UNL     1       8.459  -2.457  -3.538  1.00  0.00     0.468 C 
ENDBRANCH   5   6
ENDBRANCH   1   5
TORSDOF 3
ENDMDL
