@<TRIPOS>MOLECULE
/home/cewinharhar/GITHUB/reincatalyze/data/processed/docking_pred/2023-May-22-1531_sub9_nm5_bs15_s42_ex16_mel10_mts1000_k50_ec02_g099_lra9e-4_lrc1e-3/3b11ad51370e6150fddf32b3aa65dd5e24197163_ligand_9.pdbqt
 14 15 0 0 0
SMALL
GASTEIGER

@<TRIPOS>ATOM
      1  C          5.4420    2.3080   -0.0850 C.3     1  UNL1        0.0800
      2  C          5.9780    3.2510    0.9350 C.2     1  UNL1        0.1300
      3  C          6.8480    4.3970    0.5580 C.3     1  UNL1        0.0870
      4  O          5.7160    3.1080    2.1190 O.2     1  UNL1       -0.3000
      5  C          5.8110    0.8740    0.2420 C.3     1  UNL1        0.0430
      6  C          6.8720    0.3670   -0.6460 C.2     1  UNL1       -0.0440
      7  C          8.0920    1.0380   -0.7880 C.2     1  UNL1        0.0080
      8  C          6.6700   -0.7950   -1.3560 C.2     1  UNL1        0.0540
      9  C          9.0520    0.5140   -1.6360 C.2     1  UNL1        0.0510
     10  C          7.6430   -1.3210   -2.2110 C.2     1  UNL1        0.1660
     11  C          8.8440   -0.6610   -2.3520 C.2     1  UNL1        0.1650
     12  O          7.6820   -2.4410   -3.0140 O.2     1  UNL1       -0.4540
     13  O          9.6030   -1.3980   -3.2470 O.2     1  UNL1       -0.4540
     14  C          8.9410   -2.5820   -3.6220 C.3     1  UNL1        0.4680
@<TRIPOS>BOND
     1    14    13    1
     2    14    12    1
     3    13    11    1
     4    12    10    1
     5    11    10    2
     6    11     9    1
     7    10     8    1
     8     9     7    2
     9     8     6    2
    10     7     6    1
    11     6     5    1
    12     1     5    1
    13     1     2    1
    14     3     2    1
    15     2     4    2
