@<TRIPOS>MOLECULE
/home/cewinharhar/GITHUB/reincatalyze/data/processed/docking_pred/2023-May-22-1531_sub9_nm5_bs15_s42_ex16_mel10_mts1000_k50_ec02_g099_lra9e-4_lrc1e-3/3b29dc4ebb7ee5049f43ecb42d98a580ffb6b5da_ligand_9.pdbqt
 14 15 0 0 0
SMALL
GASTEIGER

@<TRIPOS>ATOM
      1  C          5.7440    1.2990   -0.4180 C.3     1  UNL1        0.0800
      2  C          5.1360    1.3310    0.9420 C.2     1  UNL1        0.1300
      3  C          5.3470    0.2280    1.9170 C.3     1  UNL1        0.0870
      4  O          4.4410    2.2690    1.2960 O.2     1  UNL1       -0.3000
      5  C          7.2400    1.0700   -0.3460 C.3     1  UNL1        0.0430
      6  C          7.6230   -0.2280   -0.9310 C.2     1  UNL1       -0.0440
      7  C          7.7170   -0.4090   -2.3160 C.2     1  UNL1        0.0080
      8  C          7.8980   -1.2940   -0.1050 C.2     1  UNL1        0.0540
      9  C          8.0810   -1.6490   -2.8070 C.2     1  UNL1        0.0510
     10  C          8.2670   -2.5450   -0.6070 C.2     1  UNL1        0.1660
     11  C          8.3590   -2.7240   -1.9690 C.2     1  UNL1        0.1650
     12  O          8.5860   -3.7430   -0.0030 O.2     1  UNL1       -0.4540
     13  O          8.7370   -4.0420   -2.1760 O.2     1  UNL1       -0.4540
     14  C          8.9800   -4.6980   -0.9550 C.3     1  UNL1        0.4680
@<TRIPOS>BOND
     1     9     7    1
     2     9    11    2
     3     7     6    2
     4    13    11    1
     5    13    14    1
     6    11    10    1
     7    14    12    1
     8     6     5    1
     9     6     8    1
    10    10     8    2
    11    10    12    1
    12     1     5    1
    13     1     2    1
    14     2     4    2
    15     2     3    1
