MODEL 1
REMARK VINA RESULT:      -7.5      0.000      0.000
REMARK SMILES CC(=O)CCc1ccc2c(c1)OCO2
REMARK SMILES IDX 4 1 2 2 1 3 3 4 5 5 6 6 7 7 11 8 8 9 10 10 9 11 12 12 14 13
REMARK SMILES IDX 13 14
REMARK H PARENT
REMARK Flexibility Score: inf
ROOT
ATOM      1  C   UNL     1       5.511   1.923   1.261  1.00  0.00     0.080 C 
ENDROOT
BRANCH   1   2
ATOM      2  C   UNL     1       5.066   0.711   2.003  1.00  0.00     0.130 C 
ATOM      3  C   UNL     1       5.951  -0.474   2.165  1.00  0.00     0.087 C 
ATOM      4  O   UNL     1       3.954   0.655   2.503  1.00  0.00    -0.300 OA
ENDBRANCH   1   2
BRANCH   1   5
ATOM      5  C   UNL     1       5.386   1.728  -0.237  1.00  0.00     0.043 C 
BRANCH   5   6
ATOM      6  C   UNL     1       6.557   1.031  -0.797  1.00  0.00    -0.044 A 
ATOM      7  C   UNL     1       7.861   1.469  -0.544  1.00  0.00     0.008 A 
ATOM      8  C   UNL     1       6.375  -0.082  -1.586  1.00  0.00     0.054 A 
ATOM      9  C   UNL     1       8.922   0.774  -1.096  1.00  0.00     0.051 A 
ATOM     10  C   UNL     1       7.450  -0.782  -2.141  1.00  0.00     0.166 A 
ATOM     11  C   UNL     1       8.734  -0.350  -1.894  1.00  0.00     0.165 A 
ATOM     12  O   UNL     1       7.530  -1.898  -2.947  1.00  0.00    -0.454 OA
ATOM     13  O   UNL     1       9.584  -1.220  -2.559  1.00  0.00    -0.454 OA
ATOM     14  C   UNL     1       8.867  -2.269  -3.165  1.00  0.00     0.468 C 
ENDBRANCH   5   6
ENDBRANCH   1   5
TORSDOF 3
ENDMDL
MODEL 2
REMARK VINA RESULT:      -7.4      1.938      2.443
REMARK SMILES CC(=O)CCc1ccc2c(c1)OCO2
REMARK SMILES IDX 4 1 2 2 1 3 3 4 5 5 6 6 7 7 11 8 8 9 10 10 9 11 12 12 14 13
REMARK SMILES IDX 13 14
REMARK H PARENT
REMARK Flexibility Score: inf
ROOT
ATOM      1  C   UNL     1       5.744   1.299  -0.418  1.00  0.00     0.080 C 
ENDROOT
BRANCH   1   2
ATOM      2  C   UNL     1       5.136   1.331   0.942  1.00  0.00     0.130 C 
ATOM      3  C   UNL     1       5.347   0.228   1.917  1.00  0.00     0.087 C 
ATOM      4  O   UNL     1       4.441   2.269   1.296  1.00  0.00    -0.300 OA
ENDBRANCH   1   2
BRANCH   1   5
ATOM      5  C   UNL     1       7.240   1.070  -0.346  1.00  0.00     0.043 C 
BRANCH   5   6
ATOM      6  C   UNL     1       7.623  -0.228  -0.931  1.00  0.00    -0.044 A 
ATOM      7  C   UNL     1       7.717  -0.409  -2.316  1.00  0.00     0.008 A 
ATOM      8  C   UNL     1       7.898  -1.294  -0.105  1.00  0.00     0.054 A 
ATOM      9  C   UNL     1       8.081  -1.649  -2.807  1.00  0.00     0.051 A 
ATOM     10  C   UNL     1       8.267  -2.545  -0.607  1.00  0.00     0.166 A 
ATOM     11  C   UNL     1       8.359  -2.724  -1.969  1.00  0.00     0.165 A 
ATOM     12  O   UNL     1       8.586  -3.743  -0.003  1.00  0.00    -0.454 OA
ATOM     13  O   UNL     1       8.737  -4.042  -2.176  1.00  0.00    -0.454 OA
ATOM     14  C   UNL     1       8.980  -4.698  -0.955  1.00  0.00     0.468 C 
ENDBRANCH   5   6
ENDBRANCH   1   5
TORSDOF 3
ENDMDL
MODEL 3
REMARK VINA RESULT:      -7.1      2.196      2.712
REMARK SMILES CC(=O)CCc1ccc2c(c1)OCO2
REMARK SMILES IDX 4 1 2 2 1 3 3 4 5 5 6 6 7 7 11 8 8 9 10 10 9 11 12 12 14 13
REMARK SMILES IDX 13 14
REMARK H PARENT
REMARK Flexibility Score: inf
ROOT
ATOM      1  C   UNL     1       5.637   1.307  -0.522  1.00  0.00     0.080 C 
ENDROOT
BRANCH   1   2
ATOM      2  C   UNL     1       5.355   2.273   0.577  1.00  0.00     0.130 C 
ATOM      3  C   UNL     1       6.113   3.546   0.710  1.00  0.00     0.087 C 
ATOM      4  O   UNL     1       4.489   2.045   1.405  1.00  0.00    -0.300 OA
ENDBRANCH   1   2
BRANCH   1   5
ATOM      5  C   UNL     1       7.128   1.131  -0.732  1.00  0.00     0.043 C 
BRANCH   5   6
ATOM      6  C   UNL     1       7.563  -0.245  -0.432  1.00  0.00    -0.044 A 
ATOM      7  C   UNL     1       7.722  -0.693   0.884  1.00  0.00     0.008 A 
ATOM      8  C   UNL     1       7.821  -1.118  -1.464  1.00  0.00     0.054 A 
ATOM      9  C   UNL     1       8.132  -1.995   1.104  1.00  0.00     0.051 A 
ATOM     10  C   UNL     1       8.235  -2.434  -1.236  1.00  0.00     0.166 A 
ATOM     11  C   UNL     1       8.392  -2.876   0.058  1.00  0.00     0.165 A 
ATOM     12  O   UNL     1       8.549  -3.479  -2.079  1.00  0.00    -0.454 OA
ATOM     13  O   UNL     1       8.804  -4.198  -0.017  1.00  0.00    -0.454 OA
ATOM     14  C   UNL     1       8.829  -4.647  -1.350  1.00  0.00     0.468 C 
ENDBRANCH   5   6
ENDBRANCH   1   5
TORSDOF 3
ENDMDL
