@<TRIPOS>MOLECULE
/home/cewinharhar/GITHUB/reincatalyze/data/processed/docking_pred/2023-May-22-1531_sub9_nm5_bs15_s42_ex16_mel10_mts1000_k50_ec02_g099_lra9e-4_lrc1e-3/3b29dc4ebb7ee5049f43ecb42d98a580ffb6b5da_ligand_9.pdbqt
 14 15 0 0 0
SMALL
GASTEIGER

@<TRIPOS>ATOM
      1  C          5.6370    1.3070   -0.5220 C.3     1  UNL1        0.0800
      2  C          5.3550    2.2730    0.5770 C.2     1  UNL1        0.1300
      3  C          6.1130    3.5460    0.7100 C.3     1  UNL1        0.0870
      4  O          4.4890    2.0450    1.4050 O.2     1  UNL1       -0.3000
      5  C          7.1280    1.1310   -0.7320 C.3     1  UNL1        0.0430
      6  C          7.5630   -0.2450   -0.4320 C.2     1  UNL1       -0.0440
      7  C          7.7220   -0.6930    0.8840 C.2     1  UNL1        0.0080
      8  C          7.8210   -1.1180   -1.4640 C.2     1  UNL1        0.0540
      9  C          8.1320   -1.9950    1.1040 C.2     1  UNL1        0.0510
     10  C          8.2350   -2.4340   -1.2360 C.2     1  UNL1        0.1660
     11  C          8.3920   -2.8760    0.0580 C.2     1  UNL1        0.1650
     12  O          8.5490   -3.4790   -2.0790 O.2     1  UNL1       -0.4540
     13  O          8.8040   -4.1980   -0.0170 O.2     1  UNL1       -0.4540
     14  C          8.8290   -4.6470   -1.3500 C.3     1  UNL1        0.4680
@<TRIPOS>BOND
     1    12    14    1
     2    12    10    1
     3     8    10    1
     4     8     6    2
     5    14    13    1
     6    10    11    2
     7     5     1    1
     8     5     6    1
     9     1     2    1
    10     6     7    1
    11    13    11    1
    12    11     9    1
    13     2     3    1
    14     2     4    2
    15     7     9    2
