@<TRIPOS>MOLECULE
/home/cewinharhar/GITHUB/reincatalyze/data/processed/docking_pred/2023-May-22-1531_sub9_nm5_bs15_s42_ex16_mel10_mts1000_k50_ec02_g099_lra9e-4_lrc1e-3/3e742204aaadd08b2af2eabe2bac092cf241077d_ligand_9.pdbqt
 14 15 0 0 0
SMALL
GASTEIGER

@<TRIPOS>ATOM
      1  C          5.5200    2.8550    0.0730 C.3     1  UNL1        0.0800
      2  C          6.3220    3.7700    0.9330 C.2     1  UNL1        0.1300
      3  C          7.2520    4.7740    0.3500 C.3     1  UNL1        0.0870
      4  O          6.2390    3.7200    2.1490 O.2     1  UNL1       -0.3000
      5  C          5.2140    1.5550    0.7880 C.3     1  UNL1        0.0430
      6  C          6.0500    0.4480    0.2910 C.2     1  UNL1       -0.0440
      7  C          6.4400   -0.6080    1.1240 C.2     1  UNL1        0.0080
      8  C          6.4620    0.4400   -1.0220 C.2     1  UNL1        0.0540
      9  C          7.2250   -1.6200    0.6020 C.2     1  UNL1        0.0510
     10  C          7.2540   -0.5860   -1.5450 C.2     1  UNL1        0.1660
     11  C          7.6400   -1.6240   -0.7260 C.2     1  UNL1        0.1650
     12  O          7.7860   -0.8180   -2.7960 O.2     1  UNL1       -0.4540
     13  O          8.4060   -2.4820   -1.5000 O.2     1  UNL1       -0.4540
     14  C          8.4490   -2.0560   -2.8410 C.3     1  UNL1        0.4680
@<TRIPOS>BOND
     1    14    12    1
     2    14    13    1
     3    12    10    1
     4    10     8    1
     5    10    11    2
     6    13    11    1
     7     8     6    2
     8    11     9    1
     9     1     5    1
    10     1     2    1
    11     6     5    1
    12     6     7    1
    13     3     2    1
    14     9     7    2
    15     2     4    2
