MODEL 1
REMARK VINA RESULT:      -8.0      0.000      0.000
REMARK SMILES CC(=O)CCc1ccc2c(c1)OCO2
REMARK SMILES IDX 4 1 2 2 1 3 3 4 5 5 6 6 7 7 11 8 8 9 10 10 9 11 12 12 14 13
REMARK SMILES IDX 13 14
REMARK H PARENT
REMARK Flexibility Score: inf
ROOT
ATOM      1  C   UNL     1       5.520   2.855   0.073  1.00  0.00     0.080 C 
ENDROOT
BRANCH   1   2
ATOM      2  C   UNL     1       6.322   3.770   0.933  1.00  0.00     0.130 C 
ATOM      3  C   UNL     1       7.252   4.774   0.350  1.00  0.00     0.087 C 
ATOM      4  O   UNL     1       6.239   3.720   2.149  1.00  0.00    -0.300 OA
ENDBRANCH   1   2
BRANCH   1   5
ATOM      5  C   UNL     1       5.214   1.555   0.788  1.00  0.00     0.043 C 
BRANCH   5   6
ATOM      6  C   UNL     1       6.050   0.448   0.291  1.00  0.00    -0.044 A 
ATOM      7  C   UNL     1       6.440  -0.608   1.124  1.00  0.00     0.008 A 
ATOM      8  C   UNL     1       6.462   0.440  -1.022  1.00  0.00     0.054 A 
ATOM      9  C   UNL     1       7.225  -1.620   0.602  1.00  0.00     0.051 A 
ATOM     10  C   UNL     1       7.254  -0.586  -1.545  1.00  0.00     0.166 A 
ATOM     11  C   UNL     1       7.640  -1.624  -0.726  1.00  0.00     0.165 A 
ATOM     12  O   UNL     1       7.786  -0.818  -2.796  1.00  0.00    -0.454 OA
ATOM     13  O   UNL     1       8.406  -2.482  -1.500  1.00  0.00    -0.454 OA
ATOM     14  C   UNL     1       8.449  -2.056  -2.841  1.00  0.00     0.468 C 
ENDBRANCH   5   6
ENDBRANCH   1   5
TORSDOF 3
ENDMDL
MODEL 2
REMARK VINA RESULT:      -7.8      1.887      2.625
REMARK SMILES CC(=O)CCc1ccc2c(c1)OCO2
REMARK SMILES IDX 4 1 2 2 1 3 3 4 5 5 6 6 7 7 11 8 8 9 10 10 9 11 12 12 14 13
REMARK SMILES IDX 13 14
REMARK H PARENT
REMARK Flexibility Score: inf
ROOT
ATOM      1  C   UNL     1       5.507   1.906   1.266  1.00  0.00     0.080 C 
ENDROOT
BRANCH   1   2
ATOM      2  C   UNL     1       5.059   0.688   1.997  1.00  0.00     0.130 C 
ATOM      3  C   UNL     1       5.940  -0.502   2.145  1.00  0.00     0.087 C 
ATOM      4  O   UNL     1       3.948   0.631   2.499  1.00  0.00    -0.300 OA
ENDBRANCH   1   2
BRANCH   1   5
ATOM      5  C   UNL     1       5.387   1.723  -0.234  1.00  0.00     0.043 C 
BRANCH   5   6
ATOM      6  C   UNL     1       6.557   1.023  -0.794  1.00  0.00    -0.044 A 
ATOM      7  C   UNL     1       7.863   1.459  -0.541  1.00  0.00     0.008 A 
ATOM      8  C   UNL     1       6.372  -0.088  -1.586  1.00  0.00     0.054 A 
ATOM      9  C   UNL     1       8.921   0.761  -1.093  1.00  0.00     0.051 A 
ATOM     10  C   UNL     1       7.446  -0.790  -2.141  1.00  0.00     0.166 A 
ATOM     11  C   UNL     1       8.731  -0.361  -1.893  1.00  0.00     0.165 A 
ATOM     12  O   UNL     1       7.523  -1.904  -2.949  1.00  0.00    -0.454 OA
ATOM     13  O   UNL     1       9.580  -1.232  -2.560  1.00  0.00    -0.454 OA
ATOM     14  C   UNL     1       8.860  -2.278  -3.167  1.00  0.00     0.468 C 
ENDBRANCH   5   6
ENDBRANCH   1   5
TORSDOF 3
ENDMDL
MODEL 3
REMARK VINA RESULT:      -7.6      1.948      2.974
REMARK SMILES CC(=O)CCc1ccc2c(c1)OCO2
REMARK SMILES IDX 4 1 2 2 1 3 3 4 5 5 6 6 7 7 11 8 8 9 10 10 9 11 12 12 14 13
REMARK SMILES IDX 13 14
REMARK H PARENT
REMARK Flexibility Score: inf
ROOT
ATOM      1  C   UNL     1       5.794   1.365  -0.410  1.00  0.00     0.080 C 
ENDROOT
BRANCH   1   2
ATOM      2  C   UNL     1       5.122   1.348   0.920  1.00  0.00     0.130 C 
ATOM      3  C   UNL     1       5.332   0.237   1.886  1.00  0.00     0.087 C 
ATOM      4  O   UNL     1       4.375   2.252   1.256  1.00  0.00    -0.300 OA
ENDBRANCH   1   2
BRANCH   1   5
ATOM      5  C   UNL     1       7.277   1.081  -0.281  1.00  0.00     0.043 C 
BRANCH   5   6
ATOM      6  C   UNL     1       7.640  -0.214  -0.883  1.00  0.00    -0.044 A 
ATOM      7  C   UNL     1       7.702  -0.387  -2.270  1.00  0.00     0.008 A 
ATOM      8  C   UNL     1       7.929  -1.287  -0.070  1.00  0.00     0.054 A 
ATOM      9  C   UNL     1       8.049  -1.625  -2.778  1.00  0.00     0.051 A 
ATOM     10  C   UNL     1       8.279  -2.537  -0.588  1.00  0.00     0.166 A 
ATOM     11  C   UNL     1       8.340  -2.708  -1.953  1.00  0.00     0.165 A 
ATOM     12  O   UNL     1       8.606  -3.740   0.001  1.00  0.00    -0.454 OA
ATOM     13  O   UNL     1       8.707  -4.026  -2.177  1.00  0.00    -0.454 OA
ATOM     14  C   UNL     1       8.974  -4.691  -0.966  1.00  0.00     0.468 C 
ENDBRANCH   5   6
ENDBRANCH   1   5
TORSDOF 3
ENDMDL
