@<TRIPOS>MOLECULE
/home/cewinharhar/GITHUB/reincatalyze/data/processed/docking_pred/2023-May-22-1531_sub9_nm5_bs15_s42_ex16_mel10_mts1000_k50_ec02_g099_lra9e-4_lrc1e-3/3e742204aaadd08b2af2eabe2bac092cf241077d_ligand_9.pdbqt
 14 15 0 0 0
SMALL
GASTEIGER

@<TRIPOS>ATOM
      1  C          5.7940    1.3650   -0.4100 C.3     1  UNL1        0.0800
      2  C          5.1220    1.3480    0.9200 C.2     1  UNL1        0.1300
      3  C          5.3320    0.2370    1.8860 C.3     1  UNL1        0.0870
      4  O          4.3750    2.2520    1.2560 O.2     1  UNL1       -0.3000
      5  C          7.2770    1.0810   -0.2810 C.3     1  UNL1        0.0430
      6  C          7.6400   -0.2140   -0.8830 C.2     1  UNL1       -0.0440
      7  C          7.7020   -0.3870   -2.2700 C.2     1  UNL1        0.0080
      8  C          7.9290   -1.2870   -0.0700 C.2     1  UNL1        0.0540
      9  C          8.0490   -1.6250   -2.7780 C.2     1  UNL1        0.0510
     10  C          8.2790   -2.5370   -0.5880 C.2     1  UNL1        0.1660
     11  C          8.3400   -2.7080   -1.9530 C.2     1  UNL1        0.1650
     12  O          8.6060   -3.7400    0.0010 O.2     1  UNL1       -0.4540
     13  O          8.7070   -4.0260   -2.1770 O.2     1  UNL1       -0.4540
     14  C          8.9740   -4.6910   -0.9660 C.3     1  UNL1        0.4680
@<TRIPOS>BOND
     1     9     7    1
     2     9    11    2
     3     7     6    2
     4    13    11    1
     5    13    14    1
     6    11    10    1
     7    14    12    1
     8     6     5    1
     9     6     8    1
    10    10     8    2
    11    10    12    1
    12     1     5    1
    13     1     2    1
    14     2     4    2
    15     2     3    1
