MODEL 1
REMARK VINA RESULT:      -7.8      0.000      0.000
REMARK SMILES CC(=O)CCc1ccc2c(c1)OCO2
REMARK SMILES IDX 4 1 2 2 1 3 3 4 5 5 6 6 7 7 11 8 8 9 10 10 9 11 12 12 14 13
REMARK SMILES IDX 13 14
REMARK H PARENT
REMARK Flexibility Score: inf
ROOT
ATOM      1  C   UNL     1       5.373   2.980   0.170  1.00  0.00     0.080 C 
ENDROOT
BRANCH   1   2
ATOM      2  C   UNL     1       6.268   3.850   0.982  1.00  0.00     0.130 C 
ATOM      3  C   UNL     1       7.245   4.775   0.347  1.00  0.00     0.087 C 
ATOM      4  O   UNL     1       6.226   3.828   2.202  1.00  0.00    -0.300 OA
ENDBRANCH   1   2
BRANCH   1   5
ATOM      5  C   UNL     1       5.130   1.649   0.854  1.00  0.00     0.043 C 
BRANCH   5   6
ATOM      6  C   UNL     1       5.960   0.578   0.275  1.00  0.00    -0.044 A 
ATOM      7  C   UNL     1       6.311   0.574  -1.080  1.00  0.00     0.008 A 
ATOM      8  C   UNL     1       6.409  -0.446   1.077  1.00  0.00     0.054 A 
ATOM      9  C   UNL     1       7.093  -0.457  -1.567  1.00  0.00     0.051 A 
ATOM     10  C   UNL     1       7.200  -1.486   0.580  1.00  0.00     0.166 A 
ATOM     11  C   UNL     1       7.545  -1.492  -0.753  1.00  0.00     0.165 A 
ATOM     12  O   UNL     1       7.762  -2.602   1.164  1.00  0.00    -0.454 OA
ATOM     13  O   UNL     1       8.320  -2.622  -0.962  1.00  0.00    -0.454 OA
ATOM     14  C   UNL     1       8.558  -3.305   0.245  1.00  0.00     0.468 C 
ENDBRANCH   5   6
ENDBRANCH   1   5
TORSDOF 3
ENDMDL
MODEL 2
REMARK VINA RESULT:      -7.8      0.938      1.930
REMARK SMILES CC(=O)CCc1ccc2c(c1)OCO2
REMARK SMILES IDX 4 1 2 2 1 3 3 4 5 5 6 6 7 7 11 8 8 9 10 10 9 11 12 12 14 13
REMARK SMILES IDX 13 14
REMARK H PARENT
REMARK Flexibility Score: inf
ROOT
ATOM      1  C   UNL     1       5.475   2.872   0.248  1.00  0.00     0.080 C 
ENDROOT
BRANCH   1   2
ATOM      2  C   UNL     1       6.277   3.876   1.002  1.00  0.00     0.130 C 
ATOM      3  C   UNL     1       7.246   4.774   0.318  1.00  0.00     0.087 C 
ATOM      4  O   UNL     1       6.161   3.989   2.211  1.00  0.00    -0.300 OA
ENDBRANCH   1   2
BRANCH   1   5
ATOM      5  C   UNL     1       5.289   1.600   1.051  1.00  0.00     0.043 C 
BRANCH   5   6
ATOM      6  C   UNL     1       6.091   0.489   0.509  1.00  0.00    -0.044 A 
ATOM      7  C   UNL     1       6.497  -0.582   1.313  1.00  0.00     0.008 A 
ATOM      8  C   UNL     1       6.452   0.493  -0.819  1.00  0.00     0.054 A 
ATOM      9  C   UNL     1       7.248  -1.597   0.749  1.00  0.00     0.051 A 
ATOM     10  C   UNL     1       7.211  -0.536  -1.385  1.00  0.00     0.166 A 
ATOM     11  C   UNL     1       7.612  -1.590  -0.594  1.00  0.00     0.165 A 
ATOM     12  O   UNL     1       7.691  -0.759  -2.657  1.00  0.00    -0.454 OA
ATOM     13  O   UNL     1       8.337  -2.447  -1.406  1.00  0.00    -0.454 OA
ATOM     14  C   UNL     1       8.335  -2.004  -2.742  1.00  0.00     0.468 C 
ENDBRANCH   5   6
ENDBRANCH   1   5
TORSDOF 3
ENDMDL
MODEL 3
REMARK VINA RESULT:      -7.6      2.398      3.033
REMARK SMILES CC(=O)CCc1ccc2c(c1)OCO2
REMARK SMILES IDX 4 1 2 2 1 3 3 4 5 5 6 6 7 7 11 8 8 9 10 10 9 11 12 12 14 13
REMARK SMILES IDX 13 14
REMARK H PARENT
REMARK Flexibility Score: inf
ROOT
ATOM      1  C   UNL     1       5.524   1.944   1.252  1.00  0.00     0.080 C 
ENDROOT
BRANCH   1   2
ATOM      2  C   UNL     1       5.108   0.726   2.001  1.00  0.00     0.130 C 
ATOM      3  C   UNL     1       6.027  -0.428   2.189  1.00  0.00     0.087 C 
ATOM      4  O   UNL     1       3.990   0.639   2.484  1.00  0.00    -0.300 OA
ENDBRANCH   1   2
BRANCH   1   5
ATOM      5  C   UNL     1       5.397   1.741  -0.245  1.00  0.00     0.043 C 
BRANCH   5   6
ATOM      6  C   UNL     1       6.564   1.032  -0.801  1.00  0.00    -0.044 A 
ATOM      7  C   UNL     1       7.872   1.456  -0.539  1.00  0.00     0.008 A 
ATOM      8  C   UNL     1       6.375  -0.075  -1.596  1.00  0.00     0.054 A 
ATOM      9  C   UNL     1       8.928   0.751  -1.088  1.00  0.00     0.051 A 
ATOM     10  C   UNL     1       7.446  -0.784  -2.148  1.00  0.00     0.166 A 
ATOM     11  C   UNL     1       8.733  -0.367  -1.892  1.00  0.00     0.165 A 
ATOM     12  O   UNL     1       7.518  -1.897  -2.958  1.00  0.00    -0.454 OA
ATOM     13  O   UNL     1       9.577  -1.243  -2.556  1.00  0.00    -0.454 OA
ATOM     14  C   UNL     1       8.852  -2.281  -3.170  1.00  0.00     0.468 C 
ENDBRANCH   5   6
ENDBRANCH   1   5
TORSDOF 3
ENDMDL
