@<TRIPOS>MOLECULE
/home/cewinharhar/GITHUB/reincatalyze/data/processed/docking_pred/2023-May-22-1531_sub9_nm5_bs15_s42_ex16_mel10_mts1000_k50_ec02_g099_lra9e-4_lrc1e-3/41d0b72e0d67d5e9a3b384f9954b5fa92cfe5642_ligand_9.pdbqt
 14 15 0 0 0
SMALL
GASTEIGER

@<TRIPOS>ATOM
      1  C          5.3730    2.9800    0.1700 C.3     1  UNL1        0.0800
      2  C          6.2680    3.8500    0.9820 C.2     1  UNL1        0.1300
      3  C          7.2450    4.7750    0.3470 C.3     1  UNL1        0.0870
      4  O          6.2260    3.8280    2.2020 O.2     1  UNL1       -0.3000
      5  C          5.1300    1.6490    0.8540 C.3     1  UNL1        0.0430
      6  C          5.9600    0.5780    0.2750 C.2     1  UNL1       -0.0440
      7  C          6.3110    0.5740   -1.0800 C.2     1  UNL1        0.0080
      8  C          6.4090   -0.4460    1.0770 C.2     1  UNL1        0.0540
      9  C          7.0930   -0.4570   -1.5670 C.2     1  UNL1        0.0510
     10  C          7.2000   -1.4860    0.5800 C.2     1  UNL1        0.1660
     11  C          7.5450   -1.4920   -0.7530 C.2     1  UNL1        0.1650
     12  O          7.7620   -2.6020    1.1640 O.2     1  UNL1       -0.4540
     13  O          8.3200   -2.6220   -0.9620 O.2     1  UNL1       -0.4540
     14  C          8.5580   -3.3050    0.2450 C.3     1  UNL1        0.4680
@<TRIPOS>BOND
     1     9     7    1
     2     9    11    2
     3     7     6    2
     4    13    11    1
     5    13    14    1
     6    11    10    1
     7     1     5    1
     8     1     2    1
     9    14    12    1
    10     6     5    1
    11     6     8    1
    12     3     2    1
    13    10     8    2
    14    10    12    1
    15     2     4    2
