@<TRIPOS>MOLECULE
/home/cewinharhar/GITHUB/reincatalyze/data/processed/docking_pred/2023-May-22-1531_sub9_nm5_bs15_s42_ex16_mel10_mts1000_k50_ec02_g099_lra9e-4_lrc1e-3/41d0b72e0d67d5e9a3b384f9954b5fa92cfe5642_ligand_9.pdbqt
 14 15 0 0 0
SMALL
GASTEIGER

@<TRIPOS>ATOM
      1  C          5.4750    2.8720    0.2480 C.3     1  UNL1        0.0800
      2  C          6.2770    3.8760    1.0020 C.2     1  UNL1        0.1300
      3  C          7.2460    4.7740    0.3180 C.3     1  UNL1        0.0870
      4  O          6.1610    3.9890    2.2110 O.2     1  UNL1       -0.3000
      5  C          5.2890    1.6000    1.0510 C.3     1  UNL1        0.0430
      6  C          6.0910    0.4890    0.5090 C.2     1  UNL1       -0.0440
      7  C          6.4970   -0.5820    1.3130 C.2     1  UNL1        0.0080
      8  C          6.4520    0.4930   -0.8190 C.2     1  UNL1        0.0540
      9  C          7.2480   -1.5970    0.7490 C.2     1  UNL1        0.0510
     10  C          7.2110   -0.5360   -1.3850 C.2     1  UNL1        0.1660
     11  C          7.6120   -1.5900   -0.5940 C.2     1  UNL1        0.1650
     12  O          7.6910   -0.7590   -2.6570 O.2     1  UNL1       -0.4540
     13  O          8.3370   -2.4470   -1.4060 O.2     1  UNL1       -0.4540
     14  C          8.3350   -2.0040   -2.7420 C.3     1  UNL1        0.4680
@<TRIPOS>BOND
     1    14    12    1
     2    14    13    1
     3    12    10    1
     4    13    11    1
     5    10     8    1
     6    10    11    2
     7     8     6    2
     8    11     9    1
     9     1     2    1
    10     1     5    1
    11     3     2    1
    12     6     5    1
    13     6     7    1
    14     9     7    2
    15     2     4    2
