@<TRIPOS>MOLECULE
/home/cewinharhar/GITHUB/reincatalyze/data/processed/docking_pred/2023-May-22-1531_sub9_nm5_bs15_s42_ex16_mel10_mts1000_k50_ec02_g099_lra9e-4_lrc1e-3/41d0b72e0d67d5e9a3b384f9954b5fa92cfe5642_ligand_9.pdbqt
 14 15 0 0 0
SMALL
GASTEIGER

@<TRIPOS>ATOM
      1  C          5.5240    1.9440    1.2520 C.3     1  UNL1        0.0800
      2  C          5.1080    0.7260    2.0010 C.2     1  UNL1        0.1300
      3  C          6.0270   -0.4280    2.1890 C.3     1  UNL1        0.0870
      4  O          3.9900    0.6390    2.4840 O.2     1  UNL1       -0.3000
      5  C          5.3970    1.7410   -0.2450 C.3     1  UNL1        0.0430
      6  C          6.5640    1.0320   -0.8010 C.2     1  UNL1       -0.0440
      7  C          7.8720    1.4560   -0.5390 C.2     1  UNL1        0.0080
      8  C          6.3750   -0.0750   -1.5960 C.2     1  UNL1        0.0540
      9  C          8.9280    0.7510   -1.0880 C.2     1  UNL1        0.0510
     10  C          7.4460   -0.7840   -2.1480 C.2     1  UNL1        0.1660
     11  C          8.7330   -0.3670   -1.8920 C.2     1  UNL1        0.1650
     12  O          7.5180   -1.8970   -2.9580 O.2     1  UNL1       -0.4540
     13  O          9.5770   -1.2430   -2.5560 O.2     1  UNL1       -0.4540
     14  C          8.8520   -2.2810   -3.1700 C.3     1  UNL1        0.4680
@<TRIPOS>BOND
     1    14    12    1
     2    14    13    1
     3    12    10    1
     4    13    11    1
     5    10    11    2
     6    10     8    1
     7    11     9    1
     8     8     6    2
     9     9     7    2
    10     6     7    1
    11     6     5    1
    12     5     1    1
    13     1     2    1
    14     2     3    1
    15     2     4    2
