@<TRIPOS>MOLECULE
/home/cewinharhar/GITHUB/reincatalyze/data/processed/docking_pred/2023-May-22-1531_sub9_nm5_bs15_s42_ex16_mel10_mts1000_k50_ec02_g099_lra9e-4_lrc1e-3/44bf36be1ccee3462d679cf400989bbed31f99fd_ligand_9.pdbqt
 14 15 0 0 0
SMALL
GASTEIGER

@<TRIPOS>ATOM
      1  C          5.7440    1.3340   -0.3260 C.3     1  UNL1        0.0800
      2  C          5.1620    1.3080    1.0450 C.2     1  UNL1        0.1300
      3  C          5.3630    0.1510    1.9580 C.3     1  UNL1        0.0870
      4  O          4.4980    2.2440    1.4610 O.2     1  UNL1       -0.3000
      5  C          7.2420    1.1080   -0.2920 C.3     1  UNL1        0.0430
      6  C          7.6140   -0.1870   -0.8900 C.2     1  UNL1       -0.0440
      7  C          7.6880   -0.3600   -2.2770 C.2     1  UNL1        0.0080
      8  C          7.8990   -1.2580   -0.0740 C.2     1  UNL1        0.0540
      9  C          8.0420   -1.5980   -2.7810 C.2     1  UNL1        0.0510
     10  C          8.2580   -2.5080   -0.5890 C.2     1  UNL1        0.1660
     11  C          8.3300   -2.6790   -1.9530 C.2     1  UNL1        0.1650
     12  O          8.5830   -3.7100    0.0040 O.2     1  UNL1       -0.4540
     13  O          8.7020   -3.9960   -2.1730 O.2     1  UNL1       -0.4540
     14  C          8.9610   -4.6600   -0.9590 C.3     1  UNL1        0.4680
@<TRIPOS>BOND
     1     9     7    1
     2     9    11    2
     3     7     6    2
     4    13    11    1
     5    13    14    1
     6    11    10    1
     7    14    12    1
     8     6     5    1
     9     6     8    1
    10    10     8    2
    11    10    12    1
    12     1     5    1
    13     1     2    1
    14     2     4    2
    15     2     3    1
