MODEL 1
REMARK VINA RESULT:      -7.8      0.000      0.000
REMARK SMILES CC(=O)CCc1ccc2c(c1)OCO2
REMARK SMILES IDX 4 1 2 2 1 3 3 4 5 5 6 6 7 7 11 8 8 9 10 10 9 11 12 12 14 13
REMARK SMILES IDX 13 14
REMARK H PARENT
REMARK Flexibility Score: inf
ROOT
ATOM      1  C   UNL     1       5.488   2.861   0.254  1.00  0.00     0.080 C 
ENDROOT
BRANCH   1   2
ATOM      2  C   UNL     1       6.304   3.849   1.013  1.00  0.00     0.130 C 
ATOM      3  C   UNL     1       7.245   4.775   0.329  1.00  0.00     0.087 C 
ATOM      4  O   UNL     1       6.223   3.926   2.229  1.00  0.00    -0.300 OA
ENDBRANCH   1   2
BRANCH   1   5
ATOM      5  C   UNL     1       5.311   1.575   1.036  1.00  0.00     0.043 C 
BRANCH   5   6
ATOM      6  C   UNL     1       6.110   0.475   0.468  1.00  0.00    -0.044 A 
ATOM      7  C   UNL     1       6.503  -0.622   1.242  1.00  0.00     0.008 A 
ATOM      8  C   UNL     1       6.482   0.517  -0.857  1.00  0.00     0.054 A 
ATOM      9  C   UNL     1       7.251  -1.625   0.654  1.00  0.00     0.051 A 
ATOM     10  C   UNL     1       7.239  -0.500  -1.447  1.00  0.00     0.166 A 
ATOM     11  C   UNL     1       7.627  -1.580  -0.685  1.00  0.00     0.165 A 
ATOM     12  O   UNL     1       7.729  -0.688  -2.722  1.00  0.00    -0.454 OA
ATOM     13  O   UNL     1       8.353  -2.418  -1.517  1.00  0.00    -0.454 OA
ATOM     14  C   UNL     1       8.365  -1.935  -2.839  1.00  0.00     0.468 C 
ENDBRANCH   5   6
ENDBRANCH   1   5
TORSDOF 3
ENDMDL
MODEL 2
REMARK VINA RESULT:      -7.7      1.915      2.663
REMARK SMILES CC(=O)CCc1ccc2c(c1)OCO2
REMARK SMILES IDX 4 1 2 2 1 3 3 4 5 5 6 6 7 7 11 8 8 9 10 10 9 11 12 12 14 13
REMARK SMILES IDX 13 14
REMARK H PARENT
REMARK Flexibility Score: inf
ROOT
ATOM      1  C   UNL     1       5.505   1.922   1.259  1.00  0.00     0.080 C 
ENDROOT
BRANCH   1   2
ATOM      2  C   UNL     1       5.058   0.707   1.997  1.00  0.00     0.130 C 
ATOM      3  C   UNL     1       5.938  -0.482   2.149  1.00  0.00     0.087 C 
ATOM      4  O   UNL     1       3.948   0.654   2.502  1.00  0.00    -0.300 OA
ENDBRANCH   1   2
BRANCH   1   5
ATOM      5  C   UNL     1       5.384   1.730  -0.240  1.00  0.00     0.043 C 
BRANCH   5   6
ATOM      6  C   UNL     1       6.554   1.029  -0.797  1.00  0.00    -0.044 A 
ATOM      7  C   UNL     1       7.860   1.463  -0.542  1.00  0.00     0.008 A 
ATOM      8  C   UNL     1       6.370  -0.083  -1.587  1.00  0.00     0.054 A 
ATOM      9  C   UNL     1       8.919   0.764  -1.092  1.00  0.00     0.051 A 
ATOM     10  C   UNL     1       7.444  -0.787  -2.140  1.00  0.00     0.166 A 
ATOM     11  C   UNL     1       8.729  -0.359  -1.891  1.00  0.00     0.165 A 
ATOM     12  O   UNL     1       7.521  -1.903  -2.946  1.00  0.00    -0.454 OA
ATOM     13  O   UNL     1       9.578  -1.232  -2.554  1.00  0.00    -0.454 OA
ATOM     14  C   UNL     1       8.857  -2.278  -3.161  1.00  0.00     0.468 C 
ENDBRANCH   5   6
ENDBRANCH   1   5
TORSDOF 3
ENDMDL
MODEL 3
REMARK VINA RESULT:      -7.5      1.957      3.018
REMARK SMILES CC(=O)CCc1ccc2c(c1)OCO2
REMARK SMILES IDX 4 1 2 2 1 3 3 4 5 5 6 6 7 7 11 8 8 9 10 10 9 11 12 12 14 13
REMARK SMILES IDX 13 14
REMARK H PARENT
REMARK Flexibility Score: inf
ROOT
ATOM      1  C   UNL     1       5.744   1.334  -0.326  1.00  0.00     0.080 C 
ENDROOT
BRANCH   1   2
ATOM      2  C   UNL     1       5.162   1.308   1.045  1.00  0.00     0.130 C 
ATOM      3  C   UNL     1       5.363   0.151   1.958  1.00  0.00     0.087 C 
ATOM      4  O   UNL     1       4.498   2.244   1.461  1.00  0.00    -0.300 OA
ENDBRANCH   1   2
BRANCH   1   5
ATOM      5  C   UNL     1       7.242   1.108  -0.292  1.00  0.00     0.043 C 
BRANCH   5   6
ATOM      6  C   UNL     1       7.614  -0.187  -0.890  1.00  0.00    -0.044 A 
ATOM      7  C   UNL     1       7.688  -0.360  -2.277  1.00  0.00     0.008 A 
ATOM      8  C   UNL     1       7.899  -1.258  -0.074  1.00  0.00     0.054 A 
ATOM      9  C   UNL     1       8.042  -1.598  -2.781  1.00  0.00     0.051 A 
ATOM     10  C   UNL     1       8.258  -2.508  -0.589  1.00  0.00     0.166 A 
ATOM     11  C   UNL     1       8.330  -2.679  -1.953  1.00  0.00     0.165 A 
ATOM     12  O   UNL     1       8.583  -3.710   0.004  1.00  0.00    -0.454 OA
ATOM     13  O   UNL     1       8.702  -3.996  -2.173  1.00  0.00    -0.454 OA
ATOM     14  C   UNL     1       8.961  -4.660  -0.959  1.00  0.00     0.468 C 
ENDBRANCH   5   6
ENDBRANCH   1   5
TORSDOF 3
ENDMDL
