@<TRIPOS>MOLECULE
/home/cewinharhar/GITHUB/reincatalyze/data/processed/docking_pred/2023-May-22-1531_sub9_nm5_bs15_s42_ex16_mel10_mts1000_k50_ec02_g099_lra9e-4_lrc1e-3/44bf36be1ccee3462d679cf400989bbed31f99fd_ligand_9.pdbqt
 14 15 0 0 0
SMALL
GASTEIGER

@<TRIPOS>ATOM
      1  C          5.5050    1.9220    1.2590 C.3     1  UNL1        0.0800
      2  C          5.0580    0.7070    1.9970 C.2     1  UNL1        0.1300
      3  C          5.9380   -0.4820    2.1490 C.3     1  UNL1        0.0870
      4  O          3.9480    0.6540    2.5020 O.2     1  UNL1       -0.3000
      5  C          5.3840    1.7300   -0.2400 C.3     1  UNL1        0.0430
      6  C          6.5540    1.0290   -0.7970 C.2     1  UNL1       -0.0440
      7  C          7.8600    1.4630   -0.5420 C.2     1  UNL1        0.0080
      8  C          6.3700   -0.0830   -1.5870 C.2     1  UNL1        0.0540
      9  C          8.9190    0.7640   -1.0920 C.2     1  UNL1        0.0510
     10  C          7.4440   -0.7870   -2.1400 C.2     1  UNL1        0.1660
     11  C          8.7290   -0.3590   -1.8910 C.2     1  UNL1        0.1650
     12  O          7.5210   -1.9030   -2.9460 O.2     1  UNL1       -0.4540
     13  O          9.5780   -1.2320   -2.5540 O.2     1  UNL1       -0.4540
     14  C          8.8570   -2.2780   -3.1610 C.3     1  UNL1        0.4680
@<TRIPOS>BOND
     1    14    12    1
     2    14    13    1
     3    12    10    1
     4    13    11    1
     5    10    11    2
     6    10     8    1
     7    11     9    1
     8     8     6    2
     9     9     7    2
    10     6     7    1
    11     6     5    1
    12     5     1    1
    13     1     2    1
    14     2     3    1
    15     2     4    2
