@<TRIPOS>MOLECULE
/home/cewinharhar/GITHUB/reincatalyze/data/processed/docking_pred/2023-May-22-1531_sub9_nm5_bs15_s42_ex16_mel10_mts1000_k50_ec02_g099_lra9e-4_lrc1e-3/44bf36be1ccee3462d679cf400989bbed31f99fd_ligand_9.pdbqt
 14 15 0 0 0
SMALL
GASTEIGER

@<TRIPOS>ATOM
      1  C          5.4880    2.8610    0.2540 C.3     1  UNL1        0.0800
      2  C          6.3040    3.8490    1.0130 C.2     1  UNL1        0.1300
      3  C          7.2450    4.7750    0.3290 C.3     1  UNL1        0.0870
      4  O          6.2230    3.9260    2.2290 O.2     1  UNL1       -0.3000
      5  C          5.3110    1.5750    1.0360 C.3     1  UNL1        0.0430
      6  C          6.1100    0.4750    0.4680 C.2     1  UNL1       -0.0440
      7  C          6.5030   -0.6220    1.2420 C.2     1  UNL1        0.0080
      8  C          6.4820    0.5170   -0.8570 C.2     1  UNL1        0.0540
      9  C          7.2510   -1.6250    0.6540 C.2     1  UNL1        0.0510
     10  C          7.2390   -0.5000   -1.4470 C.2     1  UNL1        0.1660
     11  C          7.6270   -1.5800   -0.6850 C.2     1  UNL1        0.1650
     12  O          7.7290   -0.6880   -2.7220 O.2     1  UNL1       -0.4540
     13  O          8.3530   -2.4180   -1.5170 O.2     1  UNL1       -0.4540
     14  C          8.3650   -1.9350   -2.8390 C.3     1  UNL1        0.4680
@<TRIPOS>BOND
     1    14    12    1
     2    14    13    1
     3    12    10    1
     4    13    11    1
     5    10     8    1
     6    10    11    2
     7     8     6    2
     8    11     9    1
     9     1     2    1
    10     1     5    1
    11     3     2    1
    12     6     5    1
    13     6     7    1
    14     9     7    2
    15     2     4    2
