@<TRIPOS>MOLECULE
/home/cewinharhar/GITHUB/reincatalyze/data/processed/docking_pred/2023-May-22-1531_sub9_nm5_bs15_s42_ex16_mel10_mts1000_k50_ec02_g099_lra9e-4_lrc1e-3/46861e00ed193d15618049a480e2ca269f83ce14_ligand_9.pdbqt
 14 15 0 0 0
SMALL
GASTEIGER

@<TRIPOS>ATOM
      1  C          5.3510    3.0130    0.2290 C.3     1  UNL1        0.0800
      2  C          6.3640    3.7270    1.0550 C.2     1  UNL1        0.1300
      3  C          7.2490    4.7720    0.4730 C.3     1  UNL1        0.0870
      4  O          6.4980    3.4730    2.2410 O.2     1  UNL1       -0.3000
      5  C          5.0260    1.6520    0.8120 C.3     1  UNL1        0.0430
      6  C          5.9030    0.6010    0.2660 C.2     1  UNL1       -0.0440
      7  C          6.3450    0.6310   -1.0620 C.2     1  UNL1        0.0080
      8  C          6.3060   -0.4390    1.0730 C.2     1  UNL1        0.0540
      9  C          7.1680   -0.3830   -1.5180 C.2     1  UNL1        0.0510
     10  C          7.1390   -1.4610    0.6070 C.2     1  UNL1        0.1660
     11  C          7.5720   -1.4330   -0.7000 C.2     1  UNL1        0.1650
     12  O          7.6690   -2.5860    1.2020 O.2     1  UNL1       -0.4540
     13  O          8.3700   -2.5520   -0.8810 O.2     1  UNL1       -0.4540
     14  C          8.5320   -3.2610    0.3240 C.3     1  UNL1        0.4680
@<TRIPOS>BOND
     1     9     7    1
     2     9    11    2
     3     7     6    2
     4    13    11    1
     5    13    14    1
     6    11    10    1
     7     1     5    1
     8     1     2    1
     9     6     5    1
    10     6     8    1
    11    14    12    1
    12     3     2    1
    13    10     8    2
    14    10    12    1
    15     2     4    2
