MODEL 1
REMARK VINA RESULT:      -7.8      0.000      0.000
REMARK SMILES CC(=O)CCc1ccc2c(c1)OCO2
REMARK SMILES IDX 4 1 2 2 1 3 3 4 5 5 6 6 7 7 11 8 8 9 10 10 9 11 12 12 14 13
REMARK SMILES IDX 13 14
REMARK H PARENT
REMARK Flexibility Score: inf
ROOT
ATOM      1  C   UNL     1       5.351   3.013   0.229  1.00  0.00     0.080 C 
ENDROOT
BRANCH   1   2
ATOM      2  C   UNL     1       6.364   3.727   1.055  1.00  0.00     0.130 C 
ATOM      3  C   UNL     1       7.249   4.772   0.473  1.00  0.00     0.087 C 
ATOM      4  O   UNL     1       6.498   3.473   2.241  1.00  0.00    -0.300 OA
ENDBRANCH   1   2
BRANCH   1   5
ATOM      5  C   UNL     1       5.026   1.652   0.812  1.00  0.00     0.043 C 
BRANCH   5   6
ATOM      6  C   UNL     1       5.903   0.601   0.266  1.00  0.00    -0.044 A 
ATOM      7  C   UNL     1       6.345   0.631  -1.062  1.00  0.00     0.008 A 
ATOM      8  C   UNL     1       6.306  -0.439   1.073  1.00  0.00     0.054 A 
ATOM      9  C   UNL     1       7.168  -0.383  -1.518  1.00  0.00     0.051 A 
ATOM     10  C   UNL     1       7.139  -1.461   0.607  1.00  0.00     0.166 A 
ATOM     11  C   UNL     1       7.572  -1.433  -0.700  1.00  0.00     0.165 A 
ATOM     12  O   UNL     1       7.669  -2.586   1.202  1.00  0.00    -0.454 OA
ATOM     13  O   UNL     1       8.370  -2.552  -0.881  1.00  0.00    -0.454 OA
ATOM     14  C   UNL     1       8.532  -3.261   0.324  1.00  0.00     0.468 C 
ENDBRANCH   5   6
ENDBRANCH   1   5
TORSDOF 3
ENDMDL
MODEL 2
REMARK VINA RESULT:      -7.7      2.394      3.015
REMARK SMILES CC(=O)CCc1ccc2c(c1)OCO2
REMARK SMILES IDX 4 1 2 2 1 3 3 4 5 5 6 6 7 7 11 8 8 9 10 10 9 11 12 12 14 13
REMARK SMILES IDX 13 14
REMARK H PARENT
REMARK Flexibility Score: inf
ROOT
ATOM      1  C   UNL     1       5.511   1.927   1.255  1.00  0.00     0.080 C 
ENDROOT
BRANCH   1   2
ATOM      2  C   UNL     1       5.079   0.711   1.999  1.00  0.00     0.130 C 
ATOM      3  C   UNL     1       5.977  -0.463   2.167  1.00  0.00     0.087 C 
ATOM      4  O   UNL     1       3.966   0.642   2.494  1.00  0.00    -0.300 OA
ENDBRANCH   1   2
BRANCH   1   5
ATOM      5  C   UNL     1       5.388   1.729  -0.243  1.00  0.00     0.043 C 
BRANCH   5   6
ATOM      6  C   UNL     1       6.557   1.025  -0.799  1.00  0.00    -0.044 A 
ATOM      7  C   UNL     1       7.864   1.455  -0.540  1.00  0.00     0.008 A 
ATOM      8  C   UNL     1       6.372  -0.085  -1.592  1.00  0.00     0.054 A 
ATOM      9  C   UNL     1       8.922   0.754  -1.089  1.00  0.00     0.051 A 
ATOM     10  C   UNL     1       7.445  -0.790  -2.143  1.00  0.00     0.166 A 
ATOM     11  C   UNL     1       8.731  -0.367  -1.890  1.00  0.00     0.165 A 
ATOM     12  O   UNL     1       7.521  -1.905  -2.951  1.00  0.00    -0.454 OA
ATOM     13  O   UNL     1       9.578  -1.240  -2.553  1.00  0.00    -0.454 OA
ATOM     14  C   UNL     1       8.857  -2.284  -3.164  1.00  0.00     0.468 C 
ENDBRANCH   5   6
ENDBRANCH   1   5
TORSDOF 3
ENDMDL
MODEL 3
REMARK VINA RESULT:      -7.5      1.805      2.476
REMARK SMILES CC(=O)CCc1ccc2c(c1)OCO2
REMARK SMILES IDX 4 1 2 2 1 3 3 4 5 5 6 6 7 7 11 8 8 9 10 10 9 11 12 12 14 13
REMARK SMILES IDX 13 14
REMARK H PARENT
REMARK Flexibility Score: inf
ROOT
ATOM      1  C   UNL     1       5.760   1.397  -0.314  1.00  0.00     0.080 C 
ENDROOT
BRANCH   1   2
ATOM      2  C   UNL     1       5.119   1.298   1.027  1.00  0.00     0.130 C 
ATOM      3  C   UNL     1       5.397   0.160   1.943  1.00  0.00     0.087 C 
ATOM      4  O   UNL     1       4.340   2.155   1.415  1.00  0.00    -0.300 OA
ENDBRANCH   1   2
BRANCH   1   5
ATOM      5  C   UNL     1       7.246   1.112  -0.235  1.00  0.00     0.043 C 
BRANCH   5   6
ATOM      6  C   UNL     1       7.587  -0.185  -0.846  1.00  0.00    -0.044 A 
ATOM      7  C   UNL     1       7.586  -0.365  -2.234  1.00  0.00     0.008 A 
ATOM      8  C   UNL     1       7.918  -1.252  -0.041  1.00  0.00     0.054 A 
ATOM      9  C   UNL     1       7.915  -1.606  -2.749  1.00  0.00     0.051 A 
ATOM     10  C   UNL     1       8.250  -2.504  -0.567  1.00  0.00     0.166 A 
ATOM     11  C   UNL     1       8.248  -2.682  -1.933  1.00  0.00     0.165 A 
ATOM     12  O   UNL     1       8.608  -3.702   0.013  1.00  0.00    -0.454 OA
ATOM     13  O   UNL     1       8.611  -3.999  -2.165  1.00  0.00    -0.454 OA
ATOM     14  C   UNL     1       8.936  -4.657  -0.964  1.00  0.00     0.468 C 
ENDBRANCH   5   6
ENDBRANCH   1   5
TORSDOF 3
ENDMDL
