@<TRIPOS>MOLECULE
/home/cewinharhar/GITHUB/reincatalyze/data/processed/docking_pred/2023-May-22-1531_sub9_nm5_bs15_s42_ex16_mel10_mts1000_k50_ec02_g099_lra9e-4_lrc1e-3/46861e00ed193d15618049a480e2ca269f83ce14_ligand_9.pdbqt
 14 15 0 0 0
SMALL
GASTEIGER

@<TRIPOS>ATOM
      1  C          5.5110    1.9270    1.2550 C.3     1  UNL1        0.0800
      2  C          5.0790    0.7110    1.9990 C.2     1  UNL1        0.1300
      3  C          5.9770   -0.4630    2.1670 C.3     1  UNL1        0.0870
      4  O          3.9660    0.6420    2.4940 O.2     1  UNL1       -0.3000
      5  C          5.3880    1.7290   -0.2430 C.3     1  UNL1        0.0430
      6  C          6.5570    1.0250   -0.7990 C.2     1  UNL1       -0.0440
      7  C          7.8640    1.4550   -0.5400 C.2     1  UNL1        0.0080
      8  C          6.3720   -0.0850   -1.5920 C.2     1  UNL1        0.0540
      9  C          8.9220    0.7540   -1.0890 C.2     1  UNL1        0.0510
     10  C          7.4450   -0.7900   -2.1430 C.2     1  UNL1        0.1660
     11  C          8.7310   -0.3670   -1.8900 C.2     1  UNL1        0.1650
     12  O          7.5210   -1.9050   -2.9510 O.2     1  UNL1       -0.4540
     13  O          9.5780   -1.2400   -2.5530 O.2     1  UNL1       -0.4540
     14  C          8.8570   -2.2840   -3.1640 C.3     1  UNL1        0.4680
@<TRIPOS>BOND
     1    14    12    1
     2    14    13    1
     3    12    10    1
     4    13    11    1
     5    10    11    2
     6    10     8    1
     7    11     9    1
     8     8     6    2
     9     9     7    2
    10     6     7    1
    11     6     5    1
    12     5     1    1
    13     1     2    1
    14     2     3    1
    15     2     4    2
