@<TRIPOS>MOLECULE
/home/cewinharhar/GITHUB/reincatalyze/data/processed/docking_pred/2023-May-22-1531_sub9_nm5_bs15_s42_ex16_mel10_mts1000_k50_ec02_g099_lra9e-4_lrc1e-3/46861e00ed193d15618049a480e2ca269f83ce14_ligand_9.pdbqt
 14 15 0 0 0
SMALL
GASTEIGER

@<TRIPOS>ATOM
      1  C          5.7600    1.3970   -0.3140 C.3     1  UNL1        0.0800
      2  C          5.1190    1.2980    1.0270 C.2     1  UNL1        0.1300
      3  C          5.3970    0.1600    1.9430 C.3     1  UNL1        0.0870
      4  O          4.3400    2.1550    1.4150 O.2     1  UNL1       -0.3000
      5  C          7.2460    1.1120   -0.2350 C.3     1  UNL1        0.0430
      6  C          7.5870   -0.1850   -0.8460 C.2     1  UNL1       -0.0440
      7  C          7.5860   -0.3650   -2.2340 C.2     1  UNL1        0.0080
      8  C          7.9180   -1.2520   -0.0410 C.2     1  UNL1        0.0540
      9  C          7.9150   -1.6060   -2.7490 C.2     1  UNL1        0.0510
     10  C          8.2500   -2.5040   -0.5670 C.2     1  UNL1        0.1660
     11  C          8.2480   -2.6820   -1.9330 C.2     1  UNL1        0.1650
     12  O          8.6080   -3.7020    0.0130 O.2     1  UNL1       -0.4540
     13  O          8.6110   -3.9990   -2.1650 O.2     1  UNL1       -0.4540
     14  C          8.9360   -4.6570   -0.9640 C.3     1  UNL1        0.4680
@<TRIPOS>BOND
     1     9     7    1
     2     9    11    2
     3     7     6    2
     4    13    11    1
     5    13    14    1
     6    11    10    1
     7    14    12    1
     8     6     5    1
     9     6     8    1
    10    10     8    2
    11    10    12    1
    12     1     5    1
    13     1     2    1
    14     2     4    2
    15     2     3    1
