@<TRIPOS>MOLECULE
/home/cewinharhar/GITHUB/reincatalyze/data/processed/docking_pred/2023-May-22-1531_sub9_nm5_bs15_s42_ex16_mel10_mts1000_k50_ec02_g099_lra9e-4_lrc1e-3/46aa5159a95d0d08c04f597503a56ad94e9ef6ed_ligand_9.pdbqt
 14 15 0 0 0
SMALL
GASTEIGER

@<TRIPOS>ATOM
      1  C          5.6080    1.3040   -0.5250 C.3     1  UNL1        0.0800
      2  C          5.3680    2.2790    0.5760 C.2     1  UNL1        0.1300
      3  C          6.1540    3.5370    0.6890 C.3     1  UNL1        0.0870
      4  O          4.5140    2.0700    1.4220 O.2     1  UNL1       -0.3000
      5  C          7.0900    1.1210   -0.7850 C.3     1  UNL1        0.0430
      6  C          7.5370   -0.2450   -0.4580 C.2     1  UNL1       -0.0440
      7  C          7.6880   -0.6690    0.8670 C.2     1  UNL1        0.0080
      8  C          7.8130   -1.1330   -1.4720 C.2     1  UNL1        0.0540
      9  C          8.1110   -1.9630    1.1140 C.2     1  UNL1        0.0510
     10  C          8.2390   -2.4400   -1.2180 C.2     1  UNL1        0.1660
     11  C          8.3900   -2.8580    0.0860 C.2     1  UNL1        0.1650
     12  O          8.5730   -3.4970   -2.0390 O.2     1  UNL1       -0.4540
     13  O          8.8150   -4.1760    0.0380 O.2     1  UNL1       -0.4540
     14  C          8.8580   -4.6490   -1.2880 C.3     1  UNL1        0.4680
@<TRIPOS>BOND
     1    12    14    1
     2    12    10    1
     3     8    10    1
     4     8     6    2
     5    14    13    1
     6    10    11    2
     7     5     1    1
     8     5     6    1
     9     1     2    1
    10     6     7    1
    11    13    11    1
    12    11     9    1
    13     2     3    1
    14     2     4    2
    15     7     9    2
