@<TRIPOS>MOLECULE
/home/cewinharhar/GITHUB/reincatalyze/data/processed/docking_pred/2023-May-22-1531_sub9_nm5_bs15_s42_ex16_mel10_mts1000_k50_ec02_g099_lra9e-4_lrc1e-3/46aa5159a95d0d08c04f597503a56ad94e9ef6ed_ligand_9.pdbqt
 14 15 0 0 0
SMALL
GASTEIGER

@<TRIPOS>ATOM
      1  C          5.5330    1.9410    1.2520 C.3     1  UNL1        0.0800
      2  C          5.1160    0.7220    2.0010 C.2     1  UNL1        0.1300
      3  C          6.0360   -0.4310    2.1890 C.3     1  UNL1        0.0870
      4  O          3.9980    0.6340    2.4830 O.2     1  UNL1       -0.3000
      5  C          5.4060    1.7380   -0.2440 C.3     1  UNL1        0.0430
      6  C          6.5720    1.0290   -0.8010 C.2     1  UNL1       -0.0440
      7  C          7.8800    1.4510   -0.5380 C.2     1  UNL1        0.0080
      8  C          6.3810   -0.0780   -1.5970 C.2     1  UNL1        0.0540
      9  C          8.9350    0.7450   -1.0870 C.2     1  UNL1        0.0510
     10  C          7.4510   -0.7880   -2.1490 C.2     1  UNL1        0.1660
     11  C          8.7390   -0.3730   -1.8920 C.2     1  UNL1        0.1650
     12  O          7.5220   -1.9010   -2.9600 O.2     1  UNL1       -0.4540
     13  O          9.5830   -1.2490   -2.5560 O.2     1  UNL1       -0.4540
     14  C          8.8560   -2.2860   -3.1710 C.3     1  UNL1        0.4680
@<TRIPOS>BOND
     1    14    12    1
     2    14    13    1
     3    12    10    1
     4    13    11    1
     5    10    11    2
     6    10     8    1
     7    11     9    1
     8     8     6    2
     9     9     7    2
    10     6     7    1
    11     6     5    1
    12     5     1    1
    13     1     2    1
    14     2     3    1
    15     2     4    2
