@<TRIPOS>MOLECULE
/home/cewinharhar/GITHUB/reincatalyze/data/processed/docking_pred/2023-May-22-1531_sub9_nm5_bs15_s42_ex16_mel10_mts1000_k50_ec02_g099_lra9e-4_lrc1e-3/46aa5159a95d0d08c04f597503a56ad94e9ef6ed_ligand_9.pdbqt
 14 15 0 0 0
SMALL
GASTEIGER

@<TRIPOS>ATOM
      1  C          5.8050    1.4150   -0.3300 C.3     1  UNL1        0.0800
      2  C          5.1460    1.3310    1.0040 C.2     1  UNL1        0.1300
      3  C          5.4290    0.2160    1.9460 C.3     1  UNL1        0.0870
      4  O          4.3480    2.1820    1.3630 O.2     1  UNL1       -0.3000
      5  C          7.2900    1.1300   -0.2290 C.3     1  UNL1        0.0430
      6  C          7.6410   -0.1640   -0.8410 C.2     1  UNL1       -0.0440
      7  C          7.6920   -0.3280   -2.2300 C.2     1  UNL1        0.0080
      8  C          7.9310   -1.2430   -0.0370 C.2     1  UNL1        0.0540
      9  C          8.0290   -1.5650   -2.7480 C.2     1  UNL1        0.0510
     10  C          8.2720   -2.4920   -0.5650 C.2     1  UNL1        0.1660
     11  C          8.3200   -2.6540   -1.9320 C.2     1  UNL1        0.1650
     12  O          8.5960   -3.7000    0.0140 O.2     1  UNL1       -0.4540
     13  O          8.6790   -3.9730   -2.1660 O.2     1  UNL1       -0.4540
     14  C          8.9520   -4.6470   -0.9610 C.3     1  UNL1        0.4680
@<TRIPOS>BOND
     1     9     7    1
     2     9    11    2
     3     7     6    2
     4    13    11    1
     5    13    14    1
     6    11    10    1
     7    14    12    1
     8     6     5    1
     9     6     8    1
    10    10     8    2
    11    10    12    1
    12     1     5    1
    13     1     2    1
    14     2     4    2
    15     2     3    1
