MODEL 1
REMARK VINA RESULT:      -7.7      0.000      0.000
REMARK SMILES CC(=O)CCc1ccc2c(c1)OCO2
REMARK SMILES IDX 4 1 2 2 1 3 3 4 5 5 6 6 7 7 11 8 8 9 10 10 9 11 12 12 14 13
REMARK SMILES IDX 13 14
REMARK H PARENT
REMARK Flexibility Score: inf
ROOT
ATOM      1  C   UNL     1       5.533   1.941   1.252  1.00  0.00     0.080 C 
ENDROOT
BRANCH   1   2
ATOM      2  C   UNL     1       5.116   0.722   2.001  1.00  0.00     0.130 C 
ATOM      3  C   UNL     1       6.036  -0.431   2.189  1.00  0.00     0.087 C 
ATOM      4  O   UNL     1       3.998   0.634   2.483  1.00  0.00    -0.300 OA
ENDBRANCH   1   2
BRANCH   1   5
ATOM      5  C   UNL     1       5.406   1.738  -0.244  1.00  0.00     0.043 C 
BRANCH   5   6
ATOM      6  C   UNL     1       6.572   1.029  -0.801  1.00  0.00    -0.044 A 
ATOM      7  C   UNL     1       7.880   1.451  -0.538  1.00  0.00     0.008 A 
ATOM      8  C   UNL     1       6.381  -0.078  -1.597  1.00  0.00     0.054 A 
ATOM      9  C   UNL     1       8.935   0.745  -1.087  1.00  0.00     0.051 A 
ATOM     10  C   UNL     1       7.451  -0.788  -2.149  1.00  0.00     0.166 A 
ATOM     11  C   UNL     1       8.739  -0.373  -1.892  1.00  0.00     0.165 A 
ATOM     12  O   UNL     1       7.522  -1.901  -2.960  1.00  0.00    -0.454 OA
ATOM     13  O   UNL     1       9.583  -1.249  -2.556  1.00  0.00    -0.454 OA
ATOM     14  C   UNL     1       8.856  -2.286  -3.171  1.00  0.00     0.468 C 
ENDBRANCH   5   6
ENDBRANCH   1   5
TORSDOF 3
ENDMDL
MODEL 2
REMARK VINA RESULT:      -7.5      1.929      2.391
REMARK SMILES CC(=O)CCc1ccc2c(c1)OCO2
REMARK SMILES IDX 4 1 2 2 1 3 3 4 5 5 6 6 7 7 11 8 8 9 10 10 9 11 12 12 14 13
REMARK SMILES IDX 13 14
REMARK H PARENT
REMARK Flexibility Score: inf
ROOT
ATOM      1  C   UNL     1       5.805   1.415  -0.330  1.00  0.00     0.080 C 
ENDROOT
BRANCH   1   2
ATOM      2  C   UNL     1       5.146   1.331   1.004  1.00  0.00     0.130 C 
ATOM      3  C   UNL     1       5.429   0.216   1.946  1.00  0.00     0.087 C 
ATOM      4  O   UNL     1       4.348   2.182   1.363  1.00  0.00    -0.300 OA
ENDBRANCH   1   2
BRANCH   1   5
ATOM      5  C   UNL     1       7.290   1.130  -0.229  1.00  0.00     0.043 C 
BRANCH   5   6
ATOM      6  C   UNL     1       7.641  -0.164  -0.841  1.00  0.00    -0.044 A 
ATOM      7  C   UNL     1       7.692  -0.328  -2.230  1.00  0.00     0.008 A 
ATOM      8  C   UNL     1       7.931  -1.243  -0.037  1.00  0.00     0.054 A 
ATOM      9  C   UNL     1       8.029  -1.565  -2.748  1.00  0.00     0.051 A 
ATOM     10  C   UNL     1       8.272  -2.492  -0.565  1.00  0.00     0.166 A 
ATOM     11  C   UNL     1       8.320  -2.654  -1.932  1.00  0.00     0.165 A 
ATOM     12  O   UNL     1       8.596  -3.700   0.014  1.00  0.00    -0.454 OA
ATOM     13  O   UNL     1       8.679  -3.973  -2.166  1.00  0.00    -0.454 OA
ATOM     14  C   UNL     1       8.952  -4.647  -0.961  1.00  0.00     0.468 C 
ENDBRANCH   5   6
ENDBRANCH   1   5
TORSDOF 3
ENDMDL
MODEL 3
REMARK VINA RESULT:      -7.3      2.195      2.702
REMARK SMILES CC(=O)CCc1ccc2c(c1)OCO2
REMARK SMILES IDX 4 1 2 2 1 3 3 4 5 5 6 6 7 7 11 8 8 9 10 10 9 11 12 12 14 13
REMARK SMILES IDX 13 14
REMARK H PARENT
REMARK Flexibility Score: inf
ROOT
ATOM      1  C   UNL     1       5.608   1.304  -0.525  1.00  0.00     0.080 C 
ENDROOT
BRANCH   1   2
ATOM      2  C   UNL     1       5.368   2.279   0.576  1.00  0.00     0.130 C 
ATOM      3  C   UNL     1       6.154   3.537   0.689  1.00  0.00     0.087 C 
ATOM      4  O   UNL     1       4.514   2.070   1.422  1.00  0.00    -0.300 OA
ENDBRANCH   1   2
BRANCH   1   5
ATOM      5  C   UNL     1       7.090   1.121  -0.785  1.00  0.00     0.043 C 
BRANCH   5   6
ATOM      6  C   UNL     1       7.537  -0.245  -0.458  1.00  0.00    -0.044 A 
ATOM      7  C   UNL     1       7.688  -0.669   0.867  1.00  0.00     0.008 A 
ATOM      8  C   UNL     1       7.813  -1.133  -1.472  1.00  0.00     0.054 A 
ATOM      9  C   UNL     1       8.111  -1.963   1.114  1.00  0.00     0.051 A 
ATOM     10  C   UNL     1       8.239  -2.440  -1.218  1.00  0.00     0.166 A 
ATOM     11  C   UNL     1       8.390  -2.858   0.086  1.00  0.00     0.165 A 
ATOM     12  O   UNL     1       8.573  -3.497  -2.039  1.00  0.00    -0.454 OA
ATOM     13  O   UNL     1       8.815  -4.176   0.038  1.00  0.00    -0.454 OA
ATOM     14  C   UNL     1       8.858  -4.649  -1.288  1.00  0.00     0.468 C 
ENDBRANCH   5   6
ENDBRANCH   1   5
TORSDOF 3
ENDMDL
