@<TRIPOS>MOLECULE
/home/cewinharhar/GITHUB/reincatalyze/data/processed/docking_pred/2023-May-22-1531_sub9_nm5_bs15_s42_ex16_mel10_mts1000_k50_ec02_g099_lra9e-4_lrc1e-3/49b3117837231080fe644fe44c00424f4b8d2b91_ligand_9.pdbqt
 14 15 0 0 0
SMALL
GASTEIGER

@<TRIPOS>ATOM
      1  C          5.7850    1.3830   -0.3710 C.3     1  UNL1        0.0800
      2  C          5.1180    1.3350    0.9610 C.2     1  UNL1        0.1300
      3  C          5.3710    0.2270    1.9200 C.3     1  UNL1        0.0870
      4  O          4.3400    2.2100    1.3040 O.2     1  UNL1       -0.3000
      5  C          7.2700    1.1060   -0.2530 C.3     1  UNL1        0.0430
      6  C          7.6350   -0.1860   -0.8610 C.2     1  UNL1       -0.0440
      7  C          7.7090   -0.3480   -2.2490 C.2     1  UNL1        0.0080
      8  C          7.9150   -1.2650   -0.0530 C.2     1  UNL1        0.0540
      9  C          8.0580   -1.5840   -2.7630 C.2     1  UNL1        0.0510
     10  C          8.2670   -2.5130   -0.5780 C.2     1  UNL1        0.1660
     11  C          8.3390   -2.6730   -1.9440 C.2     1  UNL1        0.1650
     12  O          8.5850   -3.7210    0.0050 O.2     1  UNL1       -0.4540
     13  O          8.7050   -3.9900   -2.1730 O.2     1  UNL1       -0.4540
     14  C          8.9600   -4.6650   -0.9650 C.3     1  UNL1        0.4680
@<TRIPOS>BOND
     1     9     7    1
     2     9    11    2
     3     7     6    2
     4    13    11    1
     5    13    14    1
     6    11    10    1
     7    14    12    1
     8     6     5    1
     9     6     8    1
    10    10     8    2
    11    10    12    1
    12     1     5    1
    13     1     2    1
    14     2     4    2
    15     2     3    1
