@<TRIPOS>MOLECULE
/home/cewinharhar/GITHUB/reincatalyze/data/processed/docking_pred/2023-May-22-1531_sub9_nm5_bs15_s42_ex16_mel10_mts1000_k50_ec02_g099_lra9e-4_lrc1e-3/49b3117837231080fe644fe44c00424f4b8d2b91_ligand_9.pdbqt
 14 15 0 0 0
SMALL
GASTEIGER

@<TRIPOS>ATOM
      1  C          5.5020    1.9250    1.2580 C.3     1  UNL1        0.0800
      2  C          5.0520    0.7110    1.9950 C.2     1  UNL1        0.1300
      3  C          5.9270   -0.4820    2.1420 C.3     1  UNL1        0.0870
      4  O          3.9430    0.6610    2.5020 O.2     1  UNL1       -0.3000
      5  C          5.3820    1.7360   -0.2410 C.3     1  UNL1        0.0430
      6  C          6.5520    1.0350   -0.7990 C.2     1  UNL1       -0.0440
      7  C          7.8580    1.4700   -0.5420 C.2     1  UNL1        0.0080
      8  C          6.3690   -0.0760   -1.5900 C.2     1  UNL1        0.0540
      9  C          8.9180    0.7730   -1.0920 C.2     1  UNL1        0.0510
     10  C          7.4450   -0.7780   -2.1430 C.2     1  UNL1        0.1660
     11  C          8.7290   -0.3500   -1.8920 C.2     1  UNL1        0.1650
     12  O          7.5230   -1.8930   -2.9500 O.2     1  UNL1       -0.4540
     13  O          9.5790   -1.2200   -2.5560 O.2     1  UNL1       -0.4540
     14  C          8.8600   -2.2670   -3.1650 C.3     1  UNL1        0.4680
@<TRIPOS>BOND
     1    14    12    1
     2    14    13    1
     3    12    10    1
     4    13    11    1
     5    10    11    2
     6    10     8    1
     7    11     9    1
     8     8     6    2
     9     9     7    2
    10     6     7    1
    11     6     5    1
    12     5     1    1
    13     1     2    1
    14     2     3    1
    15     2     4    2
