@<TRIPOS>MOLECULE
/home/cewinharhar/GITHUB/reincatalyze/data/processed/docking_pred/2023-May-22-1531_sub9_nm5_bs15_s42_ex16_mel10_mts1000_k50_ec02_g099_lra9e-4_lrc1e-3/49b3117837231080fe644fe44c00424f4b8d2b91_ligand_9.pdbqt
 14 15 0 0 0
SMALL
GASTEIGER

@<TRIPOS>ATOM
      1  C          5.5690    2.6750    1.1090 C.3     1  UNL1        0.0800
      2  C          6.3640    3.9340    1.0740 C.2     1  UNL1        0.1300
      3  C          6.8790    4.5670    2.3180 C.3     1  UNL1        0.0870
      4  O          6.6160    4.4870    0.0160 O.2     1  UNL1       -0.3000
      5  C          5.3300    2.1360   -0.2880 C.3     1  UNL1        0.0430
      6  C          6.1020    0.9060   -0.5390 C.2     1  UNL1       -0.0440
      7  C          6.5240    0.5560   -1.8270 C.2     1  UNL1        0.0080
      8  C          6.4240    0.0770    0.5110 C.2     1  UNL1        0.0540
      9  C          7.2470   -0.6100   -2.0010 C.2     1  UNL1        0.0510
     10  C          7.1560   -1.1010    0.3290 C.2     1  UNL1        0.1660
     11  C          7.5700   -1.4470   -0.9380 C.2     1  UNL1        0.1650
     12  O          7.5940   -2.0780    1.1970 O.2     1  UNL1       -0.4540
     13  O          8.2630   -2.6420   -0.8200 O.2     1  UNL1       -0.4540
     14  C          8.3800   -3.0310    0.5280 C.3     1  UNL1        0.4680
@<TRIPOS>BOND
     1     9     7    1
     2     9    11    2
     3     7     6    2
     4    11    13    1
     5    11    10    1
     6    13    14    1
     7     6     5    1
     8     6     8    1
     9     5     1    1
    10     4     2    2
    11    10     8    2
    12    10    12    1
    13    14    12    1
    14     2     1    1
    15     2     3    1
