@<TRIPOS>MOLECULE
/home/cewinharhar/GITHUB/reincatalyze/data/processed/docking_pred/2023-May-22-1531_sub9_nm5_bs15_s42_ex16_mel10_mts1000_k50_ec02_g099_lra9e-4_lrc1e-3/4c3a486d5bbb1ad3c8ce5b6da142191fd088767a_ligand_9.pdbqt
 14 15 0 0 0
SMALL
GASTEIGER

@<TRIPOS>ATOM
      1  C          5.5290    1.9140    1.2640 C.3     1  UNL1        0.0800
      2  C          5.0820    0.7040    2.0080 C.2     1  UNL1        0.1300
      3  C          5.9650   -0.4820    2.1730 C.3     1  UNL1        0.0870
      4  O          3.9700    0.6500    2.5080 O.2     1  UNL1       -0.3000
      5  C          5.3960    1.7190   -0.2340 C.3     1  UNL1        0.0430
      6  C          6.5640    1.0210   -0.8000 C.2     1  UNL1       -0.0440
      7  C          7.8700    1.4630   -0.5580 C.2     1  UNL1        0.0080
      8  C          6.3790   -0.0940   -1.5840 C.2     1  UNL1        0.0540
      9  C          8.9280    0.7680   -1.1150 C.2     1  UNL1        0.0510
     10  C          7.4510   -0.7940   -2.1450 C.2     1  UNL1        0.1660
     11  C          8.7370   -0.3590   -1.9080 C.2     1  UNL1        0.1650
     12  O          7.5270   -1.9120   -2.9470 O.2     1  UNL1       -0.4540
     13  O          9.5830   -1.2290   -2.5760 O.2     1  UNL1       -0.4540
     14  C          8.8630   -2.2820   -3.1730 C.3     1  UNL1        0.4680
@<TRIPOS>BOND
     1    14    12    1
     2    14    13    1
     3    12    10    1
     4    13    11    1
     5    10    11    2
     6    10     8    1
     7    11     9    1
     8     8     6    2
     9     9     7    2
    10     6     7    1
    11     6     5    1
    12     5     1    1
    13     1     2    1
    14     2     3    1
    15     2     4    2
