@<TRIPOS>MOLECULE
/home/cewinharhar/GITHUB/reincatalyze/data/processed/docking_pred/2023-May-22-1531_sub9_nm5_bs15_s42_ex16_mel10_mts1000_k50_ec02_g099_lra9e-4_lrc1e-3/4c3a486d5bbb1ad3c8ce5b6da142191fd088767a_ligand_9.pdbqt
 14 15 0 0 0
SMALL
GASTEIGER

@<TRIPOS>ATOM
      1  C          5.7510    1.4160   -0.3300 C.3     1  UNL1        0.0800
      2  C          5.1250    1.3130    1.0180 C.2     1  UNL1        0.1300
      3  C          5.4390    0.1890    1.9410 C.3     1  UNL1        0.0870
      4  O          4.3300    2.1540    1.4050 O.2     1  UNL1       -0.3000
      5  C          7.2440    1.1630   -0.2640 C.3     1  UNL1        0.0430
      6  C          7.6100   -0.1160   -0.8980 C.2     1  UNL1       -0.0440
      7  C          7.6570   -0.2580   -2.2890 C.2     1  UNL1        0.0080
      8  C          7.9170   -1.2040   -0.1120 C.2     1  UNL1        0.0540
      9  C          8.0080   -1.4820   -2.8280 C.2     1  UNL1        0.0510
     10  C          8.2720   -2.4400   -0.6620 C.2     1  UNL1        0.1660
     11  C          8.3170   -2.5800   -2.0310 C.2     1  UNL1        0.1650
     12  O          8.6150   -3.6530   -0.1030 O.2     1  UNL1       -0.4540
     13  O          8.6920   -3.8900   -2.2870 O.2     1  UNL1       -0.4540
     14  C          8.9790   -4.5790   -1.0940 C.3     1  UNL1        0.4680
@<TRIPOS>BOND
     1     9     7    1
     2     9    11    2
     3     7     6    2
     4    13    11    1
     5    13    14    1
     6    11    10    1
     7    14    12    1
     8     6     5    1
     9     6     8    1
    10    10     8    2
    11    10    12    1
    12     1     5    1
    13     1     2    1
    14     2     4    2
    15     2     3    1
