MODEL 1
REMARK VINA RESULT:      -7.8      0.000      0.000
REMARK SMILES CC(=O)CCc1ccc2c(c1)OCO2
REMARK SMILES IDX 4 1 2 2 1 3 3 4 5 5 6 6 7 7 11 8 8 9 10 10 9 11 12 12 14 13
REMARK SMILES IDX 13 14
REMARK H PARENT
REMARK Flexibility Score: inf
ROOT
ATOM      1  C   UNL     1       5.491   2.880   0.167  1.00  0.00     0.080 C 
ENDROOT
BRANCH   1   2
ATOM      2  C   UNL     1       6.279   3.837   0.992  1.00  0.00     0.130 C 
ATOM      3  C   UNL     1       7.258   4.774   0.379  1.00  0.00     0.087 C 
ATOM      4  O   UNL     1       6.145   3.879   2.204  1.00  0.00    -0.300 OA
ENDBRANCH   1   2
BRANCH   1   5
ATOM      5  C   UNL     1       5.238   1.586   0.916  1.00  0.00     0.043 C 
BRANCH   5   6
ATOM      6  C   UNL     1       6.073   0.486   0.402  1.00  0.00    -0.044 A 
ATOM      7  C   UNL     1       6.475  -0.575   1.222  1.00  0.00     0.008 A 
ATOM      8  C   UNL     1       6.472   0.489  -0.916  1.00  0.00     0.054 A 
ATOM      9  C   UNL     1       7.257  -1.580   0.684  1.00  0.00     0.051 A 
ATOM     10  C   UNL     1       7.262  -0.530  -1.455  1.00  0.00     0.166 A 
ATOM     11  C   UNL     1       7.659  -1.573  -0.648  1.00  0.00     0.165 A 
ATOM     12  O   UNL     1       7.782  -0.750  -2.713  1.00  0.00    -0.454 OA
ATOM     13  O   UNL     1       8.420  -2.422  -1.436  1.00  0.00    -0.454 OA
ATOM     14  C   UNL     1       8.448  -1.985  -2.774  1.00  0.00     0.468 C 
ENDBRANCH   5   6
ENDBRANCH   1   5
TORSDOF 3
ENDMDL
MODEL 2
REMARK VINA RESULT:      -7.5      1.901      2.644
REMARK SMILES CC(=O)CCc1ccc2c(c1)OCO2
REMARK SMILES IDX 4 1 2 2 1 3 3 4 5 5 6 6 7 7 11 8 8 9 10 10 9 11 12 12 14 13
REMARK SMILES IDX 13 14
REMARK H PARENT
REMARK Flexibility Score: inf
ROOT
ATOM      1  C   UNL     1       5.529   1.914   1.264  1.00  0.00     0.080 C 
ENDROOT
BRANCH   1   2
ATOM      2  C   UNL     1       5.082   0.704   2.008  1.00  0.00     0.130 C 
ATOM      3  C   UNL     1       5.965  -0.482   2.173  1.00  0.00     0.087 C 
ATOM      4  O   UNL     1       3.970   0.650   2.508  1.00  0.00    -0.300 OA
ENDBRANCH   1   2
BRANCH   1   5
ATOM      5  C   UNL     1       5.396   1.719  -0.234  1.00  0.00     0.043 C 
BRANCH   5   6
ATOM      6  C   UNL     1       6.564   1.021  -0.800  1.00  0.00    -0.044 A 
ATOM      7  C   UNL     1       7.870   1.463  -0.558  1.00  0.00     0.008 A 
ATOM      8  C   UNL     1       6.379  -0.094  -1.584  1.00  0.00     0.054 A 
ATOM      9  C   UNL     1       8.928   0.768  -1.115  1.00  0.00     0.051 A 
ATOM     10  C   UNL     1       7.451  -0.794  -2.145  1.00  0.00     0.166 A 
ATOM     11  C   UNL     1       8.737  -0.359  -1.908  1.00  0.00     0.165 A 
ATOM     12  O   UNL     1       7.527  -1.912  -2.947  1.00  0.00    -0.454 OA
ATOM     13  O   UNL     1       9.583  -1.229  -2.576  1.00  0.00    -0.454 OA
ATOM     14  C   UNL     1       8.863  -2.282  -3.173  1.00  0.00     0.468 C 
ENDBRANCH   5   6
ENDBRANCH   1   5
TORSDOF 3
ENDMDL
MODEL 3
REMARK VINA RESULT:      -7.3      1.934      2.971
REMARK SMILES CC(=O)CCc1ccc2c(c1)OCO2
REMARK SMILES IDX 4 1 2 2 1 3 3 4 5 5 6 6 7 7 11 8 8 9 10 10 9 11 12 12 14 13
REMARK SMILES IDX 13 14
REMARK H PARENT
REMARK Flexibility Score: inf
ROOT
ATOM      1  C   UNL     1       5.751   1.416  -0.330  1.00  0.00     0.080 C 
ENDROOT
BRANCH   1   2
ATOM      2  C   UNL     1       5.125   1.313   1.018  1.00  0.00     0.130 C 
ATOM      3  C   UNL     1       5.439   0.189   1.941  1.00  0.00     0.087 C 
ATOM      4  O   UNL     1       4.330   2.154   1.405  1.00  0.00    -0.300 OA
ENDBRANCH   1   2
BRANCH   1   5
ATOM      5  C   UNL     1       7.244   1.163  -0.264  1.00  0.00     0.043 C 
BRANCH   5   6
ATOM      6  C   UNL     1       7.610  -0.116  -0.898  1.00  0.00    -0.044 A 
ATOM      7  C   UNL     1       7.657  -0.258  -2.289  1.00  0.00     0.008 A 
ATOM      8  C   UNL     1       7.917  -1.204  -0.112  1.00  0.00     0.054 A 
ATOM      9  C   UNL     1       8.008  -1.482  -2.828  1.00  0.00     0.051 A 
ATOM     10  C   UNL     1       8.272  -2.440  -0.662  1.00  0.00     0.166 A 
ATOM     11  C   UNL     1       8.317  -2.580  -2.031  1.00  0.00     0.165 A 
ATOM     12  O   UNL     1       8.615  -3.653  -0.103  1.00  0.00    -0.454 OA
ATOM     13  O   UNL     1       8.692  -3.890  -2.287  1.00  0.00    -0.454 OA
ATOM     14  C   UNL     1       8.979  -4.579  -1.094  1.00  0.00     0.468 C 
ENDBRANCH   5   6
ENDBRANCH   1   5
TORSDOF 3
ENDMDL
