@<TRIPOS>MOLECULE
/home/cewinharhar/GITHUB/reincatalyze/data/processed/docking_pred/2023-May-22-1531_sub9_nm5_bs15_s42_ex16_mel10_mts1000_k50_ec02_g099_lra9e-4_lrc1e-3/4c3a486d5bbb1ad3c8ce5b6da142191fd088767a_ligand_9.pdbqt
 14 15 0 0 0
SMALL
GASTEIGER

@<TRIPOS>ATOM
      1  C          5.4910    2.8800    0.1670 C.3     1  UNL1        0.0800
      2  C          6.2790    3.8370    0.9920 C.2     1  UNL1        0.1300
      3  C          7.2580    4.7740    0.3790 C.3     1  UNL1        0.0870
      4  O          6.1450    3.8790    2.2040 O.2     1  UNL1       -0.3000
      5  C          5.2380    1.5860    0.9160 C.3     1  UNL1        0.0430
      6  C          6.0730    0.4860    0.4020 C.2     1  UNL1       -0.0440
      7  C          6.4750   -0.5750    1.2220 C.2     1  UNL1        0.0080
      8  C          6.4720    0.4890   -0.9160 C.2     1  UNL1        0.0540
      9  C          7.2570   -1.5800    0.6840 C.2     1  UNL1        0.0510
     10  C          7.2620   -0.5300   -1.4550 C.2     1  UNL1        0.1660
     11  C          7.6590   -1.5730   -0.6480 C.2     1  UNL1        0.1650
     12  O          7.7820   -0.7500   -2.7130 O.2     1  UNL1       -0.4540
     13  O          8.4200   -2.4220   -1.4360 O.2     1  UNL1       -0.4540
     14  C          8.4480   -1.9850   -2.7740 C.3     1  UNL1        0.4680
@<TRIPOS>BOND
     1    14    12    1
     2    14    13    1
     3    12    10    1
     4    10     8    1
     5    10    11    2
     6    13    11    1
     7     8     6    2
     8    11     9    1
     9     1     5    1
    10     1     2    1
    11     3     2    1
    12     6     5    1
    13     6     7    1
    14     9     7    2
    15     2     4    2
