@<TRIPOS>MOLECULE
/home/cewinharhar/GITHUB/reincatalyze/data/processed/docking_pred/2023-May-22-1531_sub9_nm5_bs15_s42_ex16_mel10_mts1000_k50_ec02_g099_lra9e-4_lrc1e-3/4c41b041102a8d5d821093d1e21668bd2b50a839_ligand_9.pdbqt
 14 15 0 0 0
SMALL
GASTEIGER

@<TRIPOS>ATOM
      1  C          5.5460    1.9180    1.2750 C.3     1  UNL1        0.0800
      2  C          5.1210    0.6970    2.0150 C.2     1  UNL1        0.1300
      3  C          6.0300   -0.4680    2.1860 C.3     1  UNL1        0.0870
      4  O          4.0060    0.6180    2.5050 O.2     1  UNL1       -0.3000
      5  C          5.4140    1.7280   -0.2230 C.3     1  UNL1        0.0430
      6  C          6.5790    1.0250   -0.7890 C.2     1  UNL1       -0.0440
      7  C          7.8880    1.4510   -0.5340 C.2     1  UNL1        0.0080
      8  C          6.3880   -0.0800   -1.5870 C.2     1  UNL1        0.0540
      9  C          8.9420    0.7510   -1.0910 C.2     1  UNL1        0.0510
     10  C          7.4570   -0.7850   -2.1470 C.2     1  UNL1        0.1660
     11  C          8.7450   -0.3650   -1.8980 C.2     1  UNL1        0.1650
     12  O          7.5270   -1.8950   -2.9620 O.2     1  UNL1       -0.4540
     13  O          9.5880   -1.2370   -2.5700 O.2     1  UNL1       -0.4540
     14  C          8.8610   -2.2750   -3.1830 C.3     1  UNL1        0.4680
@<TRIPOS>BOND
     1    14    12    1
     2    14    13    1
     3    12    10    1
     4    13    11    1
     5    10    11    2
     6    10     8    1
     7    11     9    1
     8     8     6    2
     9     9     7    2
    10     6     7    1
    11     6     5    1
    12     5     1    1
    13     1     2    1
    14     2     3    1
    15     2     4    2
