@<TRIPOS>MOLECULE
/home/cewinharhar/GITHUB/reincatalyze/data/processed/docking_pred/2023-May-22-1531_sub9_nm5_bs15_s42_ex16_mel10_mts1000_k50_ec02_g099_lra9e-4_lrc1e-3/4c41b041102a8d5d821093d1e21668bd2b50a839_ligand_9.pdbqt
 14 15 0 0 0
SMALL
GASTEIGER

@<TRIPOS>ATOM
      1  C          5.7450    1.3340   -0.3630 C.3     1  UNL1        0.0800
      2  C          5.1670    1.3070    1.0100 C.2     1  UNL1        0.1300
      3  C          5.3840    0.1550    1.9250 C.3     1  UNL1        0.0870
      4  O          4.4950    2.2370    1.4250 O.2     1  UNL1       -0.3000
      5  C          7.2440    1.1140   -0.3340 C.3     1  UNL1        0.0430
      6  C          7.6180   -0.1830   -0.9280 C.2     1  UNL1       -0.0440
      7  C          7.7200   -0.3520   -2.3130 C.2     1  UNL1        0.0080
      8  C          7.8770   -1.2580   -0.1090 C.2     1  UNL1        0.0540
      9  C          8.0760   -1.5920   -2.8130 C.2     1  UNL1        0.0510
     10  C          8.2370   -2.5090   -0.6190 C.2     1  UNL1        0.1660
     11  C          8.3360   -2.6770   -1.9830 C.2     1  UNL1        0.1650
     12  O          8.5390   -3.7160   -0.0240 O.2     1  UNL1       -0.4540
     13  O          8.7030   -3.9970   -2.1980 O.2     1  UNL1       -0.4540
     14  C          8.9310   -4.6660   -0.9810 C.3     1  UNL1        0.4680
@<TRIPOS>BOND
     1     9     7    1
     2     9    11    2
     3     7     6    2
     4    13    11    1
     5    13    14    1
     6    11    10    1
     7    14    12    1
     8     6     5    1
     9     6     8    1
    10    10     8    2
    11    10    12    1
    12     1     5    1
    13     1     2    1
    14     2     4    2
    15     2     3    1
