MODEL 1
REMARK VINA RESULT:      -7.7      0.000      0.000
REMARK SMILES CC(=O)CCc1ccc2c(c1)OCO2
REMARK SMILES IDX 4 1 2 2 1 3 3 4 5 5 6 6 7 7 11 8 8 9 10 10 9 11 12 12 14 13
REMARK SMILES IDX 13 14
REMARK H PARENT
REMARK Flexibility Score: inf
ROOT
ATOM      1  C   UNL     1       5.391   2.945   0.238  1.00  0.00     0.080 C 
ENDROOT
BRANCH   1   2
ATOM      2  C   UNL     1       6.409   3.673   1.044  1.00  0.00     0.130 C 
ATOM      3  C   UNL     1       7.226   4.772   0.462  1.00  0.00     0.087 C 
ATOM      4  O   UNL     1       6.605   3.387   2.214  1.00  0.00    -0.300 OA
ENDBRANCH   1   2
BRANCH   1   5
ATOM      5  C   UNL     1       5.085   1.586   0.836  1.00  0.00     0.043 C 
BRANCH   5   6
ATOM      6  C   UNL     1       5.952   0.534   0.275  1.00  0.00    -0.044 A 
ATOM      7  C   UNL     1       6.373   0.566  -1.059  1.00  0.00     0.008 A 
ATOM      8  C   UNL     1       6.365  -0.507   1.075  1.00  0.00     0.054 A 
ATOM      9  C   UNL     1       7.187  -0.448  -1.530  1.00  0.00     0.051 A 
ATOM     10  C   UNL     1       7.189  -1.530   0.594  1.00  0.00     0.166 A 
ATOM     11  C   UNL     1       7.603  -1.500  -0.719  1.00  0.00     0.165 A 
ATOM     12  O   UNL     1       7.727  -2.656   1.179  1.00  0.00    -0.454 OA
ATOM     13  O   UNL     1       8.396  -2.620  -0.915  1.00  0.00    -0.454 OA
ATOM     14  C   UNL     1       8.575  -3.332   0.287  1.00  0.00     0.468 C 
ENDBRANCH   5   6
ENDBRANCH   1   5
TORSDOF 3
ENDMDL
MODEL 2
REMARK VINA RESULT:      -7.6      2.395      3.018
REMARK SMILES CC(=O)CCc1ccc2c(c1)OCO2
REMARK SMILES IDX 4 1 2 2 1 3 3 4 5 5 6 6 7 7 11 8 8 9 10 10 9 11 12 12 14 13
REMARK SMILES IDX 13 14
REMARK H PARENT
REMARK Flexibility Score: inf
ROOT
ATOM      1  C   UNL     1       5.546   1.918   1.275  1.00  0.00     0.080 C 
ENDROOT
BRANCH   1   2
ATOM      2  C   UNL     1       5.121   0.697   2.015  1.00  0.00     0.130 C 
ATOM      3  C   UNL     1       6.030  -0.468   2.186  1.00  0.00     0.087 C 
ATOM      4  O   UNL     1       4.006   0.618   2.505  1.00  0.00    -0.300 OA
ENDBRANCH   1   2
BRANCH   1   5
ATOM      5  C   UNL     1       5.414   1.728  -0.223  1.00  0.00     0.043 C 
BRANCH   5   6
ATOM      6  C   UNL     1       6.579   1.025  -0.789  1.00  0.00    -0.044 A 
ATOM      7  C   UNL     1       7.888   1.451  -0.534  1.00  0.00     0.008 A 
ATOM      8  C   UNL     1       6.388  -0.080  -1.587  1.00  0.00     0.054 A 
ATOM      9  C   UNL     1       8.942   0.751  -1.091  1.00  0.00     0.051 A 
ATOM     10  C   UNL     1       7.457  -0.785  -2.147  1.00  0.00     0.166 A 
ATOM     11  C   UNL     1       8.745  -0.365  -1.898  1.00  0.00     0.165 A 
ATOM     12  O   UNL     1       7.527  -1.895  -2.962  1.00  0.00    -0.454 OA
ATOM     13  O   UNL     1       9.588  -1.237  -2.570  1.00  0.00    -0.454 OA
ATOM     14  C   UNL     1       8.861  -2.275  -3.183  1.00  0.00     0.468 C 
ENDBRANCH   5   6
ENDBRANCH   1   5
TORSDOF 3
ENDMDL
MODEL 3
REMARK VINA RESULT:      -7.4      1.782      2.451
REMARK SMILES CC(=O)CCc1ccc2c(c1)OCO2
REMARK SMILES IDX 4 1 2 2 1 3 3 4 5 5 6 6 7 7 11 8 8 9 10 10 9 11 12 12 14 13
REMARK SMILES IDX 13 14
REMARK H PARENT
REMARK Flexibility Score: inf
ROOT
ATOM      1  C   UNL     1       5.745   1.334  -0.363  1.00  0.00     0.080 C 
ENDROOT
BRANCH   1   2
ATOM      2  C   UNL     1       5.167   1.307   1.010  1.00  0.00     0.130 C 
ATOM      3  C   UNL     1       5.384   0.155   1.925  1.00  0.00     0.087 C 
ATOM      4  O   UNL     1       4.495   2.237   1.425  1.00  0.00    -0.300 OA
ENDBRANCH   1   2
BRANCH   1   5
ATOM      5  C   UNL     1       7.244   1.114  -0.334  1.00  0.00     0.043 C 
BRANCH   5   6
ATOM      6  C   UNL     1       7.618  -0.183  -0.928  1.00  0.00    -0.044 A 
ATOM      7  C   UNL     1       7.720  -0.352  -2.313  1.00  0.00     0.008 A 
ATOM      8  C   UNL     1       7.877  -1.258  -0.109  1.00  0.00     0.054 A 
ATOM      9  C   UNL     1       8.076  -1.592  -2.813  1.00  0.00     0.051 A 
ATOM     10  C   UNL     1       8.237  -2.509  -0.619  1.00  0.00     0.166 A 
ATOM     11  C   UNL     1       8.336  -2.677  -1.983  1.00  0.00     0.165 A 
ATOM     12  O   UNL     1       8.539  -3.716  -0.024  1.00  0.00    -0.454 OA
ATOM     13  O   UNL     1       8.703  -3.997  -2.198  1.00  0.00    -0.454 OA
ATOM     14  C   UNL     1       8.931  -4.666  -0.981  1.00  0.00     0.468 C 
ENDBRANCH   5   6
ENDBRANCH   1   5
TORSDOF 3
ENDMDL
