@<TRIPOS>MOLECULE
/home/cewinharhar/GITHUB/reincatalyze/data/processed/docking_pred/2023-May-22-1531_sub9_nm5_bs15_s42_ex16_mel10_mts1000_k50_ec02_g099_lra9e-4_lrc1e-3/4c41b041102a8d5d821093d1e21668bd2b50a839_ligand_9.pdbqt
 14 15 0 0 0
SMALL
GASTEIGER

@<TRIPOS>ATOM
      1  C          5.3910    2.9450    0.2380 C.3     1  UNL1        0.0800
      2  C          6.4090    3.6730    1.0440 C.2     1  UNL1        0.1300
      3  C          7.2260    4.7720    0.4620 C.3     1  UNL1        0.0870
      4  O          6.6050    3.3870    2.2140 O.2     1  UNL1       -0.3000
      5  C          5.0850    1.5860    0.8360 C.3     1  UNL1        0.0430
      6  C          5.9520    0.5340    0.2750 C.2     1  UNL1       -0.0440
      7  C          6.3730    0.5660   -1.0590 C.2     1  UNL1        0.0080
      8  C          6.3650   -0.5070    1.0750 C.2     1  UNL1        0.0540
      9  C          7.1870   -0.4480   -1.5300 C.2     1  UNL1        0.0510
     10  C          7.1890   -1.5300    0.5940 C.2     1  UNL1        0.1660
     11  C          7.6030   -1.5000   -0.7190 C.2     1  UNL1        0.1650
     12  O          7.7270   -2.6560    1.1790 O.2     1  UNL1       -0.4540
     13  O          8.3960   -2.6200   -0.9150 O.2     1  UNL1       -0.4540
     14  C          8.5750   -3.3320    0.2870 C.3     1  UNL1        0.4680
@<TRIPOS>BOND
     1     9     7    1
     2     9    11    2
     3     7     6    2
     4    13    11    1
     5    13    14    1
     6    11    10    1
     7     1     5    1
     8     1     2    1
     9     6     5    1
    10     6     8    1
    11    14    12    1
    12     3     2    1
    13    10     8    2
    14    10    12    1
    15     2     4    2
