@<TRIPOS>MOLECULE
/home/cewinharhar/GITHUB/reincatalyze/data/processed/docking_pred/2023-May-22-1531_sub9_nm5_bs15_s42_ex16_mel10_mts1000_k50_ec02_g099_lra9e-4_lrc1e-3/4d620996829bdf69d2437cdb6940cc233521eaf3_ligand_9.pdbqt
 14 15 0 0 0
SMALL
GASTEIGER

@<TRIPOS>ATOM
      1  C          5.5360    1.9090    1.2720 C.3     1  UNL1        0.0800
      2  C          5.0980    0.6890    2.0060 C.2     1  UNL1        0.1300
      3  C          5.9980   -0.4840    2.1780 C.3     1  UNL1        0.0870
      4  O          3.9800    0.6160    2.4900 O.2     1  UNL1       -0.3000
      5  C          5.4080    1.7250   -0.2270 C.3     1  UNL1        0.0430
      6  C          6.5740    1.0220   -0.7930 C.2     1  UNL1       -0.0440
      7  C          7.8820    1.4560   -0.5480 C.2     1  UNL1        0.0080
      8  C          6.3830   -0.0910   -1.5800 C.2     1  UNL1        0.0540
      9  C          8.9360    0.7550   -1.1050 C.2     1  UNL1        0.0510
     10  C          7.4530   -0.7960   -2.1400 C.2     1  UNL1        0.1660
     11  C          8.7400   -0.3690   -1.9000 C.2     1  UNL1        0.1650
     12  O          7.5240   -1.9140   -2.9440 O.2     1  UNL1       -0.4540
     13  O          9.5830   -1.2430   -2.5690 O.2     1  UNL1       -0.4540
     14  C          8.8580   -2.2900   -3.1690 C.3     1  UNL1        0.4680
@<TRIPOS>BOND
     1    14    12    1
     2    14    13    1
     3    12    10    1
     4    13    11    1
     5    10    11    2
     6    10     8    1
     7    11     9    1
     8     8     6    2
     9     9     7    2
    10     6     7    1
    11     6     5    1
    12     5     1    1
    13     1     2    1
    14     2     3    1
    15     2     4    2
