MODEL 1
REMARK VINA RESULT:      -7.9      0.000      0.000
REMARK SMILES CC(=O)CCc1ccc2c(c1)OCO2
REMARK SMILES IDX 4 1 2 2 1 3 3 4 5 5 6 6 7 7 11 8 8 9 10 10 9 11 12 12 14 13
REMARK SMILES IDX 13 14
REMARK H PARENT
REMARK Flexibility Score: inf
ROOT
ATOM      1  C   UNL     1       5.436   2.923   0.072  1.00  0.00     0.080 C 
ENDROOT
BRANCH   1   2
ATOM      2  C   UNL     1       6.285   3.803   0.924  1.00  0.00     0.130 C 
ATOM      3  C   UNL     1       7.246   4.772   0.331  1.00  0.00     0.087 C 
ATOM      4  O   UNL     1       6.215   3.753   2.141  1.00  0.00    -0.300 OA
ENDBRANCH   1   2
BRANCH   1   5
ATOM      5  C   UNL     1       5.131   1.612   0.769  1.00  0.00     0.043 C 
BRANCH   5   6
ATOM      6  C   UNL     1       5.974   0.515   0.262  1.00  0.00    -0.044 A 
ATOM      7  C   UNL     1       6.299  -0.588   1.060  1.00  0.00     0.008 A 
ATOM      8  C   UNL     1       6.456   0.564  -1.026  1.00  0.00     0.054 A 
ATOM      9  C   UNL     1       7.093  -1.589   0.530  1.00  0.00     0.051 A 
ATOM     10  C   UNL     1       7.258  -0.450  -1.557  1.00  0.00     0.166 A 
ATOM     11  C   UNL     1       7.580  -1.535  -0.773  1.00  0.00     0.165 A 
ATOM     12  O   UNL     1       7.853  -0.630  -2.788  1.00  0.00    -0.454 OA
ATOM     13  O   UNL     1       8.373  -2.368  -1.547  1.00  0.00    -0.454 OA
ATOM     14  C   UNL     1       8.496  -1.877  -2.860  1.00  0.00     0.468 C 
ENDBRANCH   5   6
ENDBRANCH   1   5
TORSDOF 3
ENDMDL
MODEL 2
REMARK VINA RESULT:      -7.8      0.995      1.984
REMARK SMILES CC(=O)CCc1ccc2c(c1)OCO2
REMARK SMILES IDX 4 1 2 2 1 3 3 4 5 5 6 6 7 7 11 8 8 9 10 10 9 11 12 12 14 13
REMARK SMILES IDX 13 14
REMARK H PARENT
REMARK Flexibility Score: inf
ROOT
ATOM      1  C   UNL     1       5.419   2.912   0.175  1.00  0.00     0.080 C 
ENDROOT
BRANCH   1   2
ATOM      2  C   UNL     1       6.350   3.719   1.011  1.00  0.00     0.130 C 
ATOM      3  C   UNL     1       7.220   4.770   0.419  1.00  0.00     0.087 C 
ATOM      4  O   UNL     1       6.427   3.539   2.216  1.00  0.00    -0.300 OA
ENDBRANCH   1   2
BRANCH   1   5
ATOM      5  C   UNL     1       5.141   1.562   0.806  1.00  0.00     0.043 C 
BRANCH   5   6
ATOM      6  C   UNL     1       6.006   0.508   0.246  1.00  0.00    -0.044 A 
ATOM      7  C   UNL     1       6.439   0.546  -1.084  1.00  0.00     0.008 A 
ATOM      8  C   UNL     1       6.405  -0.541   1.043  1.00  0.00     0.054 A 
ATOM      9  C   UNL     1       7.250  -0.471  -1.554  1.00  0.00     0.051 A 
ATOM     10  C   UNL     1       7.226  -1.566   0.563  1.00  0.00     0.166 A 
ATOM     11  C   UNL     1       7.652  -1.531  -0.747  1.00  0.00     0.165 A 
ATOM     12  O   UNL     1       7.751  -2.700   1.145  1.00  0.00    -0.454 OA
ATOM     13  O   UNL     1       8.439  -2.655  -0.943  1.00  0.00    -0.454 OA
ATOM     14  C   UNL     1       8.602  -3.376   0.255  1.00  0.00     0.468 C 
ENDBRANCH   5   6
ENDBRANCH   1   5
TORSDOF 3
ENDMDL
MODEL 3
REMARK VINA RESULT:      -7.6      1.885      2.634
REMARK SMILES CC(=O)CCc1ccc2c(c1)OCO2
REMARK SMILES IDX 4 1 2 2 1 3 3 4 5 5 6 6 7 7 11 8 8 9 10 10 9 11 12 12 14 13
REMARK SMILES IDX 13 14
REMARK H PARENT
REMARK Flexibility Score: inf
ROOT
ATOM      1  C   UNL     1       5.536   1.909   1.272  1.00  0.00     0.080 C 
ENDROOT
BRANCH   1   2
ATOM      2  C   UNL     1       5.098   0.689   2.006  1.00  0.00     0.130 C 
ATOM      3  C   UNL     1       5.998  -0.484   2.178  1.00  0.00     0.087 C 
ATOM      4  O   UNL     1       3.980   0.616   2.490  1.00  0.00    -0.300 OA
ENDBRANCH   1   2
BRANCH   1   5
ATOM      5  C   UNL     1       5.408   1.725  -0.227  1.00  0.00     0.043 C 
BRANCH   5   6
ATOM      6  C   UNL     1       6.574   1.022  -0.793  1.00  0.00    -0.044 A 
ATOM      7  C   UNL     1       7.882   1.456  -0.548  1.00  0.00     0.008 A 
ATOM      8  C   UNL     1       6.383  -0.091  -1.580  1.00  0.00     0.054 A 
ATOM      9  C   UNL     1       8.936   0.755  -1.105  1.00  0.00     0.051 A 
ATOM     10  C   UNL     1       7.453  -0.796  -2.140  1.00  0.00     0.166 A 
ATOM     11  C   UNL     1       8.740  -0.369  -1.900  1.00  0.00     0.165 A 
ATOM     12  O   UNL     1       7.524  -1.914  -2.944  1.00  0.00    -0.454 OA
ATOM     13  O   UNL     1       9.583  -1.243  -2.569  1.00  0.00    -0.454 OA
ATOM     14  C   UNL     1       8.858  -2.290  -3.169  1.00  0.00     0.468 C 
ENDBRANCH   5   6
ENDBRANCH   1   5
TORSDOF 3
ENDMDL
