@<TRIPOS>MOLECULE
/home/cewinharhar/GITHUB/reincatalyze/data/processed/docking_pred/2023-May-22-1531_sub9_nm5_bs15_s42_ex16_mel10_mts1000_k50_ec02_g099_lra9e-4_lrc1e-3/4d620996829bdf69d2437cdb6940cc233521eaf3_ligand_9.pdbqt
 14 15 0 0 0
SMALL
GASTEIGER

@<TRIPOS>ATOM
      1  C          5.4190    2.9120    0.1750 C.3     1  UNL1        0.0800
      2  C          6.3500    3.7190    1.0110 C.2     1  UNL1        0.1300
      3  C          7.2200    4.7700    0.4190 C.3     1  UNL1        0.0870
      4  O          6.4270    3.5390    2.2160 O.2     1  UNL1       -0.3000
      5  C          5.1410    1.5620    0.8060 C.3     1  UNL1        0.0430
      6  C          6.0060    0.5080    0.2460 C.2     1  UNL1       -0.0440
      7  C          6.4390    0.5460   -1.0840 C.2     1  UNL1        0.0080
      8  C          6.4050   -0.5410    1.0430 C.2     1  UNL1        0.0540
      9  C          7.2500   -0.4710   -1.5540 C.2     1  UNL1        0.0510
     10  C          7.2260   -1.5660    0.5630 C.2     1  UNL1        0.1660
     11  C          7.6520   -1.5310   -0.7470 C.2     1  UNL1        0.1650
     12  O          7.7510   -2.7000    1.1450 O.2     1  UNL1       -0.4540
     13  O          8.4390   -2.6550   -0.9430 O.2     1  UNL1       -0.4540
     14  C          8.6020   -3.3760    0.2550 C.3     1  UNL1        0.4680
@<TRIPOS>BOND
     1     9     7    1
     2     9    11    2
     3     7     6    2
     4    13    11    1
     5    13    14    1
     6    11    10    1
     7     1     5    1
     8     1     2    1
     9     6     5    1
    10     6     8    1
    11    14    12    1
    12     3     2    1
    13    10     8    2
    14    10    12    1
    15     2     4    2
