@<TRIPOS>MOLECULE
/home/cewinharhar/GITHUB/reincatalyze/data/processed/docking_pred/2023-May-22-1531_sub9_nm5_bs15_s42_ex16_mel10_mts1000_k50_ec02_g099_lra9e-4_lrc1e-3/4d620996829bdf69d2437cdb6940cc233521eaf3_ligand_9.pdbqt
 14 15 0 0 0
SMALL
GASTEIGER

@<TRIPOS>ATOM
      1  C          5.4360    2.9230    0.0720 C.3     1  UNL1        0.0800
      2  C          6.2850    3.8030    0.9240 C.2     1  UNL1        0.1300
      3  C          7.2460    4.7720    0.3310 C.3     1  UNL1        0.0870
      4  O          6.2150    3.7530    2.1410 O.2     1  UNL1       -0.3000
      5  C          5.1310    1.6120    0.7690 C.3     1  UNL1        0.0430
      6  C          5.9740    0.5150    0.2620 C.2     1  UNL1       -0.0440
      7  C          6.2990   -0.5880    1.0600 C.2     1  UNL1        0.0080
      8  C          6.4560    0.5640   -1.0260 C.2     1  UNL1        0.0540
      9  C          7.0930   -1.5890    0.5300 C.2     1  UNL1        0.0510
     10  C          7.2580   -0.4500   -1.5570 C.2     1  UNL1        0.1660
     11  C          7.5800   -1.5350   -0.7730 C.2     1  UNL1        0.1650
     12  O          7.8530   -0.6300   -2.7880 O.2     1  UNL1       -0.4540
     13  O          8.3730   -2.3680   -1.5470 O.2     1  UNL1       -0.4540
     14  C          8.4960   -1.8770   -2.8600 C.3     1  UNL1        0.4680
@<TRIPOS>BOND
     1    14    12    1
     2    14    13    1
     3    12    10    1
     4    10     8    1
     5    10    11    2
     6    13    11    1
     7     8     6    2
     8    11     9    1
     9     1     5    1
    10     1     2    1
    11     6     5    1
    12     6     7    1
    13     3     2    1
    14     9     7    2
    15     2     4    2
