MODEL 1
REMARK VINA RESULT:      -7.9      0.000      0.000
REMARK SMILES CC(=O)CCc1ccc2c(c1)OCO2
REMARK SMILES IDX 4 1 2 2 1 3 3 4 5 5 6 6 7 7 11 8 8 9 10 10 9 11 12 12 14 13
REMARK SMILES IDX 13 14
REMARK H PARENT
REMARK Flexibility Score: inf
ROOT
ATOM      1  C   UNL     1       5.457   2.914   0.082  1.00  0.00     0.080 C 
ENDROOT
BRANCH   1   2
ATOM      2  C   UNL     1       6.265   3.800   0.965  1.00  0.00     0.130 C 
ATOM      3  C   UNL     1       7.242   4.775   0.410  1.00  0.00     0.087 C 
ATOM      4  O   UNL     1       6.147   3.751   2.179  1.00  0.00    -0.300 OA
ENDBRANCH   1   2
BRANCH   1   5
ATOM      5  C   UNL     1       5.146   1.595   0.761  1.00  0.00     0.043 C 
BRANCH   5   6
ATOM      6  C   UNL     1       5.989   0.502   0.245  1.00  0.00    -0.044 A 
ATOM      7  C   UNL     1       6.327  -0.601   1.038  1.00  0.00     0.008 A 
ATOM      8  C   UNL     1       6.459   0.555  -1.048  1.00  0.00     0.054 A 
ATOM      9  C   UNL     1       7.121  -1.597   0.499  1.00  0.00     0.051 A 
ATOM     10  C   UNL     1       7.261  -0.455  -1.588  1.00  0.00     0.166 A 
ATOM     11  C   UNL     1       7.595  -1.539  -0.808  1.00  0.00     0.165 A 
ATOM     12  O   UNL     1       7.844  -0.631  -2.824  1.00  0.00    -0.454 OA
ATOM     13  O   UNL     1       8.384  -2.368  -1.590  1.00  0.00    -0.454 OA
ATOM     14  C   UNL     1       8.492  -1.875  -2.904  1.00  0.00     0.468 C 
ENDBRANCH   5   6
ENDBRANCH   1   5
TORSDOF 3
ENDMDL
MODEL 2
REMARK VINA RESULT:      -7.7      1.873      2.613
REMARK SMILES CC(=O)CCc1ccc2c(c1)OCO2
REMARK SMILES IDX 4 1 2 2 1 3 3 4 5 5 6 6 7 7 11 8 8 9 10 10 9 11 12 12 14 13
REMARK SMILES IDX 13 14
REMARK H PARENT
REMARK Flexibility Score: inf
ROOT
ATOM      1  C   UNL     1       5.545   1.914   1.270  1.00  0.00     0.080 C 
ENDROOT
BRANCH   1   2
ATOM      2  C   UNL     1       5.107   0.695   2.006  1.00  0.00     0.130 C 
ATOM      3  C   UNL     1       6.010  -0.473   2.188  1.00  0.00     0.087 C 
ATOM      4  O   UNL     1       3.986   0.619   2.483  1.00  0.00    -0.300 OA
ENDBRANCH   1   2
BRANCH   1   5
ATOM      5  C   UNL     1       5.416   1.729  -0.229  1.00  0.00     0.043 C 
BRANCH   5   6
ATOM      6  C   UNL     1       6.580   1.025  -0.795  1.00  0.00    -0.044 A 
ATOM      7  C   UNL     1       7.888   1.457  -0.550  1.00  0.00     0.008 A 
ATOM      8  C   UNL     1       6.388  -0.088  -1.582  1.00  0.00     0.054 A 
ATOM      9  C   UNL     1       8.942   0.756  -1.107  1.00  0.00     0.051 A 
ATOM     10  C   UNL     1       7.457  -0.793  -2.143  1.00  0.00     0.166 A 
ATOM     11  C   UNL     1       8.744  -0.368  -1.903  1.00  0.00     0.165 A 
ATOM     12  O   UNL     1       7.526  -1.910  -2.948  1.00  0.00    -0.454 OA
ATOM     13  O   UNL     1       9.587  -1.242  -2.573  1.00  0.00    -0.454 OA
ATOM     14  C   UNL     1       8.860  -2.288  -3.173  1.00  0.00     0.468 C 
ENDBRANCH   5   6
ENDBRANCH   1   5
TORSDOF 3
ENDMDL
MODEL 3
REMARK VINA RESULT:      -7.5      1.948      3.007
REMARK SMILES CC(=O)CCc1ccc2c(c1)OCO2
REMARK SMILES IDX 4 1 2 2 1 3 3 4 5 5 6 6 7 7 11 8 8 9 10 10 9 11 12 12 14 13
REMARK SMILES IDX 13 14
REMARK H PARENT
REMARK Flexibility Score: inf
ROOT
ATOM      1  C   UNL     1       5.734   1.321  -0.322  1.00  0.00     0.080 C 
ENDROOT
BRANCH   1   2
ATOM      2  C   UNL     1       5.157   1.290   1.051  1.00  0.00     0.130 C 
ATOM      3  C   UNL     1       5.352   0.125   1.954  1.00  0.00     0.087 C 
ATOM      4  O   UNL     1       4.501   2.228   1.476  1.00  0.00    -0.300 OA
ENDBRANCH   1   2
BRANCH   1   5
ATOM      5  C   UNL     1       7.234   1.100  -0.293  1.00  0.00     0.043 C 
BRANCH   5   6
ATOM      6  C   UNL     1       7.608  -0.193  -0.894  1.00  0.00    -0.044 A 
ATOM      7  C   UNL     1       7.684  -0.361  -2.282  1.00  0.00     0.008 A 
ATOM      8  C   UNL     1       7.894  -1.266  -0.082  1.00  0.00     0.054 A 
ATOM      9  C   UNL     1       8.041  -1.597  -2.789  1.00  0.00     0.051 A 
ATOM     10  C   UNL     1       8.255  -2.513  -0.599  1.00  0.00     0.166 A 
ATOM     11  C   UNL     1       8.328  -2.680  -1.964  1.00  0.00     0.165 A 
ATOM     12  O   UNL     1       8.581  -3.716  -0.010  1.00  0.00    -0.454 OA
ATOM     13  O   UNL     1       8.703  -3.996  -2.188  1.00  0.00    -0.454 OA
ATOM     14  C   UNL     1       8.962  -4.663  -0.975  1.00  0.00     0.468 C 
ENDBRANCH   5   6
ENDBRANCH   1   5
TORSDOF 3
ENDMDL
