@<TRIPOS>MOLECULE
/home/cewinharhar/GITHUB/reincatalyze/data/processed/docking_pred/2023-May-22-1531_sub9_nm5_bs15_s42_ex16_mel10_mts1000_k50_ec02_g099_lra9e-4_lrc1e-3/4dfe2a4ebf2cd2c58b23ebebd9c83ff91bb12173_ligand_9.pdbqt
 14 15 0 0 0
SMALL
GASTEIGER

@<TRIPOS>ATOM
      1  C          5.4570    2.9140    0.0820 C.3     1  UNL1        0.0800
      2  C          6.2650    3.8000    0.9650 C.2     1  UNL1        0.1300
      3  C          7.2420    4.7750    0.4100 C.3     1  UNL1        0.0870
      4  O          6.1470    3.7510    2.1790 O.2     1  UNL1       -0.3000
      5  C          5.1460    1.5950    0.7610 C.3     1  UNL1        0.0430
      6  C          5.9890    0.5020    0.2450 C.2     1  UNL1       -0.0440
      7  C          6.3270   -0.6010    1.0380 C.2     1  UNL1        0.0080
      8  C          6.4590    0.5550   -1.0480 C.2     1  UNL1        0.0540
      9  C          7.1210   -1.5970    0.4990 C.2     1  UNL1        0.0510
     10  C          7.2610   -0.4550   -1.5880 C.2     1  UNL1        0.1660
     11  C          7.5950   -1.5390   -0.8080 C.2     1  UNL1        0.1650
     12  O          7.8440   -0.6310   -2.8240 O.2     1  UNL1       -0.4540
     13  O          8.3840   -2.3680   -1.5900 O.2     1  UNL1       -0.4540
     14  C          8.4920   -1.8750   -2.9040 C.3     1  UNL1        0.4680
@<TRIPOS>BOND
     1    14    12    1
     2    14    13    1
     3    12    10    1
     4    13    11    1
     5    10     8    1
     6    10    11    2
     7     8     6    2
     8    11     9    1
     9     1     5    1
    10     1     2    1
    11     6     5    1
    12     6     7    1
    13     3     2    1
    14     9     7    2
    15     2     4    2
