@<TRIPOS>MOLECULE
/home/cewinharhar/GITHUB/reincatalyze/data/processed/docking_pred/2023-May-22-1531_sub9_nm5_bs15_s42_ex16_mel10_mts1000_k50_ec02_g099_lra9e-4_lrc1e-3/4fd116288ae20ad94bf91d23a53b6bc9c92e4cae_ligand_9.pdbqt
 14 15 0 0 0
SMALL
GASTEIGER

@<TRIPOS>ATOM
      1  C          5.4470    2.9090    0.2260 C.3     1  UNL1        0.0800
      2  C          6.2540    3.8560    1.0450 C.2     1  UNL1        0.1300
      3  C          7.2460    4.7750    0.4260 C.3     1  UNL1        0.0870
      4  O          6.1220    3.9040    2.2580 O.2     1  UNL1       -0.3000
      5  C          5.2280    1.5990    0.9560 C.3     1  UNL1        0.0430
      6  C          6.0440    0.5120    0.3860 C.2     1  UNL1       -0.0440
      7  C          6.3880   -0.6180    1.1370 C.2     1  UNL1        0.0080
      8  C          6.4830    0.5990   -0.9150 C.2     1  UNL1        0.0540
      9  C          7.1560   -1.6060    0.5500 C.2     1  UNL1        0.0510
     10  C          7.2590   -0.4030   -1.5050 C.2     1  UNL1        0.1660
     11  C          7.5990   -1.5150   -0.7660 C.2     1  UNL1        0.1650
     12  O          7.8110   -0.5490   -2.7610 O.2     1  UNL1       -0.4540
     13  O          8.3590   -2.3280   -1.5920 O.2     1  UNL1       -0.4540
     14  C          8.4410   -1.7970   -2.8930 C.3     1  UNL1        0.4680
@<TRIPOS>BOND
     1    14    12    1
     2    14    13    1
     3    12    10    1
     4    13    11    1
     5    10     8    1
     6    10    11    2
     7     8     6    2
     8    11     9    1
     9     1     5    1
    10     1     2    1
    11     6     5    1
    12     6     7    1
    13     3     2    1
    14     9     7    2
    15     2     4    2
