@<TRIPOS>MOLECULE
/home/cewinharhar/GITHUB/reincatalyze/data/processed/docking_pred/2023-May-22-1531_sub9_nm5_bs15_s42_ex16_mel10_mts1000_k50_ec02_g099_lra9e-4_lrc1e-3/4fd116288ae20ad94bf91d23a53b6bc9c92e4cae_ligand_9.pdbqt
 14 15 0 0 0
SMALL
GASTEIGER

@<TRIPOS>ATOM
      1  C          5.5490    1.9270    1.2610 C.3     1  UNL1        0.0800
      2  C          5.1220    0.7080    2.0040 C.2     1  UNL1        0.1300
      3  C          6.0340   -0.4520    2.1910 C.3     1  UNL1        0.0870
      4  O          4.0020    0.6270    2.4820 O.2     1  UNL1       -0.3000
      5  C          5.4190    1.7330   -0.2370 C.3     1  UNL1        0.0430
      6  C          6.5840    1.0280   -0.8000 C.2     1  UNL1       -0.0440
      7  C          7.8930    1.4530   -0.5420 C.2     1  UNL1        0.0080
      8  C          6.3930   -0.0780   -1.5970 C.2     1  UNL1        0.0540
      9  C          8.9480    0.7510   -1.0970 C.2     1  UNL1        0.0510
     10  C          7.4630   -0.7840   -2.1550 C.2     1  UNL1        0.1660
     11  C          8.7510   -0.3660   -1.9030 C.2     1  UNL1        0.1650
     12  O          7.5330   -1.8960   -2.9670 O.2     1  UNL1       -0.4540
     13  O          9.5940   -1.2390   -2.5730 O.2     1  UNL1       -0.4540
     14  C          8.8670   -2.2770   -3.1860 C.3     1  UNL1        0.4680
@<TRIPOS>BOND
     1    14    12    1
     2    14    13    1
     3    12    10    1
     4    13    11    1
     5    10    11    2
     6    10     8    1
     7    11     9    1
     8     8     6    2
     9     9     7    2
    10     6     7    1
    11     6     5    1
    12     5     1    1
    13     1     2    1
    14     2     3    1
    15     2     4    2
