MODEL 1
REMARK VINA RESULT:      -7.8      0.000      0.000
REMARK SMILES CC(=O)CCc1ccc2c(c1)OCO2
REMARK SMILES IDX 4 1 2 2 1 3 3 4 5 5 6 6 7 7 11 8 8 9 10 10 9 11 12 12 14 13
REMARK SMILES IDX 13 14
REMARK H PARENT
REMARK Flexibility Score: inf
ROOT
ATOM      1  C   UNL     1       5.447   2.909   0.226  1.00  0.00     0.080 C 
ENDROOT
BRANCH   1   2
ATOM      2  C   UNL     1       6.254   3.856   1.045  1.00  0.00     0.130 C 
ATOM      3  C   UNL     1       7.246   4.775   0.426  1.00  0.00     0.087 C 
ATOM      4  O   UNL     1       6.122   3.904   2.258  1.00  0.00    -0.300 OA
ENDBRANCH   1   2
BRANCH   1   5
ATOM      5  C   UNL     1       5.228   1.599   0.956  1.00  0.00     0.043 C 
BRANCH   5   6
ATOM      6  C   UNL     1       6.044   0.512   0.386  1.00  0.00    -0.044 A 
ATOM      7  C   UNL     1       6.388  -0.618   1.137  1.00  0.00     0.008 A 
ATOM      8  C   UNL     1       6.483   0.599  -0.915  1.00  0.00     0.054 A 
ATOM      9  C   UNL     1       7.156  -1.606   0.550  1.00  0.00     0.051 A 
ATOM     10  C   UNL     1       7.259  -0.403  -1.505  1.00  0.00     0.166 A 
ATOM     11  C   UNL     1       7.599  -1.515  -0.766  1.00  0.00     0.165 A 
ATOM     12  O   UNL     1       7.811  -0.549  -2.761  1.00  0.00    -0.454 OA
ATOM     13  O   UNL     1       8.359  -2.328  -1.592  1.00  0.00    -0.454 OA
ATOM     14  C   UNL     1       8.441  -1.797  -2.893  1.00  0.00     0.468 C 
ENDBRANCH   5   6
ENDBRANCH   1   5
TORSDOF 3
ENDMDL
MODEL 2
REMARK VINA RESULT:      -7.7      1.893      2.635
REMARK SMILES CC(=O)CCc1ccc2c(c1)OCO2
REMARK SMILES IDX 4 1 2 2 1 3 3 4 5 5 6 6 7 7 11 8 8 9 10 10 9 11 12 12 14 13
REMARK SMILES IDX 13 14
REMARK H PARENT
REMARK Flexibility Score: inf
ROOT
ATOM      1  C   UNL     1       5.549   1.927   1.261  1.00  0.00     0.080 C 
ENDROOT
BRANCH   1   2
ATOM      2  C   UNL     1       5.122   0.708   2.004  1.00  0.00     0.130 C 
ATOM      3  C   UNL     1       6.034  -0.452   2.191  1.00  0.00     0.087 C 
ATOM      4  O   UNL     1       4.002   0.627   2.482  1.00  0.00    -0.300 OA
ENDBRANCH   1   2
BRANCH   1   5
ATOM      5  C   UNL     1       5.419   1.733  -0.237  1.00  0.00     0.043 C 
BRANCH   5   6
ATOM      6  C   UNL     1       6.584   1.028  -0.800  1.00  0.00    -0.044 A 
ATOM      7  C   UNL     1       7.893   1.453  -0.542  1.00  0.00     0.008 A 
ATOM      8  C   UNL     1       6.393  -0.078  -1.597  1.00  0.00     0.054 A 
ATOM      9  C   UNL     1       8.948   0.751  -1.097  1.00  0.00     0.051 A 
ATOM     10  C   UNL     1       7.463  -0.784  -2.155  1.00  0.00     0.166 A 
ATOM     11  C   UNL     1       8.751  -0.366  -1.903  1.00  0.00     0.165 A 
ATOM     12  O   UNL     1       7.533  -1.896  -2.967  1.00  0.00    -0.454 OA
ATOM     13  O   UNL     1       9.594  -1.239  -2.573  1.00  0.00    -0.454 OA
ATOM     14  C   UNL     1       8.867  -2.277  -3.186  1.00  0.00     0.468 C 
ENDBRANCH   5   6
ENDBRANCH   1   5
TORSDOF 3
ENDMDL
MODEL 3
REMARK VINA RESULT:      -7.5      1.992      3.042
REMARK SMILES CC(=O)CCc1ccc2c(c1)OCO2
REMARK SMILES IDX 4 1 2 2 1 3 3 4 5 5 6 6 7 7 11 8 8 9 10 10 9 11 12 12 14 13
REMARK SMILES IDX 13 14
REMARK H PARENT
REMARK Flexibility Score: inf
ROOT
ATOM      1  C   UNL     1       5.763   1.358  -0.364  1.00  0.00     0.080 C 
ENDROOT
BRANCH   1   2
ATOM      2  C   UNL     1       5.113   1.313   0.975  1.00  0.00     0.130 C 
ATOM      3  C   UNL     1       5.377   0.208   1.935  1.00  0.00     0.087 C 
ATOM      4  O   UNL     1       4.338   2.189   1.325  1.00  0.00    -0.300 OA
ENDBRANCH   1   2
BRANCH   1   5
ATOM      5  C   UNL     1       7.253   1.095  -0.261  1.00  0.00     0.043 C 
BRANCH   5   6
ATOM      6  C   UNL     1       7.622  -0.198  -0.864  1.00  0.00    -0.044 A 
ATOM      7  C   UNL     1       7.694  -0.366  -2.252  1.00  0.00     0.008 A 
ATOM      8  C   UNL     1       7.907  -1.272  -0.053  1.00  0.00     0.054 A 
ATOM      9  C   UNL     1       8.047  -1.602  -2.761  1.00  0.00     0.051 A 
ATOM     10  C   UNL     1       8.264  -2.520  -0.572  1.00  0.00     0.166 A 
ATOM     11  C   UNL     1       8.334  -2.687  -1.937  1.00  0.00     0.165 A 
ATOM     12  O   UNL     1       8.588  -3.725   0.015  1.00  0.00    -0.454 OA
ATOM     13  O   UNL     1       8.705  -4.003  -2.162  1.00  0.00    -0.454 OA
ATOM     14  C   UNL     1       8.965  -4.672  -0.951  1.00  0.00     0.468 C 
ENDBRANCH   5   6
ENDBRANCH   1   5
TORSDOF 3
ENDMDL
