@<TRIPOS>MOLECULE
/home/cewinharhar/GITHUB/reincatalyze/data/processed/docking_pred/2023-May-22-1531_sub9_nm5_bs15_s42_ex16_mel10_mts1000_k50_ec02_g099_lra9e-4_lrc1e-3/4fd116288ae20ad94bf91d23a53b6bc9c92e4cae_ligand_9.pdbqt
 14 15 0 0 0
SMALL
GASTEIGER

@<TRIPOS>ATOM
      1  C          5.7630    1.3580   -0.3640 C.3     1  UNL1        0.0800
      2  C          5.1130    1.3130    0.9750 C.2     1  UNL1        0.1300
      3  C          5.3770    0.2080    1.9350 C.3     1  UNL1        0.0870
      4  O          4.3380    2.1890    1.3250 O.2     1  UNL1       -0.3000
      5  C          7.2530    1.0950   -0.2610 C.3     1  UNL1        0.0430
      6  C          7.6220   -0.1980   -0.8640 C.2     1  UNL1       -0.0440
      7  C          7.6940   -0.3660   -2.2520 C.2     1  UNL1        0.0080
      8  C          7.9070   -1.2720   -0.0530 C.2     1  UNL1        0.0540
      9  C          8.0470   -1.6020   -2.7610 C.2     1  UNL1        0.0510
     10  C          8.2640   -2.5200   -0.5720 C.2     1  UNL1        0.1660
     11  C          8.3340   -2.6870   -1.9370 C.2     1  UNL1        0.1650
     12  O          8.5880   -3.7250    0.0150 O.2     1  UNL1       -0.4540
     13  O          8.7050   -4.0030   -2.1620 O.2     1  UNL1       -0.4540
     14  C          8.9650   -4.6720   -0.9510 C.3     1  UNL1        0.4680
@<TRIPOS>BOND
     1     9     7    1
     2     9    11    2
     3     7     6    2
     4    13    11    1
     5    13    14    1
     6    11    10    1
     7    14    12    1
     8     6     5    1
     9     6     8    1
    10    10     8    2
    11    10    12    1
    12     1     5    1
    13     1     2    1
    14     2     4    2
    15     2     3    1
