@<TRIPOS>MOLECULE
/home/cewinharhar/GITHUB/reincatalyze/data/processed/docking_pred/2023-May-22-1531_sub9_nm5_bs15_s42_ex16_mel10_mts1000_k50_ec02_g099_lra9e-4_lrc1e-3/51335195432d6c3c52ef841bfe8bb9323d602809_ligand_9.pdbqt
 14 15 0 0 0
SMALL
GASTEIGER

@<TRIPOS>ATOM
      1  C          5.5100    1.9280    1.2550 C.3     1  UNL1        0.0800
      2  C          5.0720    0.7120    1.9970 C.2     1  UNL1        0.1300
      3  C          5.9670   -0.4640    2.1660 C.3     1  UNL1        0.0870
      4  O          3.9580    0.6470    2.4900 O.2     1  UNL1       -0.3000
      5  C          5.3870    1.7320   -0.2430 C.3     1  UNL1        0.0430
      6  C          6.5570    1.0300   -0.8000 C.2     1  UNL1       -0.0440
      7  C          7.8630    1.4620   -0.5430 C.2     1  UNL1        0.0080
      8  C          6.3730   -0.0820   -1.5910 C.2     1  UNL1        0.0540
      9  C          8.9220    0.7630   -1.0910 C.2     1  UNL1        0.0510
     10  C          7.4470   -0.7860   -2.1430 C.2     1  UNL1        0.1660
     11  C          8.7320   -0.3600   -1.8910 C.2     1  UNL1        0.1650
     12  O          7.5240   -1.9020   -2.9490 O.2     1  UNL1       -0.4540
     13  O          9.5810   -1.2330   -2.5550 O.2     1  UNL1       -0.4540
     14  C          8.8600   -2.2780   -3.1630 C.3     1  UNL1        0.4680
@<TRIPOS>BOND
     1    14    12    1
     2    14    13    1
     3    12    10    1
     4    13    11    1
     5    10    11    2
     6    10     8    1
     7    11     9    1
     8     8     6    2
     9     9     7    2
    10     6     7    1
    11     6     5    1
    12     5     1    1
    13     1     2    1
    14     2     3    1
    15     2     4    2
