@<TRIPOS>MOLECULE
/home/cewinharhar/GITHUB/reincatalyze/data/processed/docking_pred/2023-May-22-1531_sub9_nm5_bs15_s42_ex16_mel10_mts1000_k50_ec02_g099_lra9e-4_lrc1e-3/51335195432d6c3c52ef841bfe8bb9323d602809_ligand_9.pdbqt
 14 15 0 0 0
SMALL
GASTEIGER

@<TRIPOS>ATOM
      1  C          5.7360    1.3400   -0.3320 C.3     1  UNL1        0.0800
      2  C          5.1560    1.3170    1.0400 C.2     1  UNL1        0.1300
      3  C          5.3640    0.1650    1.9570 C.3     1  UNL1        0.0870
      4  O          4.4870    2.2510    1.4520 O.2     1  UNL1       -0.3000
      5  C          7.2360    1.1190   -0.2990 C.3     1  UNL1        0.0430
      6  C          7.6100   -0.1770   -0.8920 C.2     1  UNL1       -0.0440
      7  C          7.6930   -0.3520   -2.2780 C.2     1  UNL1        0.0080
      8  C          7.8900   -1.2470   -0.0730 C.2     1  UNL1        0.0540
      9  C          8.0510   -1.5910   -2.7780 C.2     1  UNL1        0.0510
     10  C          8.2520   -2.4970   -0.5830 C.2     1  UNL1        0.1660
     11  C          8.3330   -2.6710   -1.9470 C.2     1  UNL1        0.1650
     12  O          8.5730   -3.6980    0.0130 O.2     1  UNL1       -0.4540
     13  O          8.7060   -3.9880   -2.1620 O.2     1  UNL1       -0.4540
     14  C          8.9570   -4.6500   -0.9460 C.3     1  UNL1        0.4680
@<TRIPOS>BOND
     1     9     7    1
     2     9    11    2
     3     7     6    2
     4    13    11    1
     5    13    14    1
     6    11    10    1
     7    14    12    1
     8     6     5    1
     9     6     8    1
    10    10     8    2
    11    10    12    1
    12     1     5    1
    13     1     2    1
    14     2     4    2
    15     2     3    1
