MODEL 1
REMARK VINA RESULT:      -7.9      0.000      0.000
REMARK SMILES CC(=O)CCc1ccc2c(c1)OCO2
REMARK SMILES IDX 4 1 2 2 1 3 3 4 5 5 6 6 7 7 11 8 8 9 10 10 9 11 12 12 14 13
REMARK SMILES IDX 13 14
REMARK H PARENT
REMARK Flexibility Score: inf
ROOT
ATOM      1  C   UNL     1       5.485   2.892   0.120  1.00  0.00     0.080 C 
ENDROOT
BRANCH   1   2
ATOM      2  C   UNL     1       6.282   3.815   0.976  1.00  0.00     0.130 C 
ATOM      3  C   UNL     1       7.257   4.775   0.392  1.00  0.00     0.087 C 
ATOM      4  O   UNL     1       6.157   3.808   2.190  1.00  0.00    -0.300 OA
ENDBRANCH   1   2
BRANCH   1   5
ATOM      5  C   UNL     1       5.210   1.582   0.831  1.00  0.00     0.043 C 
BRANCH   5   6
ATOM      6  C   UNL     1       6.043   0.487   0.301  1.00  0.00    -0.044 A 
ATOM      7  C   UNL     1       6.429  -0.594   1.101  1.00  0.00     0.008 A 
ATOM      8  C   UNL     1       6.455   0.518  -1.012  1.00  0.00     0.054 A 
ATOM      9  C   UNL     1       7.210  -1.593   0.549  1.00  0.00     0.051 A 
ATOM     10  C   UNL     1       7.244  -0.494  -1.566  1.00  0.00     0.166 A 
ATOM     11  C   UNL     1       7.625  -1.558  -0.779  1.00  0.00     0.165 A 
ATOM     12  O   UNL     1       7.775  -0.690  -2.823  1.00  0.00    -0.454 OA
ATOM     13  O   UNL     1       8.389  -2.395  -1.577  1.00  0.00    -0.454 OA
ATOM     14  C   UNL     1       8.434  -1.928  -2.905  1.00  0.00     0.468 C 
ENDBRANCH   5   6
ENDBRANCH   1   5
TORSDOF 3
ENDMDL
MODEL 2
REMARK VINA RESULT:      -7.7      1.881      2.610
REMARK SMILES CC(=O)CCc1ccc2c(c1)OCO2
REMARK SMILES IDX 4 1 2 2 1 3 3 4 5 5 6 6 7 7 11 8 8 9 10 10 9 11 12 12 14 13
REMARK SMILES IDX 13 14
REMARK H PARENT
REMARK Flexibility Score: inf
ROOT
ATOM      1  C   UNL     1       5.510   1.928   1.255  1.00  0.00     0.080 C 
ENDROOT
BRANCH   1   2
ATOM      2  C   UNL     1       5.072   0.712   1.997  1.00  0.00     0.130 C 
ATOM      3  C   UNL     1       5.967  -0.464   2.166  1.00  0.00     0.087 C 
ATOM      4  O   UNL     1       3.958   0.647   2.490  1.00  0.00    -0.300 OA
ENDBRANCH   1   2
BRANCH   1   5
ATOM      5  C   UNL     1       5.387   1.732  -0.243  1.00  0.00     0.043 C 
BRANCH   5   6
ATOM      6  C   UNL     1       6.557   1.030  -0.800  1.00  0.00    -0.044 A 
ATOM      7  C   UNL     1       7.863   1.462  -0.543  1.00  0.00     0.008 A 
ATOM      8  C   UNL     1       6.373  -0.082  -1.591  1.00  0.00     0.054 A 
ATOM      9  C   UNL     1       8.922   0.763  -1.091  1.00  0.00     0.051 A 
ATOM     10  C   UNL     1       7.447  -0.786  -2.143  1.00  0.00     0.166 A 
ATOM     11  C   UNL     1       8.732  -0.360  -1.891  1.00  0.00     0.165 A 
ATOM     12  O   UNL     1       7.524  -1.902  -2.949  1.00  0.00    -0.454 OA
ATOM     13  O   UNL     1       9.581  -1.233  -2.555  1.00  0.00    -0.454 OA
ATOM     14  C   UNL     1       8.860  -2.278  -3.163  1.00  0.00     0.468 C 
ENDBRANCH   5   6
ENDBRANCH   1   5
TORSDOF 3
ENDMDL
MODEL 3
REMARK VINA RESULT:      -7.5      1.942      2.993
REMARK SMILES CC(=O)CCc1ccc2c(c1)OCO2
REMARK SMILES IDX 4 1 2 2 1 3 3 4 5 5 6 6 7 7 11 8 8 9 10 10 9 11 12 12 14 13
REMARK SMILES IDX 13 14
REMARK H PARENT
REMARK Flexibility Score: inf
ROOT
ATOM      1  C   UNL     1       5.736   1.340  -0.332  1.00  0.00     0.080 C 
ENDROOT
BRANCH   1   2
ATOM      2  C   UNL     1       5.156   1.317   1.040  1.00  0.00     0.130 C 
ATOM      3  C   UNL     1       5.364   0.165   1.957  1.00  0.00     0.087 C 
ATOM      4  O   UNL     1       4.487   2.251   1.452  1.00  0.00    -0.300 OA
ENDBRANCH   1   2
BRANCH   1   5
ATOM      5  C   UNL     1       7.236   1.119  -0.299  1.00  0.00     0.043 C 
BRANCH   5   6
ATOM      6  C   UNL     1       7.610  -0.177  -0.892  1.00  0.00    -0.044 A 
ATOM      7  C   UNL     1       7.693  -0.352  -2.278  1.00  0.00     0.008 A 
ATOM      8  C   UNL     1       7.890  -1.247  -0.073  1.00  0.00     0.054 A 
ATOM      9  C   UNL     1       8.051  -1.591  -2.778  1.00  0.00     0.051 A 
ATOM     10  C   UNL     1       8.252  -2.497  -0.583  1.00  0.00     0.166 A 
ATOM     11  C   UNL     1       8.333  -2.671  -1.947  1.00  0.00     0.165 A 
ATOM     12  O   UNL     1       8.573  -3.698   0.013  1.00  0.00    -0.454 OA
ATOM     13  O   UNL     1       8.706  -3.988  -2.162  1.00  0.00    -0.454 OA
ATOM     14  C   UNL     1       8.957  -4.650  -0.946  1.00  0.00     0.468 C 
ENDBRANCH   5   6
ENDBRANCH   1   5
TORSDOF 3
ENDMDL
