@<TRIPOS>MOLECULE
/home/cewinharhar/GITHUB/reincatalyze/data/processed/docking_pred/2023-May-22-1531_sub9_nm5_bs15_s42_ex16_mel10_mts1000_k50_ec02_g099_lra9e-4_lrc1e-3/51335195432d6c3c52ef841bfe8bb9323d602809_ligand_9.pdbqt
 14 15 0 0 0
SMALL
GASTEIGER

@<TRIPOS>ATOM
      1  C          5.4850    2.8920    0.1200 C.3     1  UNL1        0.0800
      2  C          6.2820    3.8150    0.9760 C.2     1  UNL1        0.1300
      3  C          7.2570    4.7750    0.3920 C.3     1  UNL1        0.0870
      4  O          6.1570    3.8080    2.1900 O.2     1  UNL1       -0.3000
      5  C          5.2100    1.5820    0.8310 C.3     1  UNL1        0.0430
      6  C          6.0430    0.4870    0.3010 C.2     1  UNL1       -0.0440
      7  C          6.4290   -0.5940    1.1010 C.2     1  UNL1        0.0080
      8  C          6.4550    0.5180   -1.0120 C.2     1  UNL1        0.0540
      9  C          7.2100   -1.5930    0.5490 C.2     1  UNL1        0.0510
     10  C          7.2440   -0.4940   -1.5660 C.2     1  UNL1        0.1660
     11  C          7.6250   -1.5580   -0.7790 C.2     1  UNL1        0.1650
     12  O          7.7750   -0.6900   -2.8230 O.2     1  UNL1       -0.4540
     13  O          8.3890   -2.3950   -1.5770 O.2     1  UNL1       -0.4540
     14  C          8.4340   -1.9280   -2.9050 C.3     1  UNL1        0.4680
@<TRIPOS>BOND
     1    14    12    1
     2    14    13    1
     3    12    10    1
     4    13    11    1
     5    10     8    1
     6    10    11    2
     7     8     6    2
     8    11     9    1
     9     1     5    1
    10     1     2    1
    11     6     5    1
    12     6     7    1
    13     3     2    1
    14     9     7    2
    15     2     4    2
