@<TRIPOS>MOLECULE
/home/cewinharhar/GITHUB/reincatalyze/data/processed/docking_pred/2023-May-22-1531_sub9_nm5_bs15_s42_ex16_mel10_mts1000_k50_ec02_g099_lra9e-4_lrc1e-3/51cadb519a72bd0ce332fe372f57097c9ba117cb_ligand_9.pdbqt
 14 15 0 0 0
SMALL
GASTEIGER

@<TRIPOS>ATOM
      1  C          5.7340    1.3240   -0.3510 C.3     1  UNL1        0.0800
      2  C          5.1320    1.3000    1.0120 C.2     1  UNL1        0.1300
      3  C          5.3310    0.1490    1.9330 C.3     1  UNL1        0.0870
      4  O          4.4530    2.2310    1.4130 O.2     1  UNL1       -0.3000
      5  C          7.2320    1.0990   -0.2950 C.3     1  UNL1        0.0430
      6  C          7.6140   -0.1930   -0.8920 C.2     1  UNL1       -0.0440
      7  C          7.7160   -0.3580   -2.2780 C.2     1  UNL1        0.0080
      8  C          7.8810   -1.2690   -0.0760 C.2     1  UNL1        0.0540
      9  C          8.0800   -1.5940   -2.7810 C.2     1  UNL1        0.0510
     10  C          8.2490   -2.5160   -0.5900 C.2     1  UNL1        0.1660
     11  C          8.3480   -2.6800   -1.9540 C.2     1  UNL1        0.1650
     12  O          8.5600   -3.7220    0.0020 O.2     1  UNL1       -0.4540
     13  O          8.7240   -3.9960   -2.1730 O.2     1  UNL1       -0.4540
     14  C          8.9570   -4.6670   -0.9570 C.3     1  UNL1        0.4680
@<TRIPOS>BOND
     1     9     7    1
     2     9    11    2
     3     7     6    2
     4    13    11    1
     5    13    14    1
     6    11    10    1
     7    14    12    1
     8     6     5    1
     9     6     8    1
    10    10     8    2
    11    10    12    1
    12     1     5    1
    13     1     2    1
    14     2     4    2
    15     2     3    1
