MODEL 1
REMARK VINA RESULT:      -7.8      0.000      0.000
REMARK SMILES CC(=O)CCc1ccc2c(c1)OCO2
REMARK SMILES IDX 4 1 2 2 1 3 3 4 5 5 6 6 7 7 11 8 8 9 10 10 9 11 12 12 14 13
REMARK SMILES IDX 13 14
REMARK H PARENT
REMARK Flexibility Score: inf
ROOT
ATOM      1  C   UNL     1       5.532   2.836   0.205  1.00  0.00     0.080 C 
ENDROOT
BRANCH   1   2
ATOM      2  C   UNL     1       6.279   3.816   1.042  1.00  0.00     0.130 C 
ATOM      3  C   UNL     1       7.247   4.775   0.446  1.00  0.00     0.087 C 
ATOM      4  O   UNL     1       6.117   3.859   2.251  1.00  0.00    -0.300 OA
ENDBRANCH   1   2
BRANCH   1   5
ATOM      5  C   UNL     1       5.312   1.533   0.946  1.00  0.00     0.043 C 
BRANCH   5   6
ATOM      6  C   UNL     1       6.129   0.441   0.387  1.00  0.00    -0.044 A 
ATOM      7  C   UNL     1       6.554  -0.634   1.175  1.00  0.00     0.008 A 
ATOM      8  C   UNL     1       6.487   0.469  -0.942  1.00  0.00     0.054 A 
ATOM      9  C   UNL     1       7.319  -1.630   0.595  1.00  0.00     0.051 A 
ATOM     10  C   UNL     1       7.260  -0.540  -1.523  1.00  0.00     0.166 A 
ATOM     11  C   UNL     1       7.679  -1.598  -0.748  1.00  0.00     0.165 A 
ATOM     12  O   UNL     1       7.740  -0.738  -2.801  1.00  0.00    -0.454 OA
ATOM     13  O   UNL     1       8.415  -2.433  -1.574  1.00  0.00    -0.454 OA
ATOM     14  C   UNL     1       8.403  -1.972  -2.904  1.00  0.00     0.468 C 
ENDBRANCH   5   6
ENDBRANCH   1   5
TORSDOF 3
ENDMDL
MODEL 2
REMARK VINA RESULT:      -7.7      1.895      2.624
REMARK SMILES CC(=O)CCc1ccc2c(c1)OCO2
REMARK SMILES IDX 4 1 2 2 1 3 3 4 5 5 6 6 7 7 11 8 8 9 10 10 9 11 12 12 14 13
REMARK SMILES IDX 13 14
REMARK H PARENT
REMARK Flexibility Score: inf
ROOT
ATOM      1  C   UNL     1       5.504   1.902   1.274  1.00  0.00     0.080 C 
ENDROOT
BRANCH   1   2
ATOM      2  C   UNL     1       5.056   0.682   2.003  1.00  0.00     0.130 C 
ATOM      3  C   UNL     1       5.934  -0.510   2.143  1.00  0.00     0.087 C 
ATOM      4  O   UNL     1       3.946   0.626   2.508  1.00  0.00    -0.300 OA
ENDBRANCH   1   2
BRANCH   1   5
ATOM      5  C   UNL     1       5.383   1.722  -0.226  1.00  0.00     0.043 C 
BRANCH   5   6
ATOM      6  C   UNL     1       6.554   1.027  -0.790  1.00  0.00    -0.044 A 
ATOM      7  C   UNL     1       7.858   1.469  -0.541  1.00  0.00     0.008 A 
ATOM      8  C   UNL     1       6.372  -0.086  -1.578  1.00  0.00     0.054 A 
ATOM      9  C   UNL     1       8.919   0.776  -1.096  1.00  0.00     0.051 A 
ATOM     10  C   UNL     1       7.447  -0.784  -2.137  1.00  0.00     0.166 A 
ATOM     11  C   UNL     1       8.731  -0.349  -1.894  1.00  0.00     0.165 A 
ATOM     12  O   UNL     1       7.526  -1.900  -2.943  1.00  0.00    -0.454 OA
ATOM     13  O   UNL     1       9.581  -1.217  -2.562  1.00  0.00    -0.454 OA
ATOM     14  C   UNL     1       8.864  -2.267  -3.165  1.00  0.00     0.468 C 
ENDBRANCH   5   6
ENDBRANCH   1   5
TORSDOF 3
ENDMDL
MODEL 3
REMARK VINA RESULT:      -7.5      1.952      2.987
REMARK SMILES CC(=O)CCc1ccc2c(c1)OCO2
REMARK SMILES IDX 4 1 2 2 1 3 3 4 5 5 6 6 7 7 11 8 8 9 10 10 9 11 12 12 14 13
REMARK SMILES IDX 13 14
REMARK H PARENT
REMARK Flexibility Score: inf
ROOT
ATOM      1  C   UNL     1       5.734   1.324  -0.351  1.00  0.00     0.080 C 
ENDROOT
BRANCH   1   2
ATOM      2  C   UNL     1       5.132   1.300   1.012  1.00  0.00     0.130 C 
ATOM      3  C   UNL     1       5.331   0.149   1.933  1.00  0.00     0.087 C 
ATOM      4  O   UNL     1       4.453   2.231   1.413  1.00  0.00    -0.300 OA
ENDBRANCH   1   2
BRANCH   1   5
ATOM      5  C   UNL     1       7.232   1.099  -0.295  1.00  0.00     0.043 C 
BRANCH   5   6
ATOM      6  C   UNL     1       7.614  -0.193  -0.892  1.00  0.00    -0.044 A 
ATOM      7  C   UNL     1       7.716  -0.358  -2.278  1.00  0.00     0.008 A 
ATOM      8  C   UNL     1       7.881  -1.269  -0.076  1.00  0.00     0.054 A 
ATOM      9  C   UNL     1       8.080  -1.594  -2.781  1.00  0.00     0.051 A 
ATOM     10  C   UNL     1       8.249  -2.516  -0.590  1.00  0.00     0.166 A 
ATOM     11  C   UNL     1       8.348  -2.680  -1.954  1.00  0.00     0.165 A 
ATOM     12  O   UNL     1       8.560  -3.722   0.002  1.00  0.00    -0.454 OA
ATOM     13  O   UNL     1       8.724  -3.996  -2.173  1.00  0.00    -0.454 OA
ATOM     14  C   UNL     1       8.957  -4.667  -0.957  1.00  0.00     0.468 C 
ENDBRANCH   5   6
ENDBRANCH   1   5
TORSDOF 3
ENDMDL
