@<TRIPOS>MOLECULE
/home/cewinharhar/GITHUB/reincatalyze/data/processed/docking_pred/2023-May-22-1531_sub9_nm5_bs15_s42_ex16_mel10_mts1000_k50_ec02_g099_lra9e-4_lrc1e-3/51cadb519a72bd0ce332fe372f57097c9ba117cb_ligand_9.pdbqt
 14 15 0 0 0
SMALL
GASTEIGER

@<TRIPOS>ATOM
      1  C          5.5320    2.8360    0.2050 C.3     1  UNL1        0.0800
      2  C          6.2790    3.8160    1.0420 C.2     1  UNL1        0.1300
      3  C          7.2470    4.7750    0.4460 C.3     1  UNL1        0.0870
      4  O          6.1170    3.8590    2.2510 O.2     1  UNL1       -0.3000
      5  C          5.3120    1.5330    0.9460 C.3     1  UNL1        0.0430
      6  C          6.1290    0.4410    0.3870 C.2     1  UNL1       -0.0440
      7  C          6.5540   -0.6340    1.1750 C.2     1  UNL1        0.0080
      8  C          6.4870    0.4690   -0.9420 C.2     1  UNL1        0.0540
      9  C          7.3190   -1.6300    0.5950 C.2     1  UNL1        0.0510
     10  C          7.2600   -0.5400   -1.5230 C.2     1  UNL1        0.1660
     11  C          7.6790   -1.5980   -0.7480 C.2     1  UNL1        0.1650
     12  O          7.7400   -0.7380   -2.8010 O.2     1  UNL1       -0.4540
     13  O          8.4150   -2.4330   -1.5740 O.2     1  UNL1       -0.4540
     14  C          8.4030   -1.9720   -2.9040 C.3     1  UNL1        0.4680
@<TRIPOS>BOND
     1    14    12    1
     2    14    13    1
     3    12    10    1
     4    13    11    1
     5    10     8    1
     6    10    11    2
     7     8     6    2
     8    11     9    1
     9     1     5    1
    10     1     2    1
    11     6     5    1
    12     6     7    1
    13     3     2    1
    14     9     7    2
    15     2     4    2
