@<TRIPOS>MOLECULE
/home/cewinharhar/GITHUB/reincatalyze/data/processed/docking_pred/2023-May-22-1531_sub9_nm5_bs15_s42_ex16_mel10_mts1000_k50_ec02_g099_lra9e-4_lrc1e-3/544f4ddee7da09465e084ab518e20d4fbc72de61_ligand_9.pdbqt
 14 15 0 0 0
SMALL
GASTEIGER

@<TRIPOS>ATOM
      1  C          5.3960    2.9580    0.2520 C.3     1  UNL1        0.0800
      2  C          6.3400    3.7740    1.0650 C.2     1  UNL1        0.1300
      3  C          7.2460    4.7750    0.4400 C.3     1  UNL1        0.0870
      4  O          6.3980    3.6440    2.2770 O.2     1  UNL1       -0.3000
      5  C          5.1350    1.6110    0.8980 C.3     1  UNL1        0.0430
      6  C          5.9960    0.5580    0.3310 C.2     1  UNL1       -0.0440
      7  C          6.4590    0.6200   -0.9880 C.2     1  UNL1        0.0080
      8  C          6.3610   -0.5170    1.1100 C.2     1  UNL1        0.0540
      9  C          7.2650   -0.3970   -1.4650 C.2     1  UNL1        0.0510
     10  C          7.1770   -1.5430    0.6230 C.2     1  UNL1        0.1660
     11  C          7.6320   -1.4830   -0.6750 C.2     1  UNL1        0.1650
     12  O          7.6720   -2.6980    1.1890 O.2     1  UNL1       -0.4540
     13  O          8.4060   -2.6140   -0.8810 O.2     1  UNL1       -0.4540
     14  C          8.5320   -3.3660    0.3020 C.3     1  UNL1        0.4680
@<TRIPOS>BOND
     1     9     7    1
     2     9    11    2
     3     7     6    2
     4    13    11    1
     5    13    14    1
     6    11    10    1
     7     1     5    1
     8     1     2    1
     9    14    12    1
    10     6     5    1
    11     6     8    1
    12     3     2    1
    13    10     8    2
    14    10    12    1
    15     2     4    2
