@<TRIPOS>MOLECULE
/home/cewinharhar/GITHUB/reincatalyze/data/processed/docking_pred/2023-May-22-1531_sub9_nm5_bs15_s42_ex16_mel10_mts1000_k50_ec02_g099_lra9e-4_lrc1e-3/544f4ddee7da09465e084ab518e20d4fbc72de61_ligand_9.pdbqt
 14 15 0 0 0
SMALL
GASTEIGER

@<TRIPOS>ATOM
      1  C          5.5330    1.9320    1.2570 C.3     1  UNL1        0.0800
      2  C          5.1090    0.7140    2.0020 C.2     1  UNL1        0.1300
      3  C          6.0220   -0.4450    2.1870 C.3     1  UNL1        0.0870
      4  O          3.9900    0.6320    2.4840 O.2     1  UNL1       -0.3000
      5  C          5.4060    1.7340   -0.2400 C.3     1  UNL1        0.0430
      6  C          6.5720    1.0270   -0.7990 C.2     1  UNL1       -0.0440
      7  C          7.8800    1.4530   -0.5410 C.2     1  UNL1        0.0080
      8  C          6.3820   -0.0820   -1.5920 C.2     1  UNL1        0.0540
      9  C          8.9360    0.7490   -1.0920 C.2     1  UNL1        0.0510
     10  C          7.4530   -0.7900   -2.1460 C.2     1  UNL1        0.1660
     11  C          8.7400   -0.3710   -1.8940 C.2     1  UNL1        0.1650
     12  O          7.5240   -1.9050   -2.9550 O.2     1  UNL1       -0.4540
     13  O          9.5840   -1.2470   -2.5590 O.2     1  UNL1       -0.4540
     14  C          8.8580   -2.2870   -3.1700 C.3     1  UNL1        0.4680
@<TRIPOS>BOND
     1    14    12    1
     2    14    13    1
     3    12    10    1
     4    13    11    1
     5    10    11    2
     6    10     8    1
     7    11     9    1
     8     8     6    2
     9     9     7    2
    10     6     7    1
    11     6     5    1
    12     5     1    1
    13     1     2    1
    14     2     3    1
    15     2     4    2
