@<TRIPOS>MOLECULE
/home/cewinharhar/GITHUB/reincatalyze/data/processed/docking_pred/2023-May-22-1531_sub9_nm5_bs15_s42_ex16_mel10_mts1000_k50_ec02_g099_lra9e-4_lrc1e-3/544f4ddee7da09465e084ab518e20d4fbc72de61_ligand_9.pdbqt
 14 15 0 0 0
SMALL
GASTEIGER

@<TRIPOS>ATOM
      1  C          5.4760    2.9040    0.1040 C.3     1  UNL1        0.0800
      2  C          6.3010    3.8150    0.9470 C.2     1  UNL1        0.1300
      3  C          7.2670    4.7730    0.3460 C.3     1  UNL1        0.0870
      4  O          6.2070    3.7990    2.1640 O.2     1  UNL1       -0.3000
      5  C          5.1820    1.6040    0.8250 C.3     1  UNL1        0.0430
      6  C          6.0080    0.4960    0.3110 C.2     1  UNL1       -0.0440
      7  C          6.3700   -0.5860    1.1220 C.2     1  UNL1        0.0080
      8  C          6.4370    0.5140   -0.9970 C.2     1  UNL1        0.0540
      9  C          7.1460   -1.5970    0.5860 C.2     1  UNL1        0.0510
     10  C          7.2210   -0.5110   -1.5350 C.2     1  UNL1        0.1660
     11  C          7.5780   -1.5750   -0.7370 C.2     1  UNL1        0.1650
     12  O          7.7650   -0.7210   -2.7840 O.2     1  UNL1       -0.4540
     13  O          8.3420   -2.4250   -1.5210 O.2     1  UNL1       -0.4540
     14  C          8.4090   -1.9670   -2.8510 C.3     1  UNL1        0.4680
@<TRIPOS>BOND
     1    14    12    1
     2    14    13    1
     3    12    10    1
     4    10     8    1
     5    10    11    2
     6    13    11    1
     7     8     6    2
     8    11     9    1
     9     1     5    1
    10     1     2    1
    11     6     5    1
    12     6     7    1
    13     3     2    1
    14     9     7    2
    15     2     4    2
