MODEL 1
REMARK VINA RESULT:      -7.9      0.000      0.000
REMARK SMILES CC(=O)CCc1ccc2c(c1)OCO2
REMARK SMILES IDX 4 1 2 2 1 3 3 4 5 5 6 6 7 7 11 8 8 9 10 10 9 11 12 12 14 13
REMARK SMILES IDX 13 14
REMARK H PARENT
REMARK Flexibility Score: inf
ROOT
ATOM      1  C   UNL     1       5.476   2.904   0.104  1.00  0.00     0.080 C 
ENDROOT
BRANCH   1   2
ATOM      2  C   UNL     1       6.301   3.815   0.947  1.00  0.00     0.130 C 
ATOM      3  C   UNL     1       7.267   4.773   0.346  1.00  0.00     0.087 C 
ATOM      4  O   UNL     1       6.207   3.799   2.164  1.00  0.00    -0.300 OA
ENDBRANCH   1   2
BRANCH   1   5
ATOM      5  C   UNL     1       5.182   1.604   0.825  1.00  0.00     0.043 C 
BRANCH   5   6
ATOM      6  C   UNL     1       6.008   0.496   0.311  1.00  0.00    -0.044 A 
ATOM      7  C   UNL     1       6.370  -0.586   1.122  1.00  0.00     0.008 A 
ATOM      8  C   UNL     1       6.437   0.514  -0.997  1.00  0.00     0.054 A 
ATOM      9  C   UNL     1       7.146  -1.597   0.586  1.00  0.00     0.051 A 
ATOM     10  C   UNL     1       7.221  -0.511  -1.535  1.00  0.00     0.166 A 
ATOM     11  C   UNL     1       7.578  -1.575  -0.737  1.00  0.00     0.165 A 
ATOM     12  O   UNL     1       7.765  -0.721  -2.784  1.00  0.00    -0.454 OA
ATOM     13  O   UNL     1       8.342  -2.425  -1.521  1.00  0.00    -0.454 OA
ATOM     14  C   UNL     1       8.409  -1.967  -2.851  1.00  0.00     0.468 C 
ENDBRANCH   5   6
ENDBRANCH   1   5
TORSDOF 3
ENDMDL
MODEL 2
REMARK VINA RESULT:      -7.7      0.994      1.983
REMARK SMILES CC(=O)CCc1ccc2c(c1)OCO2
REMARK SMILES IDX 4 1 2 2 1 3 3 4 5 5 6 6 7 7 11 8 8 9 10 10 9 11 12 12 14 13
REMARK SMILES IDX 13 14
REMARK H PARENT
REMARK Flexibility Score: inf
ROOT
ATOM      1  C   UNL     1       5.396   2.958   0.252  1.00  0.00     0.080 C 
ENDROOT
BRANCH   1   2
ATOM      2  C   UNL     1       6.340   3.774   1.065  1.00  0.00     0.130 C 
ATOM      3  C   UNL     1       7.246   4.775   0.440  1.00  0.00     0.087 C 
ATOM      4  O   UNL     1       6.398   3.644   2.277  1.00  0.00    -0.300 OA
ENDBRANCH   1   2
BRANCH   1   5
ATOM      5  C   UNL     1       5.135   1.611   0.898  1.00  0.00     0.043 C 
BRANCH   5   6
ATOM      6  C   UNL     1       5.996   0.558   0.331  1.00  0.00    -0.044 A 
ATOM      7  C   UNL     1       6.459   0.620  -0.988  1.00  0.00     0.008 A 
ATOM      8  C   UNL     1       6.361  -0.517   1.110  1.00  0.00     0.054 A 
ATOM      9  C   UNL     1       7.265  -0.397  -1.465  1.00  0.00     0.051 A 
ATOM     10  C   UNL     1       7.177  -1.543   0.623  1.00  0.00     0.166 A 
ATOM     11  C   UNL     1       7.632  -1.483  -0.675  1.00  0.00     0.165 A 
ATOM     12  O   UNL     1       7.672  -2.698   1.189  1.00  0.00    -0.454 OA
ATOM     13  O   UNL     1       8.406  -2.614  -0.881  1.00  0.00    -0.454 OA
ATOM     14  C   UNL     1       8.532  -3.366   0.302  1.00  0.00     0.468 C 
ENDBRANCH   5   6
ENDBRANCH   1   5
TORSDOF 3
ENDMDL
MODEL 3
REMARK VINA RESULT:      -7.6      1.884      2.628
REMARK SMILES CC(=O)CCc1ccc2c(c1)OCO2
REMARK SMILES IDX 4 1 2 2 1 3 3 4 5 5 6 6 7 7 11 8 8 9 10 10 9 11 12 12 14 13
REMARK SMILES IDX 13 14
REMARK H PARENT
REMARK Flexibility Score: inf
ROOT
ATOM      1  C   UNL     1       5.533   1.932   1.257  1.00  0.00     0.080 C 
ENDROOT
BRANCH   1   2
ATOM      2  C   UNL     1       5.109   0.714   2.002  1.00  0.00     0.130 C 
ATOM      3  C   UNL     1       6.022  -0.445   2.187  1.00  0.00     0.087 C 
ATOM      4  O   UNL     1       3.990   0.632   2.484  1.00  0.00    -0.300 OA
ENDBRANCH   1   2
BRANCH   1   5
ATOM      5  C   UNL     1       5.406   1.734  -0.240  1.00  0.00     0.043 C 
BRANCH   5   6
ATOM      6  C   UNL     1       6.572   1.027  -0.799  1.00  0.00    -0.044 A 
ATOM      7  C   UNL     1       7.880   1.453  -0.541  1.00  0.00     0.008 A 
ATOM      8  C   UNL     1       6.382  -0.082  -1.592  1.00  0.00     0.054 A 
ATOM      9  C   UNL     1       8.936   0.749  -1.092  1.00  0.00     0.051 A 
ATOM     10  C   UNL     1       7.453  -0.790  -2.146  1.00  0.00     0.166 A 
ATOM     11  C   UNL     1       8.740  -0.371  -1.894  1.00  0.00     0.165 A 
ATOM     12  O   UNL     1       7.524  -1.905  -2.955  1.00  0.00    -0.454 OA
ATOM     13  O   UNL     1       9.584  -1.247  -2.559  1.00  0.00    -0.454 OA
ATOM     14  C   UNL     1       8.858  -2.287  -3.170  1.00  0.00     0.468 C 
ENDBRANCH   5   6
ENDBRANCH   1   5
TORSDOF 3
ENDMDL
