@<TRIPOS>MOLECULE
/home/cewinharhar/GITHUB/reincatalyze/data/processed/docking_pred/2023-May-22-1531_sub9_nm5_bs15_s42_ex16_mel10_mts1000_k50_ec02_g099_lra9e-4_lrc1e-3/551c5941f3bf749be32b1159c48b101be233bdbe_ligand_9.pdbqt
 14 15 0 0 0
SMALL
GASTEIGER

@<TRIPOS>ATOM
      1  C          5.7300    1.2950   -0.3040 C.3     1  UNL1        0.0800
      2  C          5.1640    1.2790    1.0740 C.2     1  UNL1        0.1300
      3  C          5.3110    0.0970    1.9650 C.3     1  UNL1        0.0870
      4  O          4.5570    2.2420    1.5130 O.2     1  UNL1       -0.3000
      5  C          7.2320    1.0870   -0.2840 C.3     1  UNL1        0.0430
      6  C          7.6120   -0.2040   -0.8850 C.2     1  UNL1       -0.0440
      7  C          7.7000   -0.3690   -2.2720 C.2     1  UNL1        0.0080
      8  C          7.8920   -1.2790   -0.0720 C.2     1  UNL1        0.0540
      9  C          8.0630   -1.6040   -2.7790 C.2     1  UNL1        0.0510
     10  C          8.2580   -2.5250   -0.5900 C.2     1  UNL1        0.1660
     11  C          8.3440   -2.6890   -1.9550 C.2     1  UNL1        0.1650
     12  O          8.5800   -3.7290   -0.0010 O.2     1  UNL1       -0.4540
     13  O          8.7220   -4.0030   -2.1780 O.2     1  UNL1       -0.4540
     14  C          8.9710   -4.6730   -0.9650 C.3     1  UNL1        0.4680
@<TRIPOS>BOND
     1     9     7    1
     2     9    11    2
     3     7     6    2
     4    13    11    1
     5    13    14    1
     6    11    10    1
     7    14    12    1
     8     6     5    1
     9     6     8    1
    10    10     8    2
    11    10    12    1
    12     1     5    1
    13     1     2    1
    14     2     4    2
    15     2     3    1
