MODEL 1
REMARK VINA RESULT:      -7.9      0.000      0.000
REMARK SMILES CC(=O)CCc1ccc2c(c1)OCO2
REMARK SMILES IDX 4 1 2 2 1 3 3 4 5 5 6 6 7 7 11 8 8 9 10 10 9 11 12 12 14 13
REMARK SMILES IDX 13 14
REMARK H PARENT
REMARK Flexibility Score: inf
ROOT
ATOM      1  C   UNL     1       5.465   2.902   0.205  1.00  0.00     0.080 C 
ENDROOT
BRANCH   1   2
ATOM      2  C   UNL     1       6.278   3.857   1.010  1.00  0.00     0.130 C 
ATOM      3  C   UNL     1       7.261   4.774   0.374  1.00  0.00     0.087 C 
ATOM      4  O   UNL     1       6.159   3.913   2.223  1.00  0.00    -0.300 OA
ENDBRANCH   1   2
BRANCH   1   5
ATOM      5  C   UNL     1       5.242   1.603   0.952  1.00  0.00     0.043 C 
BRANCH   5   6
ATOM      6  C   UNL     1       6.058   0.507   0.398  1.00  0.00    -0.044 A 
ATOM      7  C   UNL     1       6.424  -0.599   1.174  1.00  0.00     0.008 A 
ATOM      8  C   UNL     1       6.473   0.561  -0.913  1.00  0.00     0.054 A 
ATOM      9  C   UNL     1       7.190  -1.597   0.601  1.00  0.00     0.051 A 
ATOM     10  C   UNL     1       7.246  -0.451  -1.488  1.00  0.00     0.166 A 
ATOM     11  C   UNL     1       7.608  -1.539  -0.725  1.00  0.00     0.165 A 
ATOM     12  O   UNL     1       7.776  -0.627  -2.749  1.00  0.00    -0.454 OA
ATOM     13  O   UNL     1       8.359  -2.370  -1.542  1.00  0.00    -0.454 OA
ATOM     14  C   UNL     1       8.414  -1.874  -2.858  1.00  0.00     0.468 C 
ENDBRANCH   5   6
ENDBRANCH   1   5
TORSDOF 3
ENDMDL
MODEL 2
REMARK VINA RESULT:      -7.7      1.901      2.646
REMARK SMILES CC(=O)CCc1ccc2c(c1)OCO2
REMARK SMILES IDX 4 1 2 2 1 3 3 4 5 5 6 6 7 7 11 8 8 9 10 10 9 11 12 12 14 13
REMARK SMILES IDX 13 14
REMARK H PARENT
REMARK Flexibility Score: inf
ROOT
ATOM      1  C   UNL     1       5.546   1.915   1.275  1.00  0.00     0.080 C 
ENDROOT
BRANCH   1   2
ATOM      2  C   UNL     1       5.123   0.692   2.013  1.00  0.00     0.130 C 
ATOM      3  C   UNL     1       6.034  -0.471   2.183  1.00  0.00     0.087 C 
ATOM      4  O   UNL     1       4.008   0.610   2.502  1.00  0.00    -0.300 OA
ENDBRANCH   1   2
BRANCH   1   5
ATOM      5  C   UNL     1       5.415   1.726  -0.224  1.00  0.00     0.043 C 
BRANCH   5   6
ATOM      6  C   UNL     1       6.580   1.023  -0.790  1.00  0.00    -0.044 A 
ATOM      7  C   UNL     1       7.889   1.449  -0.534  1.00  0.00     0.008 A 
ATOM      8  C   UNL     1       6.389  -0.082  -1.587  1.00  0.00     0.054 A 
ATOM      9  C   UNL     1       8.943   0.749  -1.092  1.00  0.00     0.051 A 
ATOM     10  C   UNL     1       7.458  -0.787  -2.148  1.00  0.00     0.166 A 
ATOM     11  C   UNL     1       8.746  -0.367  -1.898  1.00  0.00     0.165 A 
ATOM     12  O   UNL     1       7.528  -1.897  -2.962  1.00  0.00    -0.454 OA
ATOM     13  O   UNL     1       9.589  -1.239  -2.571  1.00  0.00    -0.454 OA
ATOM     14  C   UNL     1       8.862  -2.277  -3.183  1.00  0.00     0.468 C 
ENDBRANCH   5   6
ENDBRANCH   1   5
TORSDOF 3
ENDMDL
MODEL 3
REMARK VINA RESULT:      -7.5      1.961      3.039
REMARK SMILES CC(=O)CCc1ccc2c(c1)OCO2
REMARK SMILES IDX 4 1 2 2 1 3 3 4 5 5 6 6 7 7 11 8 8 9 10 10 9 11 12 12 14 13
REMARK SMILES IDX 13 14
REMARK H PARENT
REMARK Flexibility Score: inf
ROOT
ATOM      1  C   UNL     1       5.730   1.295  -0.304  1.00  0.00     0.080 C 
ENDROOT
BRANCH   1   2
ATOM      2  C   UNL     1       5.164   1.279   1.074  1.00  0.00     0.130 C 
ATOM      3  C   UNL     1       5.311   0.097   1.965  1.00  0.00     0.087 C 
ATOM      4  O   UNL     1       4.557   2.242   1.513  1.00  0.00    -0.300 OA
ENDBRANCH   1   2
BRANCH   1   5
ATOM      5  C   UNL     1       7.232   1.087  -0.284  1.00  0.00     0.043 C 
BRANCH   5   6
ATOM      6  C   UNL     1       7.612  -0.204  -0.885  1.00  0.00    -0.044 A 
ATOM      7  C   UNL     1       7.700  -0.369  -2.272  1.00  0.00     0.008 A 
ATOM      8  C   UNL     1       7.892  -1.279  -0.072  1.00  0.00     0.054 A 
ATOM      9  C   UNL     1       8.063  -1.604  -2.779  1.00  0.00     0.051 A 
ATOM     10  C   UNL     1       8.258  -2.525  -0.590  1.00  0.00     0.166 A 
ATOM     11  C   UNL     1       8.344  -2.689  -1.955  1.00  0.00     0.165 A 
ATOM     12  O   UNL     1       8.580  -3.729  -0.001  1.00  0.00    -0.454 OA
ATOM     13  O   UNL     1       8.722  -4.003  -2.178  1.00  0.00    -0.454 OA
ATOM     14  C   UNL     1       8.971  -4.673  -0.965  1.00  0.00     0.468 C 
ENDBRANCH   5   6
ENDBRANCH   1   5
TORSDOF 3
ENDMDL
