@<TRIPOS>MOLECULE
/home/cewinharhar/GITHUB/reincatalyze/data/processed/docking_pred/2023-May-22-1531_sub9_nm5_bs15_s42_ex16_mel10_mts1000_k50_ec02_g099_lra9e-4_lrc1e-3/551c5941f3bf749be32b1159c48b101be233bdbe_ligand_9.pdbqt
 14 15 0 0 0
SMALL
GASTEIGER

@<TRIPOS>ATOM
      1  C          5.4650    2.9020    0.2050 C.3     1  UNL1        0.0800
      2  C          6.2780    3.8570    1.0100 C.2     1  UNL1        0.1300
      3  C          7.2610    4.7740    0.3740 C.3     1  UNL1        0.0870
      4  O          6.1590    3.9130    2.2230 O.2     1  UNL1       -0.3000
      5  C          5.2420    1.6030    0.9520 C.3     1  UNL1        0.0430
      6  C          6.0580    0.5070    0.3980 C.2     1  UNL1       -0.0440
      7  C          6.4240   -0.5990    1.1740 C.2     1  UNL1        0.0080
      8  C          6.4730    0.5610   -0.9130 C.2     1  UNL1        0.0540
      9  C          7.1900   -1.5970    0.6010 C.2     1  UNL1        0.0510
     10  C          7.2460   -0.4510   -1.4880 C.2     1  UNL1        0.1660
     11  C          7.6080   -1.5390   -0.7250 C.2     1  UNL1        0.1650
     12  O          7.7760   -0.6270   -2.7490 O.2     1  UNL1       -0.4540
     13  O          8.3590   -2.3700   -1.5420 O.2     1  UNL1       -0.4540
     14  C          8.4140   -1.8740   -2.8580 C.3     1  UNL1        0.4680
@<TRIPOS>BOND
     1    14    12    1
     2    14    13    1
     3    12    10    1
     4    13    11    1
     5    10     8    1
     6    10    11    2
     7     8     6    2
     8    11     9    1
     9     1     5    1
    10     1     2    1
    11     3     2    1
    12     6     5    1
    13     6     7    1
    14     9     7    2
    15     2     4    2
