@<TRIPOS>MOLECULE
/home/cewinharhar/GITHUB/reincatalyze/data/processed/docking_pred/2023-May-22-1531_sub9_nm5_bs15_s42_ex16_mel10_mts1000_k50_ec02_g099_lra9e-4_lrc1e-3/5bd4159c0713ad18fb2d2a846002564f6b7df27c_ligand_9.pdbqt
 14 15 0 0 0
SMALL
GASTEIGER

@<TRIPOS>ATOM
      1  C          5.3620    2.9590    0.2360 C.3     1  UNL1        0.0800
      2  C          6.2620    3.8710    0.9960 C.2     1  UNL1        0.1300
      3  C          7.2360    4.7590    0.3070 C.3     1  UNL1        0.0870
      4  O          6.2260    3.9140    2.2150 O.2     1  UNL1       -0.3000
      5  C          5.1820    1.6370    0.9560 C.3     1  UNL1        0.0430
      6  C          6.0020    0.5710    0.3540 C.2     1  UNL1       -0.0440
      7  C          6.3600    0.5970   -0.9990 C.2     1  UNL1        0.0080
      8  C          6.4340   -0.4790    1.1320 C.2     1  UNL1        0.0540
      9  C          7.1320   -0.4310   -1.5090 C.2     1  UNL1        0.0510
     10  C          7.2150   -1.5160    0.6120 C.2     1  UNL1        0.1660
     11  C          7.5660   -1.4920   -0.7190 C.2     1  UNL1        0.1650
     12  O          7.7590   -2.6530    1.1700 O.2     1  UNL1       -0.4540
     13  O          8.3280   -2.6260   -0.9530 O.2     1  UNL1       -0.4540
     14  C          8.5510   -3.3430    0.2380 C.3     1  UNL1        0.4680
@<TRIPOS>BOND
     1     9     7    1
     2     9    11    2
     3     7     6    2
     4    13    11    1
     5    13    14    1
     6    11    10    1
     7     1     5    1
     8     1     2    1
     9    14    12    1
    10     3     2    1
    11     6     5    1
    12     6     8    1
    13    10     8    2
    14    10    12    1
    15     2     4    2
