@<TRIPOS>MOLECULE
/home/cewinharhar/GITHUB/reincatalyze/data/processed/docking_pred/2023-May-22-1531_sub9_nm5_bs15_s42_ex16_mel10_mts1000_k50_ec02_g099_lra9e-4_lrc1e-3/5bd4159c0713ad18fb2d2a846002564f6b7df27c_ligand_9.pdbqt
 14 15 0 0 0
SMALL
GASTEIGER

@<TRIPOS>ATOM
      1  C          5.5360    1.9300    1.2690 C.3     1  UNL1        0.0800
      2  C          5.1220    0.7100    2.0150 C.2     1  UNL1        0.1300
      3  C          6.0410   -0.4460    2.1940 C.3     1  UNL1        0.0870
      4  O          4.0070    0.6220    2.5050 O.2     1  UNL1       -0.3000
      5  C          5.4040    1.7310   -0.2280 C.3     1  UNL1        0.0430
      6  C          6.5720    1.0280   -0.7910 C.2     1  UNL1       -0.0440
      7  C          7.8790    1.4540   -0.5290 C.2     1  UNL1        0.0080
      8  C          6.3840   -0.0750   -1.5910 C.2     1  UNL1        0.0540
      9  C          8.9360    0.7550   -1.0830 C.2     1  UNL1        0.0510
     10  C          7.4550   -0.7790   -2.1490 C.2     1  UNL1        0.1660
     11  C          8.7420   -0.3600   -1.8930 C.2     1  UNL1        0.1650
     12  O          7.5290   -1.8880   -2.9650 O.2     1  UNL1       -0.4540
     13  O          9.5880   -1.2300   -2.5630 O.2     1  UNL1       -0.4540
     14  C          8.8640   -2.2670   -3.1810 C.3     1  UNL1        0.4680
@<TRIPOS>BOND
     1    14    12    1
     2    14    13    1
     3    12    10    1
     4    13    11    1
     5    10    11    2
     6    10     8    1
     7    11     9    1
     8     8     6    2
     9     9     7    2
    10     6     7    1
    11     6     5    1
    12     5     1    1
    13     1     2    1
    14     2     3    1
    15     2     4    2
