@<TRIPOS>MOLECULE
/home/cewinharhar/GITHUB/reincatalyze/data/processed/docking_pred/2023-May-22-1531_sub9_nm5_bs15_s42_ex16_mel10_mts1000_k50_ec02_g099_lra9e-4_lrc1e-3/5bd4159c0713ad18fb2d2a846002564f6b7df27c_ligand_9.pdbqt
 14 15 0 0 0
SMALL
GASTEIGER

@<TRIPOS>ATOM
      1  C          5.4470    2.9050    0.2280 C.3     1  UNL1        0.0800
      2  C          6.3450    3.7840    1.0280 C.2     1  UNL1        0.1300
      3  C          7.2470    4.7740    0.3810 C.3     1  UNL1        0.0870
      4  O          6.3660    3.7160    2.2460 O.2     1  UNL1       -0.3000
      5  C          5.1920    1.5890    0.9360 C.3     1  UNL1        0.0430
      6  C          6.0240    0.5040    0.3870 C.2     1  UNL1       -0.0440
      7  C          6.3890   -0.6040    1.1610 C.2     1  UNL1        0.0080
      8  C          6.4570    0.5690   -0.9180 C.2     1  UNL1        0.0540
      9  C          7.1710   -1.5920    0.5910 C.2     1  UNL1        0.0510
     10  C          7.2470   -0.4330   -1.4890 C.2     1  UNL1        0.1660
     11  C          7.6070   -1.5230   -0.7280 C.2     1  UNL1        0.1650
     12  O          7.7960   -0.5970   -2.7440 O.2     1  UNL1       -0.4540
     13  O          8.3770   -2.3420   -1.5390 O.2     1  UNL1       -0.4540
     14  C          8.4460   -1.8370   -2.8520 C.3     1  UNL1        0.4680
@<TRIPOS>BOND
     1    14    12    1
     2    14    13    1
     3    12    10    1
     4    13    11    1
     5    10     8    1
     6    10    11    2
     7     8     6    2
     8    11     9    1
     9     1     5    1
    10     1     2    1
    11     3     2    1
    12     6     5    1
    13     6     7    1
    14     9     7    2
    15     2     4    2
